# generated using pymatgen
data_Ho5Si9P3Rh19
_symmetry_space_group_name_H-M   'P 1'
_cell_length_a   12.78266300
_cell_length_b   12.78266335
_cell_length_c   3.91249900
_cell_angle_alpha   90.00000000
_cell_angle_beta   90.00000000
_cell_angle_gamma   120.00000169
_symmetry_Int_Tables_number   1
_chemical_formula_structural   Ho5Si9P3Rh19
_chemical_formula_sum   'Ho5 Si9 P3 Rh19'
_cell_volume   553.64012054
_cell_formula_units_Z   1
loop_
 _symmetry_equiv_pos_site_id
 _symmetry_equiv_pos_as_xyz
  1  'x, y, z'
loop_
 _atom_site_type_symbol
 _atom_site_label
 _atom_site_symmetry_multiplicity
 _atom_site_fract_x
 _atom_site_fract_y
 _atom_site_fract_z
 _atom_site_occupancy
  Ho  Ho0  1  0.666667  0.333333  0.000000  1
  Ho  Ho1  1  0.333333  0.666667  0.000000  1
  Ho  Ho2  1  0.813515  0.813515  0.500000  1
  Ho  Ho3  1  0.186485  0.000000  0.500000  1
  Ho  Ho4  1  0.000000  0.186485  0.500000  1
  Si  Si5  1  0.684919  0.164046  0.500000  1
  Si  Si6  1  0.835954  0.520873  0.500000  1
  Si  Si7  1  0.479127  0.315081  0.500000  1
  Si  Si8  1  0.164046  0.684919  0.500000  1
  Si  Si9  1  0.520873  0.835954  0.500000  1
  Si  Si10  1  0.315081  0.479127  0.500000  1
  Si  Si11  1  0.630455  0.630455  0.000000  1
  Si  Si12  1  0.369545  0.000000  0.000000  1
  Si  Si13  1  0.000000  0.369545  0.000000  1
  P  P14  1  0.179269  0.179269  0.000000  1
  P  P15  1  0.820731  0.000000  0.000000  1
  P  P16  1  0.000000  0.820731  0.000000  1
  Rh  Rh17  1  0.807491  0.179257  0.000000  1
  Rh  Rh18  1  0.820743  0.628234  0.000000  1
  Rh  Rh19  1  0.371766  0.192509  0.000000  1
  Rh  Rh20  1  0.179257  0.807491  0.000000  1
  Rh  Rh21  1  0.628234  0.820743  0.000000  1
  Rh  Rh22  1  0.192509  0.371766  0.000000  1
  Rh  Rh23  1  0.445780  0.445780  0.000000  1
  Rh  Rh24  1  0.554220  0.000000  0.000000  1
  Rh  Rh25  1  0.000000  0.554220  0.000000  1
  Rh  Rh26  1  0.275371  0.275371  0.500000  1
  Rh  Rh27  1  0.724629  0.000000  0.500000  1
  Rh  Rh28  1  0.000000  0.724629  0.500000  1
  Rh  Rh29  1  0.872692  0.358403  0.500000  1
  Rh  Rh30  1  0.641597  0.514290  0.500000  1
  Rh  Rh31  1  0.485710  0.127308  0.500000  1
  Rh  Rh32  1  0.358403  0.872692  0.500000  1
  Rh  Rh33  1  0.514290  0.641597  0.500000  1
  Rh  Rh34  1  0.127308  0.485710  0.500000  1
  Rh  Rh35  1  0.000000  0.000000  0.000000  1
