# generated using pymatgen
data_La6Mg2Cd21Se
_symmetry_space_group_name_H-M   'P 1'
_cell_length_a   10.17356964
_cell_length_b   10.17356988
_cell_length_c   10.15408400
_cell_angle_alpha   60.06333884
_cell_angle_beta   60.06333808
_cell_angle_gamma   60.21383512
_symmetry_Int_Tables_number   1
_chemical_formula_structural   La6Mg2Cd21Se
_chemical_formula_sum   'La6 Mg2 Cd21 Se1'
_cell_volume   745.05079411
_cell_formula_units_Z   1
loop_
 _symmetry_equiv_pos_site_id
 _symmetry_equiv_pos_as_xyz
  1  'x, y, z'
loop_
 _atom_site_type_symbol
 _atom_site_label
 _atom_site_symmetry_multiplicity
 _atom_site_fract_x
 _atom_site_fract_y
 _atom_site_fract_z
 _atom_site_occupancy
  La  La0  1  0.787237  0.787237  0.212763  1
  La  La1  1  0.211850  0.788150  0.213178  1
  La  La2  1  0.788150  0.211850  0.213178  1
  La  La3  1  0.212763  0.212763  0.787237  1
  La  La4  1  0.788150  0.211850  0.786822  1
  La  La5  1  0.211850  0.788150  0.786822  1
  Mg  Mg6  1  0.500000  0.500000  0.000000  1
  Mg  Mg7  1  0.500000  0.500000  0.500000  1
  Cd  Cd8  1  0.831108  0.831108  0.505393  1
  Cd  Cd9  1  0.828887  0.505229  0.832942  1
  Cd  Cd10  1  0.505229  0.828887  0.832942  1
  Cd  Cd11  1  0.831108  0.831108  0.832392  1
  Cd  Cd12  1  0.168892  0.168892  0.494607  1
  Cd  Cd13  1  0.171113  0.494771  0.167058  1
  Cd  Cd14  1  0.494771  0.171113  0.167058  1
  Cd  Cd15  1  0.168892  0.168892  0.167608  1
  Cd  Cd16  1  0.620819  0.620819  0.134303  1
  Cd  Cd17  1  0.620602  0.135458  0.621969  1
  Cd  Cd18  1  0.135458  0.620602  0.621969  1
  Cd  Cd19  1  0.620819  0.620819  0.624059  1
  Cd  Cd20  1  0.379181  0.379181  0.865697  1
  Cd  Cd21  1  0.379398  0.864542  0.378031  1
  Cd  Cd22  1  0.864542  0.379398  0.378031  1
  Cd  Cd23  1  0.379181  0.379181  0.375941  1
  Cd  Cd24  1  0.000000  0.000000  0.500000  1
  Cd  Cd25  1  0.500000  0.000000  0.500000  1
  Cd  Cd26  1  0.000000  0.500000  0.500000  1
  Cd  Cd27  1  0.000000  0.500000  0.000000  1
  Cd  Cd28  1  0.500000  0.000000  0.000000  1
  Se  Se29  1  0.000000  0.000000  0.000000  1
