# generated using pymatgen
data_Lu4ZnSi(B2Ir5)2
_symmetry_space_group_name_H-M   'P 1'
_cell_length_a   9.44268600
_cell_length_b   9.44268600
_cell_length_c   3.16025500
_cell_angle_alpha   90.00000000
_cell_angle_beta   90.00000000
_cell_angle_gamma   90.00000000
_symmetry_Int_Tables_number   1
_chemical_formula_structural   Lu4ZnSi(B2Ir5)2
_chemical_formula_sum   'Lu4 Zn1 Si1 B4 Ir10'
_cell_volume   281.78198461
_cell_formula_units_Z   1
loop_
 _symmetry_equiv_pos_site_id
 _symmetry_equiv_pos_as_xyz
  1  'x, y, z'
loop_
 _atom_site_type_symbol
 _atom_site_label
 _atom_site_symmetry_multiplicity
 _atom_site_fract_x
 _atom_site_fract_y
 _atom_site_fract_z
 _atom_site_occupancy
  Lu  Lu0  1  0.175204  0.676971  0.000000  1
  Lu  Lu1  1  0.676971  0.824796  0.000000  1
  Lu  Lu2  1  0.323029  0.175204  0.000000  1
  Lu  Lu3  1  0.824796  0.323029  0.000000  1
  Zn  Zn4  1  0.000000  0.000000  0.000000  1
  Si  Si5  1  0.500000  0.500000  0.000000  1
  B  B6  1  0.374473  0.878120  0.000000  1
  B  B7  1  0.878120  0.625527  0.000000  1
  B  B8  1  0.121880  0.374473  0.000000  1
  B  B9  1  0.625527  0.121880  0.000000  1
  Ir  Ir10  1  0.000000  0.500000  0.500000  1
  Ir  Ir11  1  0.500000  0.000000  0.500000  1
  Ir  Ir12  1  0.287241  0.433372  0.500000  1
  Ir  Ir13  1  0.712760  0.566628  0.500000  1
  Ir  Ir14  1  0.566628  0.287241  0.500000  1
  Ir  Ir15  1  0.433372  0.712760  0.500000  1
  Ir  Ir16  1  0.928249  0.780843  0.500000  1
  Ir  Ir17  1  0.780843  0.071751  0.500000  1
  Ir  Ir18  1  0.219156  0.928249  0.500000  1
  Ir  Ir19  1  0.071751  0.219156  0.500000  1
