# generated using pymatgen
data_Sr(In2Au3)2
_symmetry_space_group_name_H-M   'P 1'
_cell_length_a   15.72880759
_cell_length_b   15.72880805
_cell_length_c   4.08000400
_cell_angle_alpha   90.00000000
_cell_angle_beta   90.00000000
_cell_angle_gamma   165.28612221
_symmetry_Int_Tables_number   1
_chemical_formula_structural   Sr(In2Au3)2
_chemical_formula_sum   'Sr1 In4 Au6'
_cell_volume   256.37319672
_cell_formula_units_Z   1
loop_
 _symmetry_equiv_pos_site_id
 _symmetry_equiv_pos_as_xyz
  1  'x, y, z'
loop_
 _atom_site_type_symbol
 _atom_site_label
 _atom_site_symmetry_multiplicity
 _atom_site_fract_x
 _atom_site_fract_y
 _atom_site_fract_z
 _atom_site_occupancy
  Sr  Sr0  1  0.000000  0.000000  0.000000  1
  In  In1  1  0.622662  0.377338  0.000000  1
  In  In2  1  0.377338  0.622662  0.000000  1
  In  In3  1  0.800004  0.199995  0.500000  1
  In  In4  1  0.199995  0.800004  0.500000  1
  Au  Au5  1  0.715180  0.284820  0.000000  1
  Au  Au6  1  0.284820  0.715180  0.000000  1
  Au  Au7  1  0.893013  0.106987  0.500000  1
  Au  Au8  1  0.543995  0.456004  0.500000  1
  Au  Au9  1  0.456004  0.543995  0.500000  1
  Au  Au10  1  0.106987  0.893013  0.500000  1
