# generated using pymatgen
data_Yb6As13Rh20
_symmetry_space_group_name_H-M   'P 1'
_cell_length_a   13.83714400
_cell_length_b   13.83714244
_cell_length_c   3.97786400
_cell_angle_alpha   90.00000000
_cell_angle_beta   90.00000000
_cell_angle_gamma   119.99999894
_symmetry_Int_Tables_number   1
_chemical_formula_structural   Yb6As13Rh20
_chemical_formula_sum   'Yb6 As13 Rh20'
_cell_volume   659.58905346
_cell_formula_units_Z   1
loop_
 _symmetry_equiv_pos_site_id
 _symmetry_equiv_pos_as_xyz
  1  'x, y, z'
loop_
 _atom_site_type_symbol
 _atom_site_label
 _atom_site_symmetry_multiplicity
 _atom_site_fract_x
 _atom_site_fract_y
 _atom_site_fract_z
 _atom_site_occupancy
  Yb  Yb0  1  0.528432  0.719265  0.249005  1
  Yb  Yb1  1  0.280735  0.809167  0.249005  1
  Yb  Yb2  1  0.190833  0.471568  0.249005  1
  Yb  Yb3  1  0.471568  0.280735  0.750995  1
  Yb  Yb4  1  0.719265  0.190833  0.750995  1
  Yb  Yb5  1  0.809167  0.528432  0.750995  1
  As  As6  1  0.526475  0.139179  0.251154  1
  As  As7  1  0.860821  0.387297  0.251154  1
  As  As8  1  0.612703  0.473525  0.251154  1
  As  As9  1  0.947346  0.716568  0.250808  1
  As  As10  1  0.283432  0.230778  0.250808  1
  As  As11  1  0.769222  0.052654  0.250808  1
  As  As12  1  0.387297  0.526475  0.748846  1
  As  As13  1  0.473525  0.860821  0.748846  1
  As  As14  1  0.139179  0.612703  0.748846  1
  As  As15  1  0.716568  0.769222  0.749192  1
  As  As16  1  0.230778  0.947346  0.749192  1
  As  As17  1  0.052654  0.283432  0.749192  1
  As  As18  1  0.000000  0.000000  0.000000  1
  Rh  Rh19  1  0.333333  0.666667  0.752263  1
  Rh  Rh20  1  0.923253  0.251174  0.252027  1
  Rh  Rh21  1  0.748826  0.672078  0.252027  1
  Rh  Rh22  1  0.327922  0.076747  0.252027  1
  Rh  Rh23  1  0.440760  0.024239  0.750788  1
  Rh  Rh24  1  0.975761  0.416522  0.750788  1
  Rh  Rh25  1  0.583478  0.559240  0.750788  1
  Rh  Rh26  1  0.666667  0.333333  0.247737  1
  Rh  Rh27  1  0.090275  0.187461  0.250184  1
  Rh  Rh28  1  0.812539  0.902814  0.250184  1
  Rh  Rh29  1  0.097186  0.909725  0.250184  1
  Rh  Rh30  1  0.024239  0.583478  0.249212  1
  Rh  Rh31  1  0.416522  0.440760  0.249212  1
  Rh  Rh32  1  0.559240  0.975761  0.249212  1
  Rh  Rh33  1  0.672078  0.923253  0.747973  1
  Rh  Rh34  1  0.076747  0.748826  0.747973  1
  Rh  Rh35  1  0.251174  0.327922  0.747973  1
  Rh  Rh36  1  0.909725  0.812539  0.749816  1
  Rh  Rh37  1  0.187461  0.097186  0.749816  1
  Rh  Rh38  1  0.902814  0.090275  0.749816  1
