# generated using pymatgen
data_YHo2Sc2(GaO4)3
_symmetry_space_group_name_H-M   'P 1'
_cell_length_a   10.89284513
_cell_length_b   10.89213349
_cell_length_c   10.89251404
_cell_angle_alpha   109.47484108
_cell_angle_beta   109.47751445
_cell_angle_gamma   109.46122596
_symmetry_Int_Tables_number   1
_chemical_formula_structural   YHo2Sc2(GaO4)3
_chemical_formula_sum   'Y4 Ho8 Sc8 Ga12 O48'
_cell_volume   994.85765403
_cell_formula_units_Z   4
loop_
 _symmetry_equiv_pos_site_id
 _symmetry_equiv_pos_as_xyz
  1  'x, y, z'
loop_
 _atom_site_type_symbol
 _atom_site_label
 _atom_site_symmetry_multiplicity
 _atom_site_fract_x
 _atom_site_fract_y
 _atom_site_fract_z
 _atom_site_occupancy
  Y  Y0  1  0.124976  0.374968  0.749959  1
  Y  Y1  1  0.624946  0.874953  0.749896  1
  Y  Y2  1  0.624947  0.249994  0.875073  1
  Y  Y3  1  0.750124  0.625090  0.875068  1
  Ho  Ho4  1  0.250067  0.375006  0.125145  1
  Ho  Ho5  1  0.375075  0.750137  0.125143  1
  Ho  Ho6  1  0.875155  0.625157  0.250316  1
  Ho  Ho7  1  0.374989  0.124988  0.249975  1
  Ho  Ho8  1  0.124990  0.249958  0.374887  1
  Ho  Ho9  1  0.749897  0.124929  0.374885  1
  Ho  Ho10  1  0.875128  0.749988  0.624831  1
  Ho  Ho11  1  0.249702  0.874842  0.624827  1
  Sc  Sc12  1  0.000342  0.000250  0.000157  1
  Sc  Sc13  1  0.499815  0.999906  0.000157  1
  Sc  Sc14  1  0.000306  0.500186  0.000386  1
  Sc  Sc15  1  0.500080  0.500201  0.000385  1
  Sc  Sc16  1  0.999895  0.999745  0.499803  1
  Sc  Sc17  1  0.499847  0.499755  0.499653  1
  Sc  Sc18  1  0.499806  0.999900  0.499652  1
  Sc  Sc19  1  0.999909  0.500058  0.499804  1
  Ga  Ga20  1  0.750013  0.875147  0.125356  1
  Ga  Ga21  1  0.875340  0.250208  0.125354  1
  Ga  Ga22  1  0.625049  0.375079  0.250213  1
  Ga  Ga23  1  0.125163  0.875132  0.250212  1
  Ga  Ga24  1  0.625053  0.749978  0.374841  1
  Ga  Ga25  1  0.249785  0.624861  0.374840  1
  Ga  Ga26  1  0.749804  0.374846  0.624605  1
  Ga  Ga27  1  0.374803  0.249758  0.624602  1
  Ga  Ga28  1  0.875133  0.124929  0.749967  1
  Ga  Ga29  1  0.374833  0.625035  0.749967  1
  Ga  Ga30  1  0.125206  0.750240  0.875016  1
  Ga  Ga31  1  0.249811  0.124776  0.875018  1
  O  O32  1  0.317839  0.904773  0.032123  1
  O  O33  1  0.214285  0.127351  0.032123  1
  O  O34  1  0.714199  0.682618  0.088019  1
  O  O35  1  0.873821  0.405402  0.088022  1
  O  O36  1  0.968701  0.682307  0.096112  1
  O  O37  1  0.627412  0.413806  0.096113  1
  O  O38  1  0.595278  0.913124  0.127368  1
  O  O39  1  0.032090  0.214243  0.127368  1
  O  O40  1  0.214341  0.586916  0.182235  1
  O  O41  1  0.467894  0.595318  0.182235  1
  O  O42  1  0.586911  0.182298  0.214265  1
  O  O43  1  0.127352  0.031968  0.214265  1
  O  O44  1  0.317769  0.913101  0.285684  1
  O  O45  1  0.467916  0.372583  0.285684  1
  O  O46  1  0.904767  0.032120  0.317905  1
  O  O47  1  0.913140  0.285785  0.317905  1
  O  O48  1  0.586852  0.904592  0.372610  1
  O  O49  1  0.285759  0.468017  0.372612  1
  O  O50  1  0.817806  0.532002  0.404659  1
  O  O51  1  0.086853  0.872656  0.404659  1
  O  O52  1  0.095293  0.627313  0.413100  1
  O  O53  1  0.817811  0.785789  0.413104  1
  O  O54  1  0.595151  0.182119  0.467883  1
  O  O55  1  0.372732  0.285761  0.467883  1
  O  O56  1  0.627356  0.713557  0.531267  1
  O  O57  1  0.403911  0.817710  0.531266  1
  O  O58  1  0.182090  0.213512  0.586138  1
  O  O59  1  0.904052  0.372628  0.586141  1
  O  O60  1  0.912119  0.126240  0.594587  1
  O  O61  1  0.182469  0.468344  0.594592  1
  O  O62  1  0.412062  0.094582  0.626171  1
  O  O63  1  0.714111  0.531590  0.626171  1
  O  O64  1  0.086875  0.714136  0.682180  1
  O  O65  1  0.095305  0.968046  0.682180  1
  O  O66  1  0.682530  0.087141  0.713418  1
  O  O67  1  0.530893  0.626280  0.713421  1
  O  O68  1  0.412047  0.817504  0.785879  1
  O  O69  1  0.873830  0.968375  0.785876  1
  O  O70  1  0.530778  0.404541  0.817359  1
  O  O71  1  0.786580  0.412820  0.817362  1
  O  O72  1  0.968680  0.786470  0.872634  1
  O  O73  1  0.403956  0.086167  0.872633  1
  O  O74  1  0.031630  0.317425  0.905400  1
  O  O75  1  0.373766  0.587970  0.905397  1
  O  O76  1  0.286410  0.317701  0.913788  1
  O  O77  1  0.127379  0.596088  0.913791  1
  O  O78  1  0.682635  0.095470  0.969203  1
  O  O79  1  0.786567  0.873732  0.969199  1
