# generated using pymatgen
data_La3Pr(B2Rh5)2
_symmetry_space_group_name_H-M   'P 1'
_cell_length_a   5.56109050
_cell_length_b   5.55951836
_cell_length_c   21.28313632
_cell_angle_alpha   89.99452037
_cell_angle_beta   90.01820157
_cell_angle_gamma   119.96906978
_symmetry_Int_Tables_number   1
_chemical_formula_structural   La3Pr(B2Rh5)2
_chemical_formula_sum   'La6 Pr2 B8 Rh20'
_cell_volume   570.03121760
_cell_formula_units_Z   2
loop_
 _symmetry_equiv_pos_site_id
 _symmetry_equiv_pos_as_xyz
  1  'x, y, z'
loop_
 _atom_site_type_symbol
 _atom_site_label
 _atom_site_symmetry_multiplicity
 _atom_site_fract_x
 _atom_site_fract_y
 _atom_site_fract_z
 _atom_site_occupancy
  La  La0  1  0.666251  0.333867  0.521308  1
  La  La1  1  0.333749  0.666133  0.478692  1
  La  La2  1  0.333425  0.666643  0.020498  1
  La  La3  1  0.666575  0.333357  0.979502  1
  La  La4  1  0.666893  0.333050  0.674105  1
  La  La5  1  0.333107  0.666950  0.325895  1
  Pr  Pr6  1  0.333053  0.666587  0.173646  1
  Pr  Pr7  1  0.666947  0.333413  0.826354  1
  B  B8  1  0.999870  0.999952  0.678372  1
  B  B9  1  0.000130  0.000048  0.321628  1
  B  B10  1  0.999909  0.999988  0.177595  1
  B  B11  1  0.000091  0.000012  0.822405  1
  B  B12  1  0.666759  0.333306  0.324962  1
  B  B13  1  0.333241  0.666694  0.675038  1
  B  B14  1  0.333647  0.666601  0.825785  1
  B  B15  1  0.666353  0.333399  0.174215  1
  Rh  Rh16  1  0.000000  0.000000  0.500000  1
  Rh  Rh17  1  0.000000  0.000000  0.000000  1
  Rh  Rh18  1  0.167890  0.334787  0.750486  1
  Rh  Rh19  1  0.167073  0.832064  0.750481  1
  Rh  Rh20  1  0.665225  0.833028  0.750484  1
  Rh  Rh21  1  0.832110  0.665213  0.249514  1
  Rh  Rh22  1  0.832927  0.167936  0.249519  1
  Rh  Rh23  1  0.334775  0.166972  0.249516  1
  Rh  Rh24  1  0.163579  0.326696  0.610223  1
  Rh  Rh25  1  0.162499  0.836063  0.610209  1
  Rh  Rh26  1  0.673145  0.837338  0.610218  1
  Rh  Rh27  1  0.836421  0.673304  0.389777  1
  Rh  Rh28  1  0.837501  0.163937  0.389791  1
  Rh  Rh29  1  0.326855  0.162662  0.389782  1
  Rh  Rh30  1  0.836260  0.673740  0.109828  1
  Rh  Rh31  1  0.836890  0.163551  0.109830  1
  Rh  Rh32  1  0.326026  0.162861  0.109833  1
  Rh  Rh33  1  0.163740  0.326260  0.890172  1
  Rh  Rh34  1  0.163110  0.836449  0.890170  1
  Rh  Rh35  1  0.673974  0.837139  0.890167  1
