# generated using pymatgen
data_Ce3Th(TcB2)6
_symmetry_space_group_name_H-M   'P 1'
_cell_length_a   6.29499752
_cell_length_b   6.27383133
_cell_length_c   7.56141470
_cell_angle_alpha   90.66412927
_cell_angle_beta   90.66326251
_cell_angle_gamma   114.62290848
_symmetry_Int_Tables_number   1
_chemical_formula_structural   Ce3Th(TcB2)6
_chemical_formula_sum   'Ce3 Th1 Tc6 B12'
_cell_volume   271.41177053
_cell_formula_units_Z   1
loop_
 _symmetry_equiv_pos_site_id
 _symmetry_equiv_pos_as_xyz
  1  'x, y, z'
loop_
 _atom_site_type_symbol
 _atom_site_label
 _atom_site_symmetry_multiplicity
 _atom_site_fract_x
 _atom_site_fract_y
 _atom_site_fract_z
 _atom_site_occupancy
  Ce  Ce0  1  0.555768  0.903081  0.168416  1
  Ce  Ce1  1  0.899477  0.557420  0.673302  1
  Ce  Ce2  1  0.445679  0.096928  0.830879  1
  Th  Th3  1  0.094232  0.442258  0.329862  1
  Tc  Tc4  1  0.588767  0.410385  0.249574  1
  Tc  Tc5  1  0.410089  0.589492  0.749866  1
  Tc  Tc6  1  0.988473  0.805605  0.087767  1
  Tc  Tc7  1  0.196337  0.009260  0.412007  1
  Tc  Tc8  1  0.011024  0.195650  0.911847  1
  Tc  Tc9  1  0.805299  0.989404  0.588215  1
  B  B10  1  0.246284  0.153421  0.132794  1
  B  B11  1  0.845157  0.755374  0.366794  1
  B  B12  1  0.754378  0.845631  0.866021  1
  B  B13  1  0.155664  0.243377  0.636166  1
  B  B14  1  0.582140  0.158378  0.483877  1
  B  B15  1  0.840623  0.417971  0.015056  1
  B  B16  1  0.419993  0.842189  0.516472  1
  B  B17  1  0.158677  0.583554  0.981366  1
  B  B18  1  0.445055  0.349288  0.535798  1
  B  B19  1  0.649622  0.555913  0.965179  1
  B  B20  1  0.556872  0.650581  0.465333  1
  B  B21  1  0.350388  0.444841  0.033410  1
