# generated using pymatgen
data_TbPrV2F14
_symmetry_space_group_name_H-M   'P 1'
_cell_length_a   5.60700395
_cell_length_b   9.02440304
_cell_length_c   12.02846660
_cell_angle_alpha   63.07384712
_cell_angle_beta   89.93978235
_cell_angle_gamma   89.94778943
_symmetry_Int_Tables_number   1
_chemical_formula_structural   TbPrV2F14
_chemical_formula_sum   'Tb2 Pr2 V4 F28'
_cell_volume   542.65643507
_cell_formula_units_Z   2
loop_
 _symmetry_equiv_pos_site_id
 _symmetry_equiv_pos_as_xyz
  1  'x, y, z'
loop_
 _atom_site_type_symbol
 _atom_site_label
 _atom_site_symmetry_multiplicity
 _atom_site_fract_x
 _atom_site_fract_y
 _atom_site_fract_z
 _atom_site_occupancy
  Tb  Tb0  1  0.759182  0.197373  0.229050  1
  Tb  Tb1  1  0.240818  0.802627  0.770950  1
  Pr  Pr2  1  0.257890  0.809269  0.269344  1
  Pr  Pr3  1  0.742110  0.190731  0.730656  1
  V  V4  1  0.753510  0.722850  0.042415  1
  V  V5  1  0.246490  0.277150  0.957585  1
  V  V6  1  0.254273  0.270831  0.452607  1
  V  V7  1  0.745727  0.729169  0.547393  1
  F  F8  1  0.945614  0.707217  0.428502  1
  F  F9  1  0.054386  0.292783  0.571498  1
  F  F10  1  0.449289  0.294289  0.077198  1
  F  F11  1  0.550711  0.705711  0.922802  1
  F  F12  1  0.483521  0.730244  0.134485  1
  F  F13  1  0.516479  0.269756  0.865515  1
  F  F14  1  0.981720  0.267111  0.358936  1
  F  F15  1  0.018280  0.732889  0.641064  1
  F  F16  1  0.950291  0.742521  0.164570  1
  F  F17  1  0.049709  0.257479  0.835430  1
  F  F18  1  0.457921  0.250805  0.331441  1
  F  F19  1  0.542079  0.749195  0.668559  1
  F  F20  1  0.764742  0.494263  0.134680  1
  F  F21  1  0.235258  0.505737  0.865320  1
  F  F22  1  0.264569  0.499487  0.360931  1
  F  F23  1  0.735431  0.500513  0.639069  1
  F  F24  1  0.966893  0.286882  0.046416  1
  F  F25  1  0.033107  0.713118  0.953584  1
  F  F26  1  0.469662  0.713746  0.460057  1
  F  F27  1  0.530338  0.286254  0.539943  1
  F  F28  1  0.741889  0.954350  0.456201  1
  F  F29  1  0.258111  0.045650  0.543799  1
  F  F30  1  0.241994  0.049943  0.046040  1
  F  F31  1  0.758006  0.950057  0.953960  1
  F  F32  1  0.590491  0.979504  0.230208  1
  F  F33  1  0.409509  0.020496  0.769792  1
  F  F34  1  0.074929  0.035692  0.269578  1
  F  F35  1  0.925071  0.964308  0.730422  1
