# generated using pymatgen
data_Dy7Ho(SiI6)2
_symmetry_space_group_name_H-M   'P 1'
_cell_length_a   4.20633000
_cell_length_b   14.00726804
_cell_length_c   14.77759904
_cell_angle_alpha   90.00871429
_cell_angle_beta   90.00000000
_cell_angle_gamma   90.00000000
_symmetry_Int_Tables_number   1
_chemical_formula_structural   Dy7Ho(SiI6)2
_chemical_formula_sum   'Dy7 Ho1 Si2 I12'
_cell_volume   870.68418193
_cell_formula_units_Z   1
loop_
 _symmetry_equiv_pos_site_id
 _symmetry_equiv_pos_as_xyz
  1  'x, y, z'
loop_
 _atom_site_type_symbol
 _atom_site_label
 _atom_site_symmetry_multiplicity
 _atom_site_fract_x
 _atom_site_fract_y
 _atom_site_fract_z
 _atom_site_occupancy
  Dy  Dy0  1  0.500000  0.114073  0.347685  1
  Dy  Dy1  1  0.500000  0.885927  0.652313  1
  Dy  Dy2  1  0.500000  0.613999  0.152213  1
  Dy  Dy3  1  0.000000  0.111217  0.574426  1
  Dy  Dy4  1  0.000000  0.888790  0.425575  1
  Dy  Dy5  1  0.000000  0.611186  0.925620  1
  Dy  Dy6  1  0.000000  0.388830  0.074398  1
  Ho  Ho7  1  0.500000  0.386082  0.847936  1
  Si  Si8  1  0.500000  0.000001  0.500004  1
  Si  Si9  1  0.500000  0.499795  0.999713  1
  I  I10  1  0.500000  0.245315  0.161525  1
  I  I11  1  0.500000  0.754672  0.838444  1
  I  I12  1  0.500000  0.745294  0.338435  1
  I  I13  1  0.500000  0.254854  0.661770  1
  I  I14  1  0.000000  0.258598  0.413978  1
  I  I15  1  0.000000  0.741401  0.586025  1
  I  I16  1  0.000000  0.758566  0.086023  1
  I  I17  1  0.000000  0.241873  0.913643  1
  I  I18  1  0.000000  0.999332  0.240512  1
  I  I19  1  0.000000  0.000669  0.759486  1
  I  I20  1  0.000000  0.499339  0.259458  1
  I  I21  1  0.000000  0.500186  0.740818  1
