# generated using pymatgen
data_NbNi4Au
_symmetry_space_group_name_H-M   'P 1'
_cell_length_a   4.77216068
_cell_length_b   4.77216107
_cell_length_c   4.77216100
_cell_angle_alpha   59.99999357
_cell_angle_beta   59.99999086
_cell_angle_gamma   59.99999662
_symmetry_Int_Tables_number   1
_chemical_formula_structural   NbNi4Au
_chemical_formula_sum   'Nb1 Ni4 Au1'
_cell_volume   76.84757705
_cell_formula_units_Z   1
loop_
 _symmetry_equiv_pos_site_id
 _symmetry_equiv_pos_as_xyz
  1  'x, y, z'
loop_
 _atom_site_type_symbol
 _atom_site_label
 _atom_site_symmetry_multiplicity
 _atom_site_fract_x
 _atom_site_fract_y
 _atom_site_fract_z
 _atom_site_occupancy
  Nb  Nb0  1  0.000000  0.000000  0.000000  1
  Ni  Ni1  1  0.625083  0.625083  0.124750  1
  Ni  Ni2  1  0.625083  0.124750  0.625083  1
  Ni  Ni3  1  0.124750  0.625083  0.625083  1
  Ni  Ni4  1  0.625083  0.625083  0.625083  1
  Au  Au5  1  0.250000  0.250000  0.250000  1
