# generated using pymatgen
data_Tb8Sc2(IrRh)3
_symmetry_space_group_name_H-M   'P 1'
_cell_length_a   10.80416703
_cell_length_b   10.80454700
_cell_length_c   6.29740202
_cell_angle_alpha   89.99943159
_cell_angle_beta   90.00799802
_cell_angle_gamma   89.99996820
_symmetry_Int_Tables_number   1
_chemical_formula_structural   Tb8Sc2(IrRh)3
_chemical_formula_sum   'Tb16 Sc4 Ir6 Rh6'
_cell_volume   735.12174106
_cell_formula_units_Z   2
loop_
 _symmetry_equiv_pos_site_id
 _symmetry_equiv_pos_as_xyz
  1  'x, y, z'
loop_
 _atom_site_type_symbol
 _atom_site_label
 _atom_site_symmetry_multiplicity
 _atom_site_fract_x
 _atom_site_fract_y
 _atom_site_fract_z
 _atom_site_occupancy
  Tb  Tb0  1  0.286455  0.086632  0.378791  1
  Tb  Tb1  1  0.286456  0.913368  0.878794  1
  Tb  Tb2  1  0.712494  0.087357  0.878766  1
  Tb  Tb3  1  0.712495  0.912639  0.378777  1
  Tb  Tb4  1  0.585542  0.786353  0.879263  1
  Tb  Tb5  1  0.585539  0.213646  0.379269  1
  Tb  Tb6  1  0.413331  0.786487  0.379028  1
  Tb  Tb7  1  0.413333  0.213511  0.879031  1
  Tb  Tb8  1  0.213449  0.413318  0.620953  1
  Tb  Tb9  1  0.213449  0.586681  0.120954  1
  Tb  Tb10  1  0.786289  0.414461  0.120800  1
  Tb  Tb11  1  0.786290  0.585542  0.620804  1
  Tb  Tb12  1  0.913624  0.713037  0.121390  1
  Tb  Tb13  1  0.913624  0.286965  0.621401  1
  Tb  Tb14  1  0.087663  0.712991  0.621055  1
  Tb  Tb15  1  0.087665  0.287011  0.121054  1
  Sc  Sc16  1  0.000950  0.999966  0.500035  1
  Sc  Sc17  1  0.000950  0.000028  0.000026  1
  Sc  Sc18  1  0.500016  0.499950  0.999992  1
  Sc  Sc19  1  0.500016  0.500052  0.499993  1
  Ir  Ir20  1  0.146352  0.146980  0.749997  1
  Ir  Ir21  1  0.146350  0.853019  0.250000  1
  Ir  Ir22  1  0.647729  0.352384  0.749960  1
  Ir  Ir23  1  0.647727  0.647615  0.249964  1
  Ir  Ir24  1  0.352815  0.352722  0.250041  1
  Ir  Ir25  1  0.352816  0.647277  0.750041  1
  Rh  Rh26  1  0.852808  0.146649  0.249932  1
  Rh  Rh27  1  0.852814  0.853359  0.749933  1
  Rh  Rh28  1  0.500778  0.000054  0.122332  1
  Rh  Rh29  1  0.500780  0.999946  0.622336  1
  Rh  Rh30  1  0.999699  0.500132  0.877644  1
  Rh  Rh31  1  0.999702  0.499868  0.377644  1
