# generated using pymatgen
data_Nd12BeGe11Pd12
_symmetry_space_group_name_H-M   'P 1'
_cell_length_a   4.49022900
_cell_length_b   7.68678979
_cell_length_c   21.95571283
_cell_angle_alpha   89.92292684
_cell_angle_beta   90.00000000
_cell_angle_gamma   90.00000000
_symmetry_Int_Tables_number   1
_chemical_formula_structural   Nd12BeGe11Pd12
_chemical_formula_sum   'Nd12 Be1 Ge11 Pd12'
_cell_volume   757.81054413
_cell_formula_units_Z   1
loop_
 _symmetry_equiv_pos_site_id
 _symmetry_equiv_pos_as_xyz
  1  'x, y, z'
loop_
 _atom_site_type_symbol
 _atom_site_label
 _atom_site_symmetry_multiplicity
 _atom_site_fract_x
 _atom_site_fract_y
 _atom_site_fract_z
 _atom_site_occupancy
  Nd  Nd0  1  0.250000  0.708778  0.332868  1
  Nd  Nd1  1  0.750000  0.295177  0.667874  1
  Nd  Nd2  1  0.750000  0.209449  0.166049  1
  Nd  Nd3  1  0.250000  0.789078  0.834543  1
  Nd  Nd4  1  0.250000  0.793649  0.165928  1
  Nd  Nd5  1  0.750000  0.211719  0.835746  1
  Nd  Nd6  1  0.750000  0.293503  0.333279  1
  Nd  Nd7  1  0.250000  0.702365  0.667459  1
  Nd  Nd8  1  0.250000  0.706609  0.000166  1
  Nd  Nd9  1  0.750000  0.288309  0.996732  1
  Nd  Nd10  1  0.750000  0.213642  0.498719  1
  Nd  Nd11  1  0.250000  0.786100  0.501875  1
  Be  Be12  1  0.250000  0.411879  0.893232  1
  Ge  Ge13  1  0.250000  0.089999  0.071326  1
  Ge  Ge14  1  0.750000  0.912276  0.931346  1
  Ge  Ge15  1  0.750000  0.590431  0.428802  1
  Ge  Ge16  1  0.250000  0.409454  0.569273  1
  Ge  Ge17  1  0.250000  0.084725  0.269325  1
  Ge  Ge18  1  0.750000  0.916341  0.730238  1
  Ge  Ge19  1  0.750000  0.585429  0.230261  1
  Ge  Ge20  1  0.250000  0.412026  0.773118  1
  Ge  Ge21  1  0.250000  0.087825  0.396615  1
  Ge  Ge22  1  0.750000  0.912447  0.603643  1
  Ge  Ge23  1  0.750000  0.588254  0.103313  1
  Pd  Pd24  1  0.250000  0.417882  0.236612  1
  Pd  Pd25  1  0.750000  0.585373  0.764230  1
  Pd  Pd26  1  0.750000  0.917731  0.263462  1
  Pd  Pd27  1  0.250000  0.080699  0.736349  1
  Pd  Pd28  1  0.250000  0.416178  0.436411  1
  Pd  Pd29  1  0.750000  0.583256  0.564513  1
  Pd  Pd30  1  0.750000  0.914411  0.062319  1
  Pd  Pd31  1  0.250000  0.091371  0.933244  1
  Pd  Pd32  1  0.250000  0.420703  0.094364  1
  Pd  Pd33  1  0.750000  0.573474  0.905695  1
  Pd  Pd34  1  0.750000  0.920622  0.405570  1
  Pd  Pd35  1  0.250000  0.078835  0.595498  1
