# generated using pymatgen
data_HoTa2B2Ru5
_symmetry_space_group_name_H-M   'P 1'
_cell_length_a   9.53867081
_cell_length_b   9.53867081
_cell_length_c   3.08818700
_cell_angle_alpha   90.00000000
_cell_angle_beta   90.00000000
_cell_angle_gamma   90.56953208
_symmetry_Int_Tables_number   1
_chemical_formula_structural   HoTa2B2Ru5
_chemical_formula_sum   'Ho2 Ta4 B4 Ru10'
_cell_volume   280.96864466
_cell_formula_units_Z   2
loop_
 _symmetry_equiv_pos_site_id
 _symmetry_equiv_pos_as_xyz
  1  'x, y, z'
loop_
 _atom_site_type_symbol
 _atom_site_label
 _atom_site_symmetry_multiplicity
 _atom_site_fract_x
 _atom_site_fract_y
 _atom_site_fract_z
 _atom_site_occupancy
  Ho  Ho0  1  0.823989  0.676011  0.000000  1
  Ho  Ho1  1  0.176011  0.323989  0.000000  1
  Ta  Ta2  1  0.323800  0.823800  0.000000  1
  Ta  Ta3  1  0.676200  0.176200  0.000000  1
  Ta  Ta4  1  0.500000  0.500000  0.000000  1
  Ta  Ta5  1  0.000000  0.000000  0.000000  1
  B  B6  1  0.620502  0.879498  0.000000  1
  B  B7  1  0.379498  0.120502  0.000000  1
  B  B8  1  0.121079  0.621079  0.000000  1
  B  B9  1  0.878921  0.378921  0.000000  1
  Ru  Ru10  1  0.559166  0.723090  0.500000  1
  Ru  Ru11  1  0.440834  0.276910  0.500000  1
  Ru  Ru12  1  0.081930  0.785594  0.500000  1
  Ru  Ru13  1  0.918070  0.214406  0.500000  1
  Ru  Ru14  1  0.285594  0.581930  0.500000  1
  Ru  Ru15  1  0.714406  0.418070  0.500000  1
  Ru  Ru16  1  0.223090  0.059166  0.500000  1
  Ru  Ru17  1  0.776910  0.940834  0.500000  1
  Ru  Ru18  1  0.500000  0.000000  0.500000  1
  Ru  Ru19  1  0.000000  0.500000  0.500000  1
