# generated using pymatgen
data_Ce4Pr15YRh16
_symmetry_space_group_name_H-M   'P 1'
_cell_length_a   7.62353460
_cell_length_b   7.67852003
_cell_length_c   14.96899524
_cell_angle_alpha   90.31957274
_cell_angle_beta   90.23176093
_cell_angle_gamma   89.59022188
_symmetry_Int_Tables_number   1
_chemical_formula_structural   Ce4Pr15YRh16
_chemical_formula_sum   'Ce4 Pr15 Y1 Rh16'
_cell_volume   876.20393900
_cell_formula_units_Z   1
loop_
 _symmetry_equiv_pos_site_id
 _symmetry_equiv_pos_as_xyz
  1  'x, y, z'
loop_
 _atom_site_type_symbol
 _atom_site_label
 _atom_site_symmetry_multiplicity
 _atom_site_fract_x
 _atom_site_fract_y
 _atom_site_fract_z
 _atom_site_occupancy
  Ce  Ce0  1  0.663212  0.339142  0.120930  1
  Ce  Ce1  1  0.164222  0.162384  0.120077  1
  Ce  Ce2  1  0.663366  0.339159  0.377445  1
  Ce  Ce3  1  0.315363  0.514360  0.248601  1
  Pr  Pr4  1  0.011445  0.680749  0.091838  1
  Pr  Pr5  1  0.836630  0.832740  0.621830  1
  Pr  Pr6  1  0.985100  0.316025  0.593446  1
  Pr  Pr7  1  0.173880  0.010310  0.751433  1
  Pr  Pr8  1  0.512102  0.816605  0.406565  1
  Pr  Pr9  1  0.484722  0.179253  0.593375  1
  Pr  Pr10  1  0.164665  0.164789  0.376101  1
  Pr  Pr11  1  0.336312  0.665107  0.880996  1
  Pr  Pr12  1  0.675585  0.489747  0.751364  1
  Pr  Pr13  1  0.335351  0.664130  0.621452  1
  Pr  Pr14  1  0.014236  0.682280  0.407427  1
  Pr  Pr15  1  0.491760  0.177336  0.905984  1
  Pr  Pr16  1  0.823043  0.984746  0.249929  1
  Pr  Pr17  1  0.511135  0.818055  0.092424  1
  Pr  Pr18  1  0.986132  0.319185  0.907047  1
  Y  Y19  1  0.837538  0.834789  0.879995  1
  Rh  Rh20  1  0.038673  0.607464  0.753435  1
  Rh  Rh21  1  0.808359  0.053037  0.454936  1
  Rh  Rh22  1  0.461521  0.133253  0.242948  1
  Rh  Rh23  1  0.174349  0.977174  0.969112  1
  Rh  Rh24  1  0.679486  0.620169  0.249507  1
  Rh  Rh25  1  0.302454  0.358568  0.750676  1
  Rh  Rh26  1  0.966369  0.386306  0.242455  1
  Rh  Rh27  1  0.683827  0.525102  0.529944  1
  Rh  Rh28  1  0.325722  0.452429  0.049004  1
  Rh  Rh29  1  0.333393  0.468802  0.449784  1
  Rh  Rh30  1  0.544025  0.891176  0.753840  1
  Rh  Rh31  1  0.682134  0.530096  0.968557  1
  Rh  Rh32  1  0.823476  0.048105  0.046797  1
  Rh  Rh33  1  0.800830  0.138936  0.753204  1
  Rh  Rh34  1  0.169339  0.967951  0.540973  1
  Rh  Rh35  1  0.220243  0.850535  0.246570  1
