# generated using pymatgen
data_Sr2CaEr(Al3Pd)6
_symmetry_space_group_name_H-M   'P 1'
_cell_length_a   7.70706737
_cell_length_b   7.70496200
_cell_length_c   9.61779500
_cell_angle_alpha   90.00000000
_cell_angle_beta   90.00000000
_cell_angle_gamma   119.45658603
_symmetry_Int_Tables_number   1
_chemical_formula_structural   Sr2CaEr(Al3Pd)6
_chemical_formula_sum   'Sr2 Ca1 Er1 Al18 Pd6'
_cell_volume   497.29943282
_cell_formula_units_Z   1
loop_
 _symmetry_equiv_pos_site_id
 _symmetry_equiv_pos_as_xyz
  1  'x, y, z'
loop_
 _atom_site_type_symbol
 _atom_site_label
 _atom_site_symmetry_multiplicity
 _atom_site_fract_x
 _atom_site_fract_y
 _atom_site_fract_z
 _atom_site_occupancy
  Sr  Sr0  1  0.993300  0.669578  0.250000  1
  Sr  Sr1  1  0.671664  0.995201  0.250000  1
  Ca  Ca2  1  0.003342  0.329450  0.750000  1
  Er  Er3  1  0.329723  0.002115  0.750000  1
  Al  Al4  1  0.137838  0.137816  0.250000  1
  Al  Al5  1  0.873253  0.870920  0.750000  1
  Al  Al6  1  0.006429  0.335288  0.066543  1
  Al  Al7  1  0.000663  0.664951  0.915752  1
  Al  Al8  1  0.000663  0.664951  0.584248  1
  Al  Al9  1  0.334868  0.004873  0.433644  1
  Al  Al10  1  0.006429  0.335288  0.433457  1
  Al  Al11  1  0.664385  0.000901  0.584275  1
  Al  Al12  1  0.664385  0.000901  0.915725  1
  Al  Al13  1  0.334868  0.004873  0.066356  1
  Al  Al14  1  0.331497  0.330064  0.566206  1
  Al  Al15  1  0.662840  0.663038  0.461576  1
  Al  Al16  1  0.662840  0.663038  0.038424  1
  Al  Al17  1  0.331497  0.330064  0.933794  1
  Al  Al18  1  0.340009  0.542560  0.250000  1
  Al  Al19  1  0.654482  0.449774  0.750000  1
  Al  Al20  1  0.540442  0.339975  0.250000  1
  Al  Al21  1  0.453487  0.663792  0.750000  1
  Pd  Pd22  1  0.670641  0.327954  0.996705  1
  Pd  Pd23  1  0.328357  0.671472  0.996208  1
  Pd  Pd24  1  0.328357  0.671472  0.503792  1
  Pd  Pd25  1  0.670641  0.327954  0.503295  1
  Pd  Pd26  1  0.001547  0.000869  0.995917  1
  Pd  Pd27  1  0.001547  0.000869  0.504083  1
