# generated using pymatgen
data_HN7
_symmetry_space_group_name_H-M   'P 1'
_cell_length_a   3.71207629
_cell_length_b   6.24159481
_cell_length_c   9.26840935
_cell_angle_alpha   90.40853783
_cell_angle_beta   94.78176605
_cell_angle_gamma   127.10004962
_symmetry_Int_Tables_number   1
_chemical_formula_structural   HN7
_chemical_formula_sum   'H1 N7'
_cell_volume   170.23289615
_cell_formula_units_Z   1
loop_
 _symmetry_equiv_pos_site_id
 _symmetry_equiv_pos_as_xyz
  1  'x, y, z'
loop_
 _atom_site_type_symbol
 _atom_site_label
 _atom_site_symmetry_multiplicity
 _atom_site_fract_x
 _atom_site_fract_y
 _atom_site_fract_z
 _atom_site_occupancy
  H  H0  1  0.848423  0.780339  0.581507  1
  N  N1  1  0.470096  0.402448  0.591050  1
  N  N2  1  0.845192  0.613751  0.578796  1
  N  N3  1  0.144308  0.189890  0.602172  1
  N  N4  1  0.297692  0.443688  0.981504  1
  N  N5  1  0.497917  0.100947  0.247143  1
  N  N6  1  0.432775  0.905762  0.268794  1
  N  N7  1  0.554599  0.643869  0.941068  1
