# generated using pymatgen
data_Tb3AlPt3Pb2
_symmetry_space_group_name_H-M   'P 1'
_cell_length_a   7.77271284
_cell_length_b   7.77271203
_cell_length_c   3.88694500
_cell_angle_alpha   90.00000000
_cell_angle_beta   90.00000000
_cell_angle_gamma   121.20720727
_symmetry_Int_Tables_number   1
_chemical_formula_structural   Tb3AlPt3Pb2
_chemical_formula_sum   'Tb3 Al1 Pt3 Pb2'
_cell_volume   200.84989402
_cell_formula_units_Z   1
loop_
 _symmetry_equiv_pos_site_id
 _symmetry_equiv_pos_as_xyz
  1  'x, y, z'
loop_
 _atom_site_type_symbol
 _atom_site_label
 _atom_site_symmetry_multiplicity
 _atom_site_fract_x
 _atom_site_fract_y
 _atom_site_fract_z
 _atom_site_occupancy
  Tb  Tb0  1  0.416886  0.416886  0.500000  1
  Tb  Tb1  1  0.594609  0.988060  0.500000  1
  Tb  Tb2  1  0.988060  0.594609  0.500000  1
  Al  Al3  1  0.742473  0.742473  0.000000  1
  Pt  Pt4  1  0.674219  0.364510  0.000000  1
  Pt  Pt5  1  0.364510  0.674219  0.000000  1
  Pt  Pt6  1  0.961715  0.961715  0.500000  1
  Pb  Pb7  1  0.259554  0.997975  0.000000  1
  Pb  Pb8  1  0.997975  0.259554  0.000000  1
