# generated using pymatgen
data_Be(InTe2)2
_symmetry_space_group_name_H-M   'P 1'
_cell_length_a   7.55455463
_cell_length_b   7.55455470
_cell_length_c   7.55455559
_cell_angle_alpha   132.33010217
_cell_angle_beta   132.33010456
_cell_angle_gamma   69.70815951
_symmetry_Int_Tables_number   1
_chemical_formula_structural   Be(InTe2)2
_chemical_formula_sum   'Be1 In2 Te4'
_cell_volume   231.10447902
_cell_formula_units_Z   1
loop_
 _symmetry_equiv_pos_site_id
 _symmetry_equiv_pos_as_xyz
  1  'x, y, z'
loop_
 _atom_site_type_symbol
 _atom_site_label
 _atom_site_symmetry_multiplicity
 _atom_site_fract_x
 _atom_site_fract_y
 _atom_site_fract_z
 _atom_site_occupancy
  Be  Be0  1  0.000000  0.000000  0.000000  1
  In  In1  1  0.500000  0.500000  0.000000  1
  In  In2  1  0.250000  0.750000  0.500000  1
  Te  Te3  1  0.373226  0.927423  0.050682  1
  Te  Te4  1  0.072577  0.123259  0.445803  1
  Te  Te5  1  0.677456  0.626774  0.554197  1
  Te  Te6  1  0.876742  0.322544  0.949319  1
