# generated using pymatgen
data_Nd2NiIr2Rh
_symmetry_space_group_name_H-M   'P 1'
_cell_length_a   5.46855598
_cell_length_b   5.43999322
_cell_length_c   5.28078393
_cell_angle_alpha   58.99755655
_cell_angle_beta   59.05408500
_cell_angle_gamma   60.17262103
_symmetry_Int_Tables_number   1
_chemical_formula_structural   Nd2NiIr2Rh
_chemical_formula_sum   'Nd2 Ni1 Ir2 Rh1'
_cell_volume   109.55843795
_cell_formula_units_Z   1
loop_
 _symmetry_equiv_pos_site_id
 _symmetry_equiv_pos_as_xyz
  1  'x, y, z'
loop_
 _atom_site_type_symbol
 _atom_site_label
 _atom_site_symmetry_multiplicity
 _atom_site_fract_x
 _atom_site_fract_y
 _atom_site_fract_z
 _atom_site_occupancy
  Nd  Nd0  1  0.998106  0.999863  0.002168  1
  Nd  Nd1  1  0.251894  0.250137  0.247832  1
  Ni  Ni2  1  0.625000  0.625000  0.125000  1
  Ir  Ir3  1  0.625000  0.625000  0.625000  1
  Ir  Ir4  1  0.625000  0.125000  0.625000  1
  Rh  Rh5  1  0.125000  0.625000  0.625000  1
