# generated using pymatgen
data_Sm6Cd23P
_symmetry_space_group_name_H-M   'P 1'
_cell_length_a   10.00706431
_cell_length_b   10.00706369
_cell_length_c   10.00706300
_cell_angle_alpha   59.99999897
_cell_angle_beta   60.00000103
_cell_angle_gamma   59.99999672
_symmetry_Int_Tables_number   1
_chemical_formula_structural   Sm6Cd23P
_chemical_formula_sum   'Sm6 Cd23 P1'
_cell_volume   708.60625226
_cell_formula_units_Z   1
loop_
 _symmetry_equiv_pos_site_id
 _symmetry_equiv_pos_as_xyz
  1  'x, y, z'
loop_
 _atom_site_type_symbol
 _atom_site_label
 _atom_site_symmetry_multiplicity
 _atom_site_fract_x
 _atom_site_fract_y
 _atom_site_fract_z
 _atom_site_occupancy
  Sm  Sm0  1  0.800293  0.800293  0.199707  1
  Sm  Sm1  1  0.199707  0.800293  0.199707  1
  Sm  Sm2  1  0.800293  0.199707  0.199707  1
  Sm  Sm3  1  0.199707  0.199707  0.800293  1
  Sm  Sm4  1  0.800293  0.199707  0.800293  1
  Sm  Sm5  1  0.199707  0.800293  0.800293  1
  Cd  Cd6  1  0.834387  0.834387  0.496838  1
  Cd  Cd7  1  0.834387  0.496838  0.834387  1
  Cd  Cd8  1  0.496838  0.834387  0.834387  1
  Cd  Cd9  1  0.834387  0.834387  0.834387  1
  Cd  Cd10  1  0.165613  0.165613  0.503162  1
  Cd  Cd11  1  0.165613  0.503162  0.165613  1
  Cd  Cd12  1  0.503162  0.165613  0.165613  1
  Cd  Cd13  1  0.165613  0.165613  0.165613  1
  Cd  Cd14  1  0.621301  0.621301  0.136098  1
  Cd  Cd15  1  0.621301  0.136098  0.621301  1
  Cd  Cd16  1  0.136098  0.621301  0.621301  1
  Cd  Cd17  1  0.621301  0.621301  0.621301  1
  Cd  Cd18  1  0.378699  0.378699  0.863902  1
  Cd  Cd19  1  0.378699  0.863902  0.378699  1
  Cd  Cd20  1  0.863902  0.378699  0.378699  1
  Cd  Cd21  1  0.378699  0.378699  0.378699  1
  Cd  Cd22  1  0.000000  0.000000  0.500000  1
  Cd  Cd23  1  0.500000  0.000000  0.500000  1
  Cd  Cd24  1  0.000000  0.500000  0.500000  1
  Cd  Cd25  1  0.500000  0.500000  0.000000  1
  Cd  Cd26  1  0.000000  0.500000  0.000000  1
  Cd  Cd27  1  0.500000  0.000000  0.000000  1
  Cd  Cd28  1  0.500000  0.500000  0.500000  1
  P  P29  1  0.000000  0.000000  0.000000  1
