# generated using pymatgen
data_TcOs5RuW
_symmetry_space_group_name_H-M   'P 1'
_cell_length_a   5.54894441
_cell_length_b   5.54894534
_cell_length_c   4.36275900
_cell_angle_alpha   90.00000000
_cell_angle_beta   90.00000000
_cell_angle_gamma   119.99288504
_symmetry_Int_Tables_number   1
_chemical_formula_structural   TcOs5RuW
_chemical_formula_sum   'Tc1 Os5 Ru1 W1'
_cell_volume   116.34395087
_cell_formula_units_Z   1
loop_
 _symmetry_equiv_pos_site_id
 _symmetry_equiv_pos_as_xyz
  1  'x, y, z'
loop_
 _atom_site_type_symbol
 _atom_site_label
 _atom_site_symmetry_multiplicity
 _atom_site_fract_x
 _atom_site_fract_y
 _atom_site_fract_z
 _atom_site_occupancy
  Tc  Tc0  1  0.667742  0.332258  0.250000  1
  Os  Os1  1  0.164181  0.329947  0.250000  1
  Os  Os2  1  0.670053  0.835819  0.250000  1
  Os  Os3  1  0.165470  0.834530  0.250000  1
  Os  Os4  1  0.828907  0.661852  0.750000  1
  Os  Os5  1  0.338148  0.171093  0.750000  1
  Ru  Ru6  1  0.831329  0.168671  0.750000  1
  W  W7  1  0.334169  0.665831  0.750000  1
