# generated using pymatgen
data_Dy5Ge10P2Ir16Rh3
_symmetry_space_group_name_H-M   'P 1'
_cell_length_a   13.10861696
_cell_length_b   13.08695879
_cell_length_c   4.00557100
_cell_angle_alpha   90.00000000
_cell_angle_beta   90.00000000
_cell_angle_gamma   119.94536238
_symmetry_Int_Tables_number   1
_chemical_formula_structural   Dy5Ge10P2Ir16Rh3
_chemical_formula_sum   'Dy5 Ge10 P2 Ir16 Rh3'
_cell_volume   595.42836289
_cell_formula_units_Z   1
loop_
 _symmetry_equiv_pos_site_id
 _symmetry_equiv_pos_as_xyz
  1  'x, y, z'
loop_
 _atom_site_type_symbol
 _atom_site_label
 _atom_site_symmetry_multiplicity
 _atom_site_fract_x
 _atom_site_fract_y
 _atom_site_fract_z
 _atom_site_occupancy
  Dy  Dy0  1  0.333763  0.666620  0.500000  1
  Dy  Dy1  1  0.666237  0.332856  0.500000  1
  Dy  Dy2  1  0.000000  0.815682  0.000000  1
  Dy  Dy3  1  0.184570  0.184152  0.000000  1
  Dy  Dy4  1  0.815430  0.999582  0.000000  1
  Ge  Ge5  1  0.000000  0.635586  0.500000  1
  Ge  Ge6  1  0.364533  0.365042  0.500000  1
  Ge  Ge7  1  0.635467  0.000509  0.500000  1
  Ge  Ge8  1  0.518511  0.683247  0.000000  1
  Ge  Ge9  1  0.317895  0.835203  0.000000  1
  Ge  Ge10  1  0.166547  0.483711  0.000000  1
  Ge  Ge11  1  0.481489  0.164737  0.000000  1
  Ge  Ge12  1  0.682105  0.517307  0.000000  1
  Ge  Ge13  1  0.833453  0.317164  0.000000  1
  Ge  Ge14  1  0.000000  0.174019  0.500000  1
  P  P15  1  0.819690  0.818827  0.500000  1
  P  P16  1  0.180310  0.999137  0.500000  1
  Ir  Ir17  1  0.517757  0.872556  0.000000  1
  Ir  Ir18  1  0.127368  0.645526  0.000000  1
  Ir  Ir19  1  0.357688  0.484232  0.000000  1
  Ir  Ir20  1  0.482243  0.354798  0.000000  1
  Ir  Ir21  1  0.872632  0.518156  0.000000  1
  Ir  Ir22  1  0.642312  0.126542  0.000000  1
  Ir  Ir23  1  0.000000  0.280784  0.000000  1
  Ir  Ir24  1  0.727181  0.727136  0.000000  1
  Ir  Ir25  1  0.272819  0.999956  0.000000  1
  Ir  Ir26  1  0.633586  0.808937  0.500000  1
  Ir  Ir27  1  0.192464  0.824379  0.500000  1
  Ir  Ir28  1  0.179998  0.373661  0.500000  1
  Ir  Ir29  1  0.366414  0.175351  0.500000  1
  Ir  Ir30  1  0.807536  0.631915  0.500000  1
  Ir  Ir31  1  0.820002  0.193663  0.500000  1
  Ir  Ir32  1  0.000000  0.988529  0.500000  1
  Rh  Rh33  1  0.000000  0.447250  0.500000  1
  Rh  Rh34  1  0.554324  0.553785  0.500000  1
  Rh  Rh35  1  0.445676  0.999461  0.500000  1
