# generated using pymatgen
data_Hf6Fe2Si5P
_symmetry_space_group_name_H-M   'P 1'
_cell_length_a   5.26787145
_cell_length_b   5.26787008
_cell_length_c   12.69319330
_cell_angle_alpha   70.96350734
_cell_angle_beta   70.96351267
_cell_angle_gamma   42.42631796
_symmetry_Int_Tables_number   1
_chemical_formula_structural   Hf6Fe2Si5P
_chemical_formula_sum   'Hf6 Fe2 Si5 P1'
_cell_volume   222.61730387
_cell_formula_units_Z   1
loop_
 _symmetry_equiv_pos_site_id
 _symmetry_equiv_pos_as_xyz
  1  'x, y, z'
loop_
 _atom_site_type_symbol
 _atom_site_label
 _atom_site_symmetry_multiplicity
 _atom_site_fract_x
 _atom_site_fract_y
 _atom_site_fract_z
 _atom_site_occupancy
  Hf  Hf0  1  0.748217  0.748217  0.773285  1
  Hf  Hf1  1  0.251351  0.251351  0.228624  1
  Hf  Hf2  1  0.523836  0.523836  0.619224  1
  Hf  Hf3  1  0.480668  0.480668  0.379620  1
  Hf  Hf4  1  0.394419  0.394419  0.918763  1
  Hf  Hf5  1  0.605288  0.605288  0.082215  1
  Fe  Fe6  1  0.757411  0.757411  0.414503  1
  Fe  Fe7  1  0.238039  0.238039  0.583081  1
  Si  Si8  1  0.864647  0.864647  0.549911  1
  Si  Si9  1  0.115845  0.115845  0.925456  1
  Si  Si10  1  0.883942  0.883942  0.075252  1
  Si  Si11  1  0.042252  0.042252  0.760579  1
  Si  Si12  1  0.957224  0.957224  0.240305  1
  P  P13  1  0.136860  0.136860  0.449181  1
