# generated using pymatgen
data_Tm3Lu(Co4P3)2
_symmetry_space_group_name_H-M   'P 1'
_cell_length_a   3.72536900
_cell_length_b   10.68387900
_cell_length_c   12.37583300
_cell_angle_alpha   90.00000000
_cell_angle_beta   90.00000000
_cell_angle_gamma   90.00000000
_symmetry_Int_Tables_number   1
_chemical_formula_structural   Tm3Lu(Co4P3)2
_chemical_formula_sum   'Tm6 Lu2 Co16 P12'
_cell_volume   492.57537594
_cell_formula_units_Z   2
loop_
 _symmetry_equiv_pos_site_id
 _symmetry_equiv_pos_as_xyz
  1  'x, y, z'
loop_
 _atom_site_type_symbol
 _atom_site_label
 _atom_site_symmetry_multiplicity
 _atom_site_fract_x
 _atom_site_fract_y
 _atom_site_fract_z
 _atom_site_occupancy
  Tm  Tm0  1  0.000000  0.500000  0.530267  1
  Tm  Tm1  1  0.500000  0.000000  0.469733  1
  Tm  Tm2  1  0.500000  0.824108  0.206162  1
  Tm  Tm3  1  0.500000  0.175892  0.206162  1
  Tm  Tm4  1  0.000000  0.675892  0.793838  1
  Tm  Tm5  1  0.000000  0.324108  0.793838  1
  Lu  Lu6  1  0.500000  0.500000  0.160020  1
  Lu  Lu7  1  0.000000  0.000000  0.839980  1
  Co  Co8  1  0.500000  0.500000  0.704634  1
  Co  Co9  1  0.000000  0.000000  0.295366  1
  Co  Co10  1  0.000000  0.500000  0.986136  1
  Co  Co11  1  0.500000  0.000000  0.013864  1
  Co  Co12  1  0.500000  0.331288  0.993833  1
  Co  Co13  1  0.500000  0.668712  0.993833  1
  Co  Co14  1  0.000000  0.168712  0.006167  1
  Co  Co15  1  0.000000  0.831288  0.006167  1
  Co  Co16  1  0.500000  0.294848  0.433937  1
  Co  Co17  1  0.500000  0.705152  0.433937  1
  Co  Co18  1  0.000000  0.205152  0.566063  1
  Co  Co19  1  0.000000  0.794848  0.566063  1
  Co  Co20  1  0.500000  0.876428  0.699505  1
  Co  Co21  1  0.500000  0.123572  0.699505  1
  Co  Co22  1  0.000000  0.623572  0.300495  1
  Co  Co23  1  0.000000  0.376428  0.300495  1
  P  P24  1  0.500000  0.500000  0.884368  1
  P  P25  1  0.000000  0.000000  0.115632  1
  P  P26  1  0.500000  0.500000  0.366942  1
  P  P27  1  0.000000  0.000000  0.633058  1
  P  P28  1  0.500000  0.310921  0.615839  1
  P  P29  1  0.500000  0.689079  0.615839  1
  P  P30  1  0.000000  0.189079  0.384161  1
  P  P31  1  0.000000  0.810921  0.384161  1
  P  P32  1  0.500000  0.835657  0.892910  1
  P  P33  1  0.500000  0.164343  0.892910  1
  P  P34  1  0.000000  0.664343  0.107090  1
  P  P35  1  0.000000  0.335657  0.107090  1
