# generated using pymatgen
data_Ac6LaOs4C9
_symmetry_space_group_name_H-M   'P 1'
_cell_length_a   6.77744438
_cell_length_b   6.77744338
_cell_length_c   12.21761836
_cell_angle_alpha   71.33137726
_cell_angle_beta   71.33138049
_cell_angle_gamma   48.71733365
_symmetry_Int_Tables_number   1
_chemical_formula_structural   Ac6LaOs4C9
_chemical_formula_sum   'Ac6 La1 Os4 C9'
_cell_volume   394.83133244
_cell_formula_units_Z   1
loop_
 _symmetry_equiv_pos_site_id
 _symmetry_equiv_pos_as_xyz
  1  'x, y, z'
loop_
 _atom_site_type_symbol
 _atom_site_label
 _atom_site_symmetry_multiplicity
 _atom_site_fract_x
 _atom_site_fract_y
 _atom_site_fract_z
 _atom_site_occupancy
  Ac  Ac0  1  0.365764  0.365764  0.850105  1
  Ac  Ac1  1  0.138345  0.138345  0.687076  1
  Ac  Ac2  1  0.861655  0.861655  0.312924  1
  Ac  Ac3  1  0.143586  0.143586  0.382706  1
  Ac  Ac4  1  0.856414  0.856414  0.617294  1
  Ac  Ac5  1  0.634236  0.634236  0.149895  1
  La  La6  1  0.000000  0.000000  0.000000  1
  Os  Os7  1  0.363200  0.363200  0.141283  1
  Os  Os8  1  0.561441  0.561441  0.574183  1
  Os  Os9  1  0.438559  0.438559  0.425817  1
  Os  Os10  1  0.636800  0.636800  0.858717  1
  C  C11  1  0.391951  0.391951  0.288566  1
  C  C12  1  0.908061  0.908061  0.832299  1
  C  C13  1  0.393315  0.393315  0.608270  1
  C  C14  1  0.206280  0.206280  0.141136  1
  C  C15  1  0.793720  0.793720  0.858864  1
  C  C16  1  0.500000  0.500000  0.000000  1
  C  C17  1  0.091939  0.091939  0.167701  1
  C  C18  1  0.608049  0.608049  0.711434  1
  C  C19  1  0.606685  0.606685  0.391730  1
