# generated using pymatgen
data_CsTbHo9(C2I9)2
_symmetry_space_group_name_H-M   'P 1'
_cell_length_a   11.42960678
_cell_length_b   11.44795659
_cell_length_c   11.47065564
_cell_angle_alpha   113.23472534
_cell_angle_beta   86.81671023
_cell_angle_gamma   119.92911093
_symmetry_Int_Tables_number   1
_chemical_formula_structural   CsTbHo9(C2I9)2
_chemical_formula_sum   'Cs1 Tb1 Ho9 C4 I18'
_cell_volume   1176.27418575
_cell_formula_units_Z   1
loop_
 _symmetry_equiv_pos_site_id
 _symmetry_equiv_pos_as_xyz
  1  'x, y, z'
loop_
 _atom_site_type_symbol
 _atom_site_label
 _atom_site_symmetry_multiplicity
 _atom_site_fract_x
 _atom_site_fract_y
 _atom_site_fract_z
 _atom_site_occupancy
  Cs  Cs0  1  0.499996  0.999973  0.500053  1
  Tb  Tb1  1  0.895048  0.055361  0.999424  1
  Ho  Ho2  1  0.680220  0.725703  0.712914  1
  Ho  Ho3  1  0.276039  0.351316  0.015851  1
  Ho  Ho4  1  0.093478  0.388262  0.290209  1
  Ho  Ho5  1  0.965048  0.038082  0.322783  1
  Ho  Ho6  1  0.906573  0.611123  0.709388  1
  Ho  Ho7  1  0.103371  0.945094  0.000567  1
  Ho  Ho8  1  0.035222  0.961838  0.677221  1
  Ho  Ho9  1  0.320402  0.274529  0.287415  1
  Ho  Ho10  1  0.724181  0.648569  0.984136  1
  C  C11  1  0.152821  0.220006  0.120988  1
  C  C12  1  0.848335  0.779352  0.878936  1
  C  C13  1  0.924481  0.855793  0.802655  1
  C  C14  1  0.076673  0.143587  0.197289  1
  I  I15  1  0.450841  0.530695  0.832373  1
  I  I16  1  0.382060  0.040517  0.157499  1
  I  I17  1  0.778862  0.855614  0.501866  1
  I  I18  1  0.839028  0.311899  0.154955  1
  I  I19  1  0.549377  0.469446  0.167617  1
  I  I20  1  0.221211  0.144322  0.498256  1
  I  I21  1  0.316503  0.096578  0.830095  1
  I  I22  1  0.682827  0.902685  0.170735  1
  I  I23  1  0.974206  0.756713  0.169420  1
  I  I24  1  0.934330  0.297948  0.500452  1
  I  I25  1  0.026781  0.244114  0.829762  1
  I  I26  1  0.065809  0.702090  0.499501  1
  I  I27  1  0.260126  0.619943  0.182198  1
  I  I28  1  0.739783  0.379835  0.817799  1
  I  I29  1  0.643321  0.436678  0.501816  1
  I  I30  1  0.160869  0.690795  0.846846  1
  I  I31  1  0.615601  0.958248  0.840822  1
  I  I32  1  0.356575  0.563292  0.498159  1
