# generated using pymatgen
data_Y2NpO6
_symmetry_space_group_name_H-M   'P 1'
_cell_length_a   5.54829200
_cell_length_b   7.86459855
_cell_length_c   11.88228283
_cell_angle_alpha   73.92522278
_cell_angle_beta   90.00000000
_cell_angle_gamma   90.00000000
_symmetry_Int_Tables_number   1
_chemical_formula_structural   Y2NpO6
_chemical_formula_sum   'Y8 Np4 O24'
_cell_volume   498.21232015
_cell_formula_units_Z   4
loop_
 _symmetry_equiv_pos_site_id
 _symmetry_equiv_pos_as_xyz
  1  'x, y, z'
loop_
 _atom_site_type_symbol
 _atom_site_label
 _atom_site_symmetry_multiplicity
 _atom_site_fract_x
 _atom_site_fract_y
 _atom_site_fract_z
 _atom_site_occupancy
  Y  Y0  1  0.186489  0.793817  0.079369  1
  Y  Y1  1  0.255714  0.000000  0.750000  1
  Y  Y2  1  0.744286  0.000000  0.250000  1
  Y  Y3  1  0.303756  0.500000  0.750000  1
  Y  Y4  1  0.186489  0.206183  0.420631  1
  Y  Y5  1  0.696244  0.500000  0.250000  1
  Y  Y6  1  0.813511  0.206183  0.920631  1
  Y  Y7  1  0.813511  0.793817  0.579369  1
  Np  Np8  1  0.744338  0.721820  0.886089  1
  Np  Np9  1  0.255662  0.721820  0.386089  1
  Np  Np10  1  0.744338  0.278180  0.613911  1
  Np  Np11  1  0.255662  0.278180  0.113911  1
  O  O12  1  0.871767  0.371211  0.446314  1
  O  O13  1  0.447738  0.848324  0.931400  1
  O  O14  1  0.871767  0.628789  0.053686  1
  O  O15  1  0.034797  0.288149  0.732340  1
  O  O16  1  0.965203  0.288149  0.232340  1
  O  O17  1  0.128233  0.371211  0.946314  1
  O  O18  1  0.612850  0.482564  0.883380  1
  O  O19  1  0.552262  0.151676  0.068600  1
  O  O20  1  0.128233  0.628789  0.553686  1
  O  O21  1  0.034797  0.711851  0.767660  1
  O  O22  1  0.449813  0.199385  0.273606  1
  O  O23  1  0.044801  0.944680  0.395676  1
  O  O24  1  0.447738  0.151676  0.568600  1
  O  O25  1  0.965203  0.711851  0.267660  1
  O  O26  1  0.955199  0.055320  0.604324  1
  O  O27  1  0.550187  0.199385  0.773606  1
  O  O28  1  0.550187  0.800615  0.726394  1
  O  O29  1  0.044801  0.055320  0.104324  1
  O  O30  1  0.612850  0.517436  0.616620  1
  O  O31  1  0.387150  0.517436  0.116620  1
  O  O32  1  0.449813  0.800615  0.226394  1
  O  O33  1  0.387150  0.482564  0.383380  1
  O  O34  1  0.552262  0.848324  0.431400  1
  O  O35  1  0.955199  0.944680  0.895676  1
