# generated using pymatgen
data_TbY(BeB14)2
_symmetry_space_group_name_H-M   'P 1'
_cell_length_a   7.21261481
_cell_length_b   7.21261620
_cell_length_c   7.21261524
_cell_angle_alpha   132.78745458
_cell_angle_beta   110.32721019
_cell_angle_gamma   88.47221534
_symmetry_Int_Tables_number   1
_chemical_formula_structural   TbY(BeB14)2
_chemical_formula_sum   'Tb1 Y1 Be2 B28'
_cell_volume   245.97980444
_cell_formula_units_Z   1
loop_
 _symmetry_equiv_pos_site_id
 _symmetry_equiv_pos_as_xyz
  1  'x, y, z'
loop_
 _atom_site_type_symbol
 _atom_site_label
 _atom_site_symmetry_multiplicity
 _atom_site_fract_x
 _atom_site_fract_y
 _atom_site_fract_z
 _atom_site_occupancy
  Tb  Tb0  1  0.392022  0.750000  0.642022  1
  Y  Y1  1  0.608040  0.250000  0.358040  1
  Be  Be2  1  0.000004  0.000015  0.500018  1
  Be  Be3  1  0.000004  0.499985  0.999990  1
  B  B4  1  0.631586  0.666210  0.965376  1
  B  B5  1  0.368503  0.333770  0.034733  1
  B  B6  1  0.200963  0.166230  0.034733  1
  B  B7  1  0.799167  0.833790  0.965376  1
  B  B8  1  0.791108  0.155782  0.635326  1
  B  B9  1  0.208739  0.844280  0.364460  1
  B  B10  1  0.020179  0.655720  0.364459  1
  B  B11  1  0.979545  0.344218  0.635326  1
  B  B12  1  0.925121  0.092297  0.832824  1
  B  B13  1  0.074865  0.907759  0.167105  1
  B  B14  1  0.759346  0.592240  0.167105  1
  B  B15  1  0.240526  0.407703  0.832824  1
  B  B16  1  0.398149  0.395580  0.676491  1
  B  B17  1  0.601948  0.278390  0.997627  1
  B  B18  1  0.219237  0.895679  0.997627  1
  B  B19  1  0.780911  0.778342  0.676491  1
  B  B20  1  0.601948  0.604321  0.323558  1
  B  B21  1  0.398149  0.721658  0.002570  1
  B  B22  1  0.780911  0.104420  0.002570  1
  B  B23  1  0.219237  0.221610  0.323558  1
  B  B24  1  0.032800  0.827826  0.698515  1
  B  B25  1  0.967151  0.665636  0.794892  1
  B  B26  1  0.629257  0.327741  0.794892  1
  B  B27  1  0.370688  0.165715  0.698515  1
  B  B28  1  0.967151  0.172259  0.301515  1
  B  B29  1  0.032800  0.334286  0.204974  1
  B  B30  1  0.370688  0.672174  0.204974  1
  B  B31  1  0.629257  0.834364  0.301515  1
