# generated using pymatgen
data_Er10Ru5Au
_symmetry_space_group_name_H-M   'P 1'
_cell_length_a   10.85785666
_cell_length_b   10.78287200
_cell_length_c   6.35358437
_cell_angle_alpha   90.00000000
_cell_angle_beta   89.77896087
_cell_angle_gamma   90.00000000
_symmetry_Int_Tables_number   1
_chemical_formula_structural   Er10Ru5Au
_chemical_formula_sum   'Er20 Ru10 Au2'
_cell_volume   743.86499741
_cell_formula_units_Z   2
loop_
 _symmetry_equiv_pos_site_id
 _symmetry_equiv_pos_as_xyz
  1  'x, y, z'
loop_
 _atom_site_type_symbol
 _atom_site_label
 _atom_site_symmetry_multiplicity
 _atom_site_fract_x
 _atom_site_fract_y
 _atom_site_fract_z
 _atom_site_occupancy
  Er  Er0  1  0.291536  0.086838  0.372198  1
  Er  Er1  1  0.291536  0.913162  0.872198  1
  Er  Er2  1  0.695637  0.091228  0.865628  1
  Er  Er3  1  0.695637  0.908772  0.365628  1
  Er  Er4  1  0.576096  0.790306  0.872851  1
  Er  Er5  1  0.576096  0.209694  0.372851  1
  Er  Er6  1  0.410228  0.790870  0.374605  1
  Er  Er7  1  0.410228  0.209130  0.874605  1
  Er  Er8  1  0.210671  0.413026  0.624475  1
  Er  Er9  1  0.210671  0.586974  0.124475  1
  Er  Er10  1  0.791756  0.422610  0.125980  1
  Er  Er11  1  0.791756  0.577390  0.625980  1
  Er  Er12  1  0.919416  0.705253  0.140407  1
  Er  Er13  1  0.919416  0.294747  0.640407  1
  Er  Er14  1  0.094976  0.701684  0.623974  1
  Er  Er15  1  0.094976  0.298316  0.123974  1
  Er  Er16  1  0.009070  0.997049  0.499331  1
  Er  Er17  1  0.009070  0.002951  0.999331  1
  Er  Er18  1  0.500706  0.498700  0.001046  1
  Er  Er19  1  0.500706  0.501300  0.501046  1
  Ru  Ru20  1  0.151933  0.152075  0.749336  1
  Ru  Ru21  1  0.151933  0.847925  0.249336  1
  Ru  Ru22  1  0.655526  0.345438  0.749071  1
  Ru  Ru23  1  0.655526  0.654562  0.249071  1
  Ru  Ru24  1  0.347591  0.347681  0.250044  1
  Ru  Ru25  1  0.347591  0.652319  0.750044  1
  Ru  Ru26  1  0.498431  0.000210  0.120860  1
  Ru  Ru27  1  0.498431  0.999790  0.620860  1
  Ru  Ru28  1  0.002094  0.499851  0.878782  1
  Ru  Ru29  1  0.002094  0.500149  0.378782  1
  Au  Au30  1  0.844333  0.155360  0.251411  1
  Au  Au31  1  0.844333  0.844640  0.751411  1
