# generated using pymatgen
data_Ho3B4Ru10W3
_symmetry_space_group_name_H-M   'P 1'
_cell_length_a   9.58390150
_cell_length_b   9.58390188
_cell_length_c   3.06355800
_cell_angle_alpha   90.00000000
_cell_angle_beta   90.00000000
_cell_angle_gamma   89.78567638
_symmetry_Int_Tables_number   1
_chemical_formula_structural   Ho3B4Ru10W3
_chemical_formula_sum   'Ho3 B4 Ru10 W3'
_cell_volume   281.38942271
_cell_formula_units_Z   1
loop_
 _symmetry_equiv_pos_site_id
 _symmetry_equiv_pos_as_xyz
  1  'x, y, z'
loop_
 _atom_site_type_symbol
 _atom_site_label
 _atom_site_symmetry_multiplicity
 _atom_site_fract_x
 _atom_site_fract_y
 _atom_site_fract_z
 _atom_site_occupancy
  Ho  Ho0  1  0.175144  0.824856  0.000000  1
  Ho  Ho1  1  0.323795  0.324378  0.000000  1
  Ho  Ho2  1  0.675622  0.676205  0.000000  1
  B  B3  1  0.622753  0.377247  0.000000  1
  B  B4  1  0.381671  0.618329  0.000000  1
  B  B5  1  0.119652  0.121312  0.000000  1
  B  B6  1  0.878688  0.880348  0.000000  1
  Ru  Ru7  1  0.503804  0.496196  0.500000  1
  Ru  Ru8  1  0.989823  0.010177  0.500000  1
  Ru  Ru9  1  0.583911  0.211222  0.500000  1
  Ru  Ru10  1  0.432307  0.783035  0.500000  1
  Ru  Ru11  1  0.056294  0.281261  0.500000  1
  Ru  Ru12  1  0.929671  0.719299  0.500000  1
  Ru  Ru13  1  0.280701  0.070329  0.500000  1
  Ru  Ru14  1  0.718739  0.943706  0.500000  1
  Ru  Ru15  1  0.216965  0.567693  0.500000  1
  Ru  Ru16  1  0.788778  0.416089  0.500000  1
  W  W17  1  0.496709  0.997927  0.000000  1
  W  W18  1  0.002073  0.503291  0.000000  1
  W  W19  1  0.822901  0.177099  0.000000  1
