# generated using pymatgen
data_InRhBr6
_symmetry_space_group_name_H-M   'P 1'
_cell_length_a   6.71620465
_cell_length_b   6.71620360
_cell_length_c   6.99122837
_cell_angle_alpha   80.74493754
_cell_angle_beta   80.74494157
_cell_angle_gamma   119.95535357
_symmetry_Int_Tables_number   1
_chemical_formula_structural   InRhBr6
_chemical_formula_sum   'In1 Rh1 Br6'
_cell_volume   258.72866785
_cell_formula_units_Z   1
loop_
 _symmetry_equiv_pos_site_id
 _symmetry_equiv_pos_as_xyz
  1  'x, y, z'
loop_
 _atom_site_type_symbol
 _atom_site_label
 _atom_site_symmetry_multiplicity
 _atom_site_fract_x
 _atom_site_fract_y
 _atom_site_fract_z
 _atom_site_occupancy
  In  In0  1  0.833218  0.166782  0.000000  1
  Rh  Rh1  1  0.166614  0.833386  0.000000  1
  Br  Br2  1  0.399982  0.055508  0.223122  1
  Br  Br3  1  0.548934  0.918417  0.777076  1
  Br  Br4  1  0.944492  0.600018  0.776878  1
  Br  Br5  1  0.081583  0.451066  0.222924  1
  Br  Br6  1  0.794957  0.769780  0.223599  1
  Br  Br7  1  0.230220  0.205043  0.776401  1
