# generated using pymatgen
data_TbEr2RuO7
_symmetry_space_group_name_H-M   'P 1'
_cell_length_a   6.38904645
_cell_length_b   6.38904738
_cell_length_c   7.42264000
_cell_angle_alpha   90.00000000
_cell_angle_beta   90.00000000
_cell_angle_gamma   109.34689399
_symmetry_Int_Tables_number   1
_chemical_formula_structural   TbEr2RuO7
_chemical_formula_sum   'Tb2 Er4 Ru2 O14'
_cell_volume   285.88167800
_cell_formula_units_Z   2
loop_
 _symmetry_equiv_pos_site_id
 _symmetry_equiv_pos_as_xyz
  1  'x, y, z'
loop_
 _atom_site_type_symbol
 _atom_site_label
 _atom_site_symmetry_multiplicity
 _atom_site_fract_x
 _atom_site_fract_y
 _atom_site_fract_z
 _atom_site_occupancy
  Tb  Tb0  1  0.500000  0.500000  0.500000  1
  Tb  Tb1  1  0.500000  0.500000  0.000000  1
  Er  Er2  1  0.535148  0.999770  0.750000  1
  Er  Er3  1  0.999770  0.535148  0.250000  1
  Er  Er4  1  0.464852  0.000230  0.250000  1
  Er  Er5  1  0.000230  0.464852  0.750000  1
  Ru  Ru6  1  0.000000  0.000000  0.500000  1
  Ru  Ru7  1  0.000000  0.000000  0.000000  1
  O  O8  1  0.677864  0.927140  0.469922  1
  O  O9  1  0.927140  0.677864  0.530078  1
  O  O10  1  0.677864  0.927140  0.030078  1
  O  O11  1  0.927140  0.677864  0.969922  1
  O  O12  1  0.322136  0.072860  0.530078  1
  O  O13  1  0.072860  0.322136  0.469922  1
  O  O14  1  0.322136  0.072860  0.969922  1
  O  O15  1  0.072860  0.322136  0.030078  1
  O  O16  1  0.928568  0.071432  0.750000  1
  O  O17  1  0.071432  0.928568  0.250000  1
  O  O18  1  0.367089  0.632911  0.750000  1
  O  O19  1  0.632911  0.367089  0.250000  1
  O  O20  1  0.638419  0.361581  0.750000  1
  O  O21  1  0.361581  0.638419  0.250000  1
