# generated using pymatgen
data_La3Pr5(HgOs)2
_symmetry_space_group_name_H-M   'P 1'
_cell_length_a   9.96376117
_cell_length_b   10.01905463
_cell_length_c   10.01905400
_cell_angle_alpha   59.63521307
_cell_angle_beta   60.18239700
_cell_angle_gamma   60.18239540
_symmetry_Int_Tables_number   1
_chemical_formula_structural   La3Pr5(HgOs)2
_chemical_formula_sum   'La6 Pr10 Hg4 Os4'
_cell_volume   707.18897332
_cell_formula_units_Z   2
loop_
 _symmetry_equiv_pos_site_id
 _symmetry_equiv_pos_as_xyz
  1  'x, y, z'
loop_
 _atom_site_type_symbol
 _atom_site_label
 _atom_site_symmetry_multiplicity
 _atom_site_fract_x
 _atom_site_fract_y
 _atom_site_fract_z
 _atom_site_occupancy
  La  La0  1  0.345357  0.347602  0.347602  1
  La  La1  1  0.347602  0.345357  0.959436  1
  La  La2  1  0.347602  0.959436  0.345357  1
  La  La3  1  0.959436  0.347602  0.347602  1
  La  La4  1  0.810835  0.189165  0.189165  1
  La  La5  1  0.189165  0.810835  0.810835  1
  Pr  Pr6  1  0.191767  0.808233  0.191767  1
  Pr  Pr7  1  0.808233  0.191767  0.808233  1
  Pr  Pr8  1  0.191767  0.191767  0.808233  1
  Pr  Pr9  1  0.808233  0.808233  0.191767  1
  Pr  Pr10  1  0.936699  0.563301  0.563301  1
  Pr  Pr11  1  0.563301  0.936699  0.936699  1
  Pr  Pr12  1  0.559137  0.940863  0.559137  1
  Pr  Pr13  1  0.940863  0.559137  0.940863  1
  Pr  Pr14  1  0.559137  0.559137  0.940863  1
  Pr  Pr15  1  0.940863  0.940863  0.559137  1
  Hg  Hg16  1  0.584883  0.582422  0.582422  1
  Hg  Hg17  1  0.582422  0.584883  0.250272  1
  Hg  Hg18  1  0.582422  0.250272  0.584883  1
  Hg  Hg19  1  0.250272  0.582422  0.582422  1
  Os  Os20  1  0.128201  0.143230  0.143230  1
  Os  Os21  1  0.143230  0.128201  0.585340  1
  Os  Os22  1  0.143230  0.585340  0.128201  1
  Os  Os23  1  0.585340  0.143230  0.143230  1
