# generated using pymatgen
data_LiMn5(FeRh2)6
_symmetry_space_group_name_H-M   'P 1'
_cell_length_a   4.27535500
_cell_length_b   6.05107300
_cell_length_c   12.84611900
_cell_angle_alpha   90.00000000
_cell_angle_beta   90.00060260
_cell_angle_gamma   90.00000000
_symmetry_Int_Tables_number   1
_chemical_formula_structural   LiMn5(FeRh2)6
_chemical_formula_sum   'Li1 Mn5 Fe6 Rh12'
_cell_volume   332.33533153
_cell_formula_units_Z   1
loop_
 _symmetry_equiv_pos_site_id
 _symmetry_equiv_pos_as_xyz
  1  'x, y, z'
loop_
 _atom_site_type_symbol
 _atom_site_label
 _atom_site_symmetry_multiplicity
 _atom_site_fract_x
 _atom_site_fract_y
 _atom_site_fract_z
 _atom_site_occupancy
  Li  Li0  1  0.500206  0.500000  0.833343  1
  Mn  Mn1  1  0.999999  0.000000  0.997231  1
  Mn  Mn2  1  0.499655  0.500000  0.165652  1
  Mn  Mn3  1  0.999630  0.000000  0.333297  1
  Mn  Mn4  1  0.500015  0.500000  0.501018  1
  Mn  Mn5  1  0.000408  0.000000  0.669465  1
  Fe  Fe6  1  0.999998  0.500000  0.997195  1
  Fe  Fe7  1  0.499769  0.000000  0.164514  1
  Fe  Fe8  1  0.999788  0.500000  0.333279  1
  Fe  Fe9  1  0.500012  0.000000  0.502198  1
  Fe  Fe10  1  0.000239  0.500000  0.669473  1
  Fe  Fe11  1  0.500266  0.000000  0.833385  1
  Rh  Rh12  1  0.499998  0.251017  0.999430  1
  Rh  Rh13  1  0.499998  0.748982  0.999430  1
  Rh  Rh14  1  0.999766  0.250187  0.165834  1
  Rh  Rh15  1  0.999766  0.749814  0.165834  1
  Rh  Rh16  1  0.499752  0.250638  0.333404  1
  Rh  Rh17  1  0.499752  0.749362  0.333404  1
  Rh  Rh18  1  0.000016  0.250160  0.500900  1
  Rh  Rh19  1  0.000016  0.749839  0.500900  1
  Rh  Rh20  1  0.500269  0.251135  0.667175  1
  Rh  Rh21  1  0.500269  0.748865  0.667175  1
  Rh  Rh22  1  0.000205  0.252607  0.833232  1
  Rh  Rh23  1  0.000205  0.747394  0.833232  1
