# generated using pymatgen
data_HfScAlFe3
_symmetry_space_group_name_H-M   'P 1'
_cell_length_a   5.03392100
_cell_length_b   5.03392121
_cell_length_c   8.04893000
_cell_angle_alpha   90.00000000
_cell_angle_beta   90.00000000
_cell_angle_gamma   119.99999204
_symmetry_Int_Tables_number   1
_chemical_formula_structural   HfScAlFe3
_chemical_formula_sum   'Hf2 Sc2 Al2 Fe6'
_cell_volume   176.63697824
_cell_formula_units_Z   2
loop_
 _symmetry_equiv_pos_site_id
 _symmetry_equiv_pos_as_xyz
  1  'x, y, z'
loop_
 _atom_site_type_symbol
 _atom_site_label
 _atom_site_symmetry_multiplicity
 _atom_site_fract_x
 _atom_site_fract_y
 _atom_site_fract_z
 _atom_site_occupancy
  Hf  Hf0  1  0.666667  0.333333  0.931710  1
  Hf  Hf1  1  0.333333  0.666667  0.068290  1
  Sc  Sc2  1  0.333333  0.666667  0.438638  1
  Sc  Sc3  1  0.666667  0.333333  0.561362  1
  Al  Al4  1  0.000000  0.000000  0.500000  1
  Al  Al5  1  0.000000  0.000000  0.000000  1
  Fe  Fe6  1  0.826270  0.173730  0.246425  1
  Fe  Fe7  1  0.826270  0.652541  0.246425  1
  Fe  Fe8  1  0.347459  0.173730  0.246425  1
  Fe  Fe9  1  0.173730  0.826270  0.753575  1
  Fe  Fe10  1  0.173730  0.347459  0.753575  1
  Fe  Fe11  1  0.652541  0.826270  0.753575  1
