# generated using pymatgen
data_SmLu2Co8P6W
_symmetry_space_group_name_H-M   'P 1'
_cell_length_a   3.71247400
_cell_length_b   10.52535200
_cell_length_c   12.23686200
_cell_angle_alpha   90.00000000
_cell_angle_beta   90.00000000
_cell_angle_gamma   90.00000000
_symmetry_Int_Tables_number   1
_chemical_formula_structural   SmLu2Co8P6W
_chemical_formula_sum   'Sm2 Lu4 Co16 P12 W2'
_cell_volume   478.15655299
_cell_formula_units_Z   2
loop_
 _symmetry_equiv_pos_site_id
 _symmetry_equiv_pos_as_xyz
  1  'x, y, z'
loop_
 _atom_site_type_symbol
 _atom_site_label
 _atom_site_symmetry_multiplicity
 _atom_site_fract_x
 _atom_site_fract_y
 _atom_site_fract_z
 _atom_site_occupancy
  Sm  Sm0  1  0.000000  0.500000  0.525175  1
  Sm  Sm1  1  0.500000  0.000000  0.474825  1
  Lu  Lu2  1  0.500000  0.819669  0.204142  1
  Lu  Lu3  1  0.500000  0.180331  0.204142  1
  Lu  Lu4  1  0.000000  0.680331  0.795858  1
  Lu  Lu5  1  0.000000  0.319669  0.795858  1
  Co  Co6  1  0.500000  0.500000  0.704113  1
  Co  Co7  1  0.000000  0.000000  0.295887  1
  Co  Co8  1  0.000000  0.500000  0.986504  1
  Co  Co9  1  0.500000  0.000000  0.013496  1
  Co  Co10  1  0.500000  0.332496  0.989726  1
  Co  Co11  1  0.500000  0.667504  0.989726  1
  Co  Co12  1  0.000000  0.167504  0.010274  1
  Co  Co13  1  0.000000  0.832496  0.010274  1
  Co  Co14  1  0.500000  0.295310  0.430103  1
  Co  Co15  1  0.500000  0.704690  0.430103  1
  Co  Co16  1  0.000000  0.204690  0.569897  1
  Co  Co17  1  0.000000  0.795310  0.569897  1
  Co  Co18  1  0.500000  0.877455  0.709545  1
  Co  Co19  1  0.500000  0.122545  0.709545  1
  Co  Co20  1  0.000000  0.622545  0.290455  1
  Co  Co21  1  0.000000  0.377455  0.290455  1
  P  P22  1  0.500000  0.500000  0.879987  1
  P  P23  1  0.000000  0.000000  0.120013  1
  P  P24  1  0.500000  0.500000  0.348169  1
  P  P25  1  0.000000  0.000000  0.651831  1
  P  P26  1  0.500000  0.310097  0.618221  1
  P  P27  1  0.500000  0.689903  0.618221  1
  P  P28  1  0.000000  0.189903  0.381779  1
  P  P29  1  0.000000  0.810097  0.381779  1
  P  P30  1  0.500000  0.843138  0.892334  1
  P  P31  1  0.500000  0.156862  0.892334  1
  P  P32  1  0.000000  0.656862  0.107666  1
  P  P33  1  0.000000  0.343138  0.107666  1
  W  W34  1  0.500000  0.500000  0.155184  1
  W  W35  1  0.000000  0.000000  0.844816  1
