# generated using pymatgen
data_MnZn3P6SN12
_symmetry_space_group_name_H-M   'P 1'
_cell_length_a   7.18063410
_cell_length_b   7.16136229
_cell_length_c   7.16136124
_cell_angle_alpha   109.41664046
_cell_angle_beta   109.52573937
_cell_angle_gamma   109.52574683
_symmetry_Int_Tables_number   1
_chemical_formula_structural   MnZn3P6SN12
_chemical_formula_sum   'Mn1 Zn3 P6 S1 N12'
_cell_volume   283.29537016
_cell_formula_units_Z   1
loop_
 _symmetry_equiv_pos_site_id
 _symmetry_equiv_pos_as_xyz
  1  'x, y, z'
loop_
 _atom_site_type_symbol
 _atom_site_label
 _atom_site_symmetry_multiplicity
 _atom_site_fract_x
 _atom_site_fract_y
 _atom_site_fract_z
 _atom_site_occupancy
  Mn  Mn0  1  0.326172  0.000000  0.000000  1
  Zn  Zn1  1  0.999322  0.334381  0.000000  1
  Zn  Zn2  1  0.999322  0.000000  0.334381  1
  Zn  Zn3  1  0.664939  0.665618  0.665618  1
  P  P4  1  0.751890  0.500843  0.250253  1
  P  P5  1  0.501637  0.749746  0.250589  1
  P  P6  1  0.751890  0.250253  0.500843  1
  P  P7  1  0.251048  0.749410  0.499157  1
  P  P8  1  0.501637  0.250589  0.749746  1
  P  P9  1  0.251048  0.499157  0.749410  1
  S  S10  1  0.987873  0.000000  0.000000  1
  N  N11  1  0.555225  0.273340  0.000000  1
  N  N12  1  0.272302  0.552676  0.000000  1
  N  N13  1  0.555225  0.000000  0.273340  1
  N  N14  1  0.000909  0.553552  0.270848  1
  N  N15  1  0.730061  0.729152  0.282703  1
  N  N16  1  0.719626  0.447323  0.447323  1
  N  N17  1  0.447356  0.717296  0.446447  1
  N  N18  1  0.272302  0.000000  0.552676  1
  N  N19  1  0.000909  0.270848  0.553552  1
  N  N20  1  0.447356  0.446447  0.717296  1
  N  N21  1  0.730061  0.282703  0.729152  1
  N  N22  1  0.281884  0.726660  0.726660  1
