# generated using pymatgen
data_Tb2Tm2Ga16Ir3
_symmetry_space_group_name_H-M   'P 1'
_cell_length_a   6.15695100
_cell_length_b   6.15695100
_cell_length_c   11.16573700
_cell_angle_alpha   90.00000000
_cell_angle_beta   90.00000000
_cell_angle_gamma   90.00000000
_symmetry_Int_Tables_number   1
_chemical_formula_structural   Tb2Tm2Ga16Ir3
_chemical_formula_sum   'Tb2 Tm2 Ga16 Ir3'
_cell_volume   423.27126754
_cell_formula_units_Z   1
loop_
 _symmetry_equiv_pos_site_id
 _symmetry_equiv_pos_as_xyz
  1  'x, y, z'
loop_
 _atom_site_type_symbol
 _atom_site_label
 _atom_site_symmetry_multiplicity
 _atom_site_fract_x
 _atom_site_fract_y
 _atom_site_fract_z
 _atom_site_occupancy
  Tb  Tb0  1  0.500000  0.000000  0.193204  1
  Tb  Tb1  1  0.000000  0.500000  0.193204  1
  Tm  Tm2  1  0.500000  0.000000  0.804798  1
  Tm  Tm3  1  0.000000  0.500000  0.804798  1
  Ga  Ga4  1  0.249013  0.249013  0.622057  1
  Ga  Ga5  1  0.750987  0.750987  0.622057  1
  Ga  Ga6  1  0.750987  0.249013  0.622057  1
  Ga  Ga7  1  0.249013  0.750987  0.622057  1
  Ga  Ga8  1  0.751036  0.751036  0.380630  1
  Ga  Ga9  1  0.248964  0.248964  0.380630  1
  Ga  Ga10  1  0.248964  0.751036  0.380630  1
  Ga  Ga11  1  0.751036  0.248964  0.380630  1
  Ga  Ga12  1  0.288065  0.288065  0.997443  1
  Ga  Ga13  1  0.711935  0.711935  0.997443  1
  Ga  Ga14  1  0.711935  0.288065  0.997443  1
  Ga  Ga15  1  0.288065  0.711935  0.997443  1
  Ga  Ga16  1  0.500000  0.500000  0.802742  1
  Ga  Ga17  1  0.500000  0.500000  0.194676  1
  Ga  Ga18  1  0.000000  0.000000  0.776378  1
  Ga  Ga19  1  0.000000  0.000000  0.225743  1
  Ir  Ir20  1  0.500000  0.000000  0.501406  1
  Ir  Ir21  1  0.000000  0.500000  0.501406  1
  Ir  Ir22  1  0.000000  0.000000  0.001131  1
