# generated using pymatgen
data_Sb12RuPtRh2
_symmetry_space_group_name_H-M   'P 1'
_cell_length_a   8.13439415
_cell_length_b   8.14928004
_cell_length_c   8.14899764
_cell_angle_alpha   109.50099684
_cell_angle_beta   109.43989012
_cell_angle_gamma   109.44757334
_symmetry_Int_Tables_number   1
_chemical_formula_structural   Sb12RuPtRh2
_chemical_formula_sum   'Sb12 Ru1 Pt1 Rh2'
_cell_volume   415.96965210
_cell_formula_units_Z   1
loop_
 _symmetry_equiv_pos_site_id
 _symmetry_equiv_pos_as_xyz
  1  'x, y, z'
loop_
 _atom_site_type_symbol
 _atom_site_label
 _atom_site_symmetry_multiplicity
 _atom_site_fract_x
 _atom_site_fract_y
 _atom_site_fract_z
 _atom_site_occupancy
  Sb  Sb0  1  0.157277  0.819145  0.664568  1
  Sb  Sb1  1  0.842723  0.180855  0.335432  1
  Sb  Sb2  1  0.844034  0.503569  0.653819  1
  Sb  Sb3  1  0.155966  0.496431  0.346181  1
  Sb  Sb4  1  0.809751  0.659913  0.156347  1
  Sb  Sb5  1  0.190249  0.340087  0.843653  1
  Sb  Sb6  1  0.507087  0.664682  0.845510  1
  Sb  Sb7  1  0.492913  0.335318  0.154490  1
  Sb  Sb8  1  0.654937  0.149316  0.813170  1
  Sb  Sb9  1  0.345063  0.850684  0.186830  1
  Sb  Sb10  1  0.659761  0.844277  0.504789  1
  Sb  Sb11  1  0.340239  0.155723  0.495211  1
  Ru  Ru12  1  0.500000  0.000000  0.000000  1
  Pt  Pt13  1  0.000000  0.500000  0.000000  1
  Rh  Rh14  1  0.000000  0.000000  0.500000  1
  Rh  Rh15  1  0.500000  0.500000  0.500000  1
