# generated using pymatgen
data_Er2LuBe2Co9B4
_symmetry_space_group_name_H-M   'P 1'
_cell_length_a   4.99828000
_cell_length_b   4.99704990
_cell_length_c   9.34675300
_cell_angle_alpha   90.00000760
_cell_angle_beta   89.99998480
_cell_angle_gamma   120.00814341
_symmetry_Int_Tables_number   1
_chemical_formula_structural   Er2LuBe2Co9B4
_chemical_formula_sum   'Er2 Lu1 Be2 Co9 B4'
_cell_volume   202.15757625
_cell_formula_units_Z   1
loop_
 _symmetry_equiv_pos_site_id
 _symmetry_equiv_pos_as_xyz
  1  'x, y, z'
loop_
 _atom_site_type_symbol
 _atom_site_label
 _atom_site_symmetry_multiplicity
 _atom_site_fract_x
 _atom_site_fract_y
 _atom_site_fract_z
 _atom_site_occupancy
  Er  Er0  1  0.999992  0.000000  0.999853  1
  Er  Er1  1  0.999990  0.000000  0.337640  1
  Lu  Lu2  1  0.999996  0.000000  0.662485  1
  Be  Be3  1  0.333341  0.666694  0.999938  1
  Be  Be4  1  0.666646  0.333306  0.999938  1
  Co  Co5  1  0.499995  0.000000  0.500349  1
  Co  Co6  1  0.499995  0.499999  0.500374  1
  Co  Co7  1  0.999995  0.500001  0.500374  1
  Co  Co8  1  0.499992  0.000000  0.188509  1
  Co  Co9  1  0.499992  0.500000  0.188514  1
  Co  Co10  1  0.999993  0.500000  0.188514  1
  Co  Co11  1  0.499995  0.000000  0.811135  1
  Co  Co12  1  0.499997  0.500000  0.811091  1
  Co  Co13  1  0.999997  0.500000  0.811091  1
  B  B14  1  0.333346  0.666704  0.341573  1
  B  B15  1  0.666642  0.333296  0.341573  1
  B  B16  1  0.666608  0.333221  0.658523  1
  B  B17  1  0.333386  0.666779  0.658523  1
