# generated using pymatgen
data_K2AlVF7
_symmetry_space_group_name_H-M   'P 1'
_cell_length_a   7.66477879
_cell_length_b   7.66477929
_cell_length_c   7.66478003
_cell_angle_alpha   120.21607289
_cell_angle_beta   116.92899157
_cell_angle_gamma   92.51333692
_symmetry_Int_Tables_number   1
_chemical_formula_structural   K2AlVF7
_chemical_formula_sum   'K4 Al2 V2 F14'
_cell_volume   324.62280668
_cell_formula_units_Z   2
loop_
 _symmetry_equiv_pos_site_id
 _symmetry_equiv_pos_as_xyz
  1  'x, y, z'
loop_
 _atom_site_type_symbol
 _atom_site_label
 _atom_site_symmetry_multiplicity
 _atom_site_fract_x
 _atom_site_fract_y
 _atom_site_fract_z
 _atom_site_occupancy
  K  K0  1  0.000000  0.000000  0.000000  1
  K  K1  1  0.500000  0.500000  0.000000  1
  K  K2  1  0.500000  0.000000  0.000000  1
  K  K3  1  0.500000  0.500000  0.500000  1
  Al  Al4  1  0.500000  0.000000  0.500000  1
  Al  Al5  1  0.000000  0.500000  0.500000  1
  V  V6  1  0.000000  0.000000  0.500000  1
  V  V7  1  0.000000  0.500000  0.000000  1
  F  F8  1  0.381239  0.080723  0.300516  1
  F  F9  1  0.719793  0.419277  0.300516  1
  F  F10  1  0.680761  0.283391  0.745611  1
  F  F11  1  0.962219  0.216609  0.397370  1
  F  F12  1  0.962219  0.564850  0.745611  1
  F  F13  1  0.680761  0.935150  0.397370  1
  F  F14  1  0.319239  0.064850  0.602630  1
  F  F15  1  0.037781  0.435150  0.254389  1
  F  F16  1  0.037781  0.783391  0.602630  1
  F  F17  1  0.319239  0.716609  0.254389  1
  F  F18  1  0.880716  0.750000  0.130716  1
  F  F19  1  0.618761  0.919277  0.699484  1
  F  F20  1  0.280207  0.580723  0.699484  1
  F  F21  1  0.119284  0.250000  0.869284  1
