# generated using pymatgen
data_U(Mo3P2)2
_symmetry_space_group_name_H-M   'P 1'
_cell_length_a   7.65314100
_cell_length_b   7.65314116
_cell_length_c   3.31003600
_cell_angle_alpha   90.00000000
_cell_angle_beta   90.00000000
_cell_angle_gamma   119.99999498
_symmetry_Int_Tables_number   1
_chemical_formula_structural   U(Mo3P2)2
_chemical_formula_sum   'U1 Mo6 P4'
_cell_volume   167.89695104
_cell_formula_units_Z   1
loop_
 _symmetry_equiv_pos_site_id
 _symmetry_equiv_pos_as_xyz
  1  'x, y, z'
loop_
 _atom_site_type_symbol
 _atom_site_label
 _atom_site_symmetry_multiplicity
 _atom_site_fract_x
 _atom_site_fract_y
 _atom_site_fract_z
 _atom_site_occupancy
  U  U0  1  0.000000  0.000000  0.000000  1
  Mo  Mo1  1  0.802540  0.605081  0.500000  1
  Mo  Mo2  1  0.077487  0.538743  0.000000  1
  Mo  Mo3  1  0.461257  0.922513  0.000000  1
  Mo  Mo4  1  0.802540  0.197460  0.500000  1
  Mo  Mo5  1  0.461257  0.538743  0.000000  1
  Mo  Mo6  1  0.394919  0.197460  0.500000  1
  P  P7  1  0.666667  0.333333  0.000000  1
  P  P8  1  0.181694  0.818306  0.500000  1
  P  P9  1  0.181694  0.363389  0.500000  1
  P  P10  1  0.636611  0.818306  0.500000  1
