# generated using pymatgen
data_MgAl5(Pd3Pt2)2
_symmetry_space_group_name_H-M   'P 1'
_cell_length_a   4.12621200
_cell_length_b   5.43477385
_cell_length_c   10.61069776
_cell_angle_alpha   90.06515913
_cell_angle_beta   90.00000000
_cell_angle_gamma   90.00000000
_symmetry_Int_Tables_number   1
_chemical_formula_structural   MgAl5(Pd3Pt2)2
_chemical_formula_sum   'Mg1 Al5 Pd6 Pt4'
_cell_volume   237.94505220
_cell_formula_units_Z   1
loop_
 _symmetry_equiv_pos_site_id
 _symmetry_equiv_pos_as_xyz
  1  'x, y, z'
loop_
 _atom_site_type_symbol
 _atom_site_label
 _atom_site_symmetry_multiplicity
 _atom_site_fract_x
 _atom_site_fract_y
 _atom_site_fract_z
 _atom_site_occupancy
  Mg  Mg0  1  0.500000  0.165944  0.359373  1
  Al  Al1  1  0.000000  0.996687  0.001373  1
  Al  Al2  1  0.000000  0.483420  0.496896  1
  Al  Al3  1  0.500000  0.837011  0.641703  1
  Al  Al4  1  0.500000  0.667214  0.145822  1
  Al  Al5  1  0.500000  0.339581  0.858334  1
  Pd  Pd6  1  0.000000  0.981494  0.508213  1
  Pd  Pd7  1  0.000000  0.500081  0.995154  1
  Pd  Pd8  1  0.000000  0.915343  0.235155  1
  Pd  Pd9  1  0.000000  0.099249  0.769800  1
  Pd  Pd10  1  0.000000  0.419000  0.256896  1
  Pd  Pd11  1  0.000000  0.599987  0.731049  1
  Pt  Pt12  1  0.500000  0.192163  0.099897  1
  Pt  Pt13  1  0.500000  0.813644  0.893019  1
  Pt  Pt14  1  0.500000  0.676455  0.394981  1
  Pt  Pt15  1  0.500000  0.312729  0.612334  1
