# generated using pymatgen
data_La4Ga7Ge3(IrRh)3
_symmetry_space_group_name_H-M   'P 1'
_cell_length_a   8.67881330
_cell_length_b   8.71981807
_cell_length_c   8.71901841
_cell_angle_alpha   140.41901052
_cell_angle_beta   107.73244630
_cell_angle_gamma   85.74354389
_symmetry_Int_Tables_number   1
_chemical_formula_structural   La4Ga7Ge3(IrRh)3
_chemical_formula_sum   'La4 Ga7 Ge3 Ir3 Rh3'
_cell_volume   386.18996909
_cell_formula_units_Z   1
loop_
 _symmetry_equiv_pos_site_id
 _symmetry_equiv_pos_as_xyz
  1  'x, y, z'
loop_
 _atom_site_type_symbol
 _atom_site_label
 _atom_site_symmetry_multiplicity
 _atom_site_fract_x
 _atom_site_fract_y
 _atom_site_fract_z
 _atom_site_occupancy
  La  La0  1  0.363195  0.131963  0.231037  1
  La  La1  1  0.638849  0.865654  0.773487  1
  La  La2  1  0.094565  0.365958  0.728304  1
  La  La3  1  0.906720  0.636336  0.270275  1
  Ga  Ga4  1  0.998943  0.251620  0.250458  1
  Ga  Ga5  1  0.998755  0.748304  0.747098  1
  Ga  Ga6  1  0.716805  0.967059  0.251480  1
  Ga  Ga7  1  0.284601  0.536051  0.252371  1
  Ga  Ga8  1  0.284286  0.031887  0.748898  1
  Ga  Ga9  1  0.717186  0.465676  0.749705  1
  Ga  Ga10  1  0.565691  0.406023  0.160938  1
  Ge  Ge11  1  0.240330  0.900966  0.339244  1
  Ge  Ge12  1  0.757135  0.094677  0.662140  1
  Ge  Ge13  1  0.434863  0.595851  0.838395  1
  Ir  Ir14  1  0.962126  0.858270  0.104685  1
  Ir  Ir15  1  0.498613  0.752953  0.248785  1
  Ir  Ir16  1  0.750998  0.355167  0.394246  1
  Rh  Rh17  1  0.246619  0.641693  0.604149  1
  Rh  Rh18  1  0.041022  0.143911  0.898033  1
  Rh  Rh19  1  0.498699  0.249982  0.746270  1
