# generated using pymatgen
data_Er3MnAl12RuPt2
_symmetry_space_group_name_H-M   'P 1'
_cell_length_a   8.78780664
_cell_length_b   8.78780602
_cell_length_c   9.43918685
_cell_angle_alpha   90.17936840
_cell_angle_beta   89.82063002
_cell_angle_gamma   119.85497723
_symmetry_Int_Tables_number   1
_chemical_formula_structural   Er3MnAl12RuPt2
_chemical_formula_sum   'Er6 Mn2 Al24 Ru2 Pt4'
_cell_volume   632.20238349
_cell_formula_units_Z   2
loop_
 _symmetry_equiv_pos_site_id
 _symmetry_equiv_pos_as_xyz
  1  'x, y, z'
loop_
 _atom_site_type_symbol
 _atom_site_label
 _atom_site_symmetry_multiplicity
 _atom_site_fract_x
 _atom_site_fract_y
 _atom_site_fract_z
 _atom_site_occupancy
  Er  Er0  1  0.191124  0.384452  0.252026  1
  Er  Er1  1  0.808876  0.615548  0.747974  1
  Er  Er2  1  0.615548  0.808876  0.252026  1
  Er  Er3  1  0.384452  0.191124  0.747974  1
  Er  Er4  1  0.192731  0.807269  0.250832  1
  Er  Er5  1  0.807269  0.192731  0.749168  1
  Mn  Mn6  1  0.000000  0.000000  0.000000  1
  Mn  Mn7  1  0.000000  0.000000  0.500000  1
  Al  Al8  1  0.333263  0.666737  0.029820  1
  Al  Al9  1  0.666737  0.333263  0.970180  1
  Al  Al10  1  0.669345  0.330655  0.527362  1
  Al  Al11  1  0.330655  0.669345  0.472638  1
  Al  Al12  1  0.154825  0.319317  0.575995  1
  Al  Al13  1  0.845175  0.680683  0.424005  1
  Al  Al14  1  0.680683  0.845175  0.575995  1
  Al  Al15  1  0.841674  0.683887  0.078911  1
  Al  Al16  1  0.319317  0.154825  0.424005  1
  Al  Al17  1  0.158326  0.316113  0.921089  1
  Al  Al18  1  0.160422  0.839578  0.576189  1
  Al  Al19  1  0.316113  0.158326  0.078911  1
  Al  Al20  1  0.839578  0.160422  0.423811  1
  Al  Al21  1  0.683887  0.841674  0.921089  1
  Al  Al22  1  0.841382  0.158618  0.079229  1
  Al  Al23  1  0.158618  0.841382  0.920771  1
  Al  Al24  1  0.563108  0.125807  0.253168  1
  Al  Al25  1  0.436892  0.874193  0.746832  1
  Al  Al26  1  0.874193  0.436892  0.253168  1
  Al  Al27  1  0.125807  0.563108  0.746832  1
  Al  Al28  1  0.564109  0.435891  0.249384  1
  Al  Al29  1  0.435891  0.564109  0.750616  1
  Al  Al30  1  0.999470  0.000530  0.250521  1
  Al  Al31  1  0.000530  0.999470  0.749479  1
  Ru  Ru32  1  0.500000  0.000000  0.500000  1
  Ru  Ru33  1  0.000000  0.500000  0.500000  1
  Pt  Pt34  1  0.500000  0.000000  0.000000  1
  Pt  Pt35  1  0.000000  0.500000  0.000000  1
  Pt  Pt36  1  0.500000  0.500000  0.000000  1
  Pt  Pt37  1  0.500000  0.500000  0.500000  1
