# generated using pymatgen
data_LuZr2CrF15
_symmetry_space_group_name_H-M   'P 1'
_cell_length_a   8.00660520
_cell_length_b   8.00660536
_cell_length_c   8.05318168
_cell_angle_alpha   79.79827442
_cell_angle_beta   79.79827533
_cell_angle_gamma   99.66484496
_symmetry_Int_Tables_number   1
_chemical_formula_structural   LuZr2CrF15
_chemical_formula_sum   'Lu2 Zr4 Cr2 F30'
_cell_volume   489.36593458
_cell_formula_units_Z   2
loop_
 _symmetry_equiv_pos_site_id
 _symmetry_equiv_pos_as_xyz
  1  'x, y, z'
loop_
 _atom_site_type_symbol
 _atom_site_label
 _atom_site_symmetry_multiplicity
 _atom_site_fract_x
 _atom_site_fract_y
 _atom_site_fract_z
 _atom_site_occupancy
  Lu  Lu0  1  0.677470  0.322530  0.750000  1
  Lu  Lu1  1  0.322530  0.677470  0.250000  1
  Zr  Zr2  1  0.821234  0.750153  0.324713  1
  Zr  Zr3  1  0.249847  0.178766  0.175287  1
  Zr  Zr4  1  0.178766  0.249847  0.675287  1
  Zr  Zr5  1  0.750153  0.821234  0.824713  1
  Cr  Cr6  1  0.250074  0.749926  0.750000  1
  Cr  Cr7  1  0.749926  0.250074  0.250000  1
  F  F8  1  0.148166  0.185564  0.947487  1
  F  F9  1  0.687012  0.558164  0.849172  1
  F  F10  1  0.045140  0.653459  0.312519  1
  F  F11  1  0.653459  0.045140  0.812519  1
  F  F12  1  0.558164  0.687012  0.349172  1
  F  F13  1  0.185564  0.148166  0.447487  1
  F  F14  1  0.851834  0.814436  0.052513  1
  F  F15  1  0.312988  0.441836  0.150828  1
  F  F16  1  0.954860  0.346541  0.687481  1
  F  F17  1  0.346541  0.954860  0.187481  1
  F  F18  1  0.441836  0.312988  0.650828  1
  F  F19  1  0.814436  0.851834  0.552513  1
  F  F20  1  0.968185  0.031815  0.750000  1
  F  F21  1  0.540495  0.752716  0.030197  1
  F  F22  1  0.247284  0.459505  0.469803  1
  F  F23  1  0.459505  0.247284  0.969803  1
  F  F24  1  0.752716  0.540495  0.530197  1
  F  F25  1  0.031815  0.968185  0.250000  1
  F  F26  1  0.220590  0.730078  0.985258  1
  F  F27  1  0.227826  0.507795  0.782178  1
  F  F28  1  0.005733  0.718119  0.773842  1
  F  F29  1  0.718119  0.005733  0.273842  1
  F  F30  1  0.507795  0.227826  0.282178  1
  F  F31  1  0.730078  0.220590  0.485258  1
  F  F32  1  0.779410  0.269922  0.014742  1
  F  F33  1  0.772174  0.492205  0.217822  1
  F  F34  1  0.994267  0.281881  0.226158  1
  F  F35  1  0.281881  0.994267  0.726158  1
  F  F36  1  0.492205  0.772174  0.717822  1
  F  F37  1  0.269922  0.779410  0.514742  1
