# generated using pymatgen
data_CsAsPIrRu
_symmetry_space_group_name_H-M   'P 1'
_cell_length_a   7.88506761
_cell_length_b   7.88506811
_cell_length_c   7.88506697
_cell_angle_alpha   150.25439532
_cell_angle_beta   150.18715481
_cell_angle_gamma   42.61745169
_symmetry_Int_Tables_number   1
_chemical_formula_structural   CsAsPIrRu
_chemical_formula_sum   'Cs1 As1 P1 Ir1 Ru1'
_cell_volume   120.62707303
_cell_formula_units_Z   1
loop_
 _symmetry_equiv_pos_site_id
 _symmetry_equiv_pos_as_xyz
  1  'x, y, z'
loop_
 _atom_site_type_symbol
 _atom_site_label
 _atom_site_symmetry_multiplicity
 _atom_site_fract_x
 _atom_site_fract_y
 _atom_site_fract_z
 _atom_site_occupancy
  Cs  Cs0  1  0.002722  0.002722  0.000000  1
  As  As1  1  0.340435  0.340435  0.000000  1
  P  P2  1  0.666352  0.666352  0.000000  1
  Ir  Ir3  1  0.745336  0.245336  0.500000  1
  Ru  Ru4  1  0.245156  0.745156  0.500000  1
