# generated using pymatgen
data_Sc11In9Pd4
_symmetry_space_group_name_H-M   'P 1'
_cell_length_a   12.68571857
_cell_length_b   12.68571791
_cell_length_c   3.44558000
_cell_angle_alpha   90.00000000
_cell_angle_beta   90.00000000
_cell_angle_gamma   112.49365590
_symmetry_Int_Tables_number   1
_chemical_formula_structural   Sc11In9Pd4
_chemical_formula_sum   'Sc11 In9 Pd4'
_cell_volume   512.30396976
_cell_formula_units_Z   1
loop_
 _symmetry_equiv_pos_site_id
 _symmetry_equiv_pos_as_xyz
  1  'x, y, z'
loop_
 _atom_site_type_symbol
 _atom_site_label
 _atom_site_symmetry_multiplicity
 _atom_site_fract_x
 _atom_site_fract_y
 _atom_site_fract_z
 _atom_site_occupancy
  Sc  Sc0  1  0.415814  0.071698  0.000000  1
  Sc  Sc1  1  0.584186  0.928302  0.000000  1
  Sc  Sc2  1  0.071698  0.415814  0.000000  1
  Sc  Sc3  1  0.928302  0.584186  0.000000  1
  Sc  Sc4  1  0.157940  0.842060  0.000000  1
  Sc  Sc5  1  0.842060  0.157940  0.000000  1
  Sc  Sc6  1  0.372319  0.627681  0.000000  1
  Sc  Sc7  1  0.627681  0.372319  0.000000  1
  Sc  Sc8  1  0.308991  0.308991  0.000000  1
  Sc  Sc9  1  0.691009  0.691009  0.000000  1
  Sc  Sc10  1  0.000000  0.000000  0.000000  1
  In  In11  1  0.367008  0.846102  0.500000  1
  In  In12  1  0.632992  0.153898  0.500000  1
  In  In13  1  0.846102  0.367008  0.500000  1
  In  In14  1  0.153898  0.632992  0.500000  1
  In  In15  1  0.217205  0.070470  0.500000  1
  In  In16  1  0.782795  0.929530  0.500000  1
  In  In17  1  0.070470  0.217205  0.500000  1
  In  In18  1  0.929530  0.782795  0.500000  1
  In  In19  1  0.500000  0.500000  0.500000  1
  Pd  Pd20  1  0.450249  0.247326  0.500000  1
  Pd  Pd21  1  0.549751  0.752674  0.500000  1
  Pd  Pd22  1  0.247326  0.450249  0.500000  1
  Pd  Pd23  1  0.752674  0.549751  0.500000  1
