# generated using pymatgen
data_Lu16Ni3Ag4Ru
_symmetry_space_group_name_H-M   'P 1'
_cell_length_a   9.29690231
_cell_length_b   9.29690214
_cell_length_c   9.29690294
_cell_angle_alpha   59.53573636
_cell_angle_beta   59.53573842
_cell_angle_gamma   59.53573715
_symmetry_Int_Tables_number   1
_chemical_formula_structural   Lu16Ni3Ag4Ru
_chemical_formula_sum   'Lu16 Ni3 Ag4 Ru1'
_cell_volume   562.20010175
_cell_formula_units_Z   1
loop_
 _symmetry_equiv_pos_site_id
 _symmetry_equiv_pos_as_xyz
  1  'x, y, z'
loop_
 _atom_site_type_symbol
 _atom_site_label
 _atom_site_symmetry_multiplicity
 _atom_site_fract_x
 _atom_site_fract_y
 _atom_site_fract_z
 _atom_site_occupancy
  Lu  Lu0  1  0.349077  0.349077  0.349077  1
  Lu  Lu1  1  0.352671  0.352671  0.950100  1
  Lu  Lu2  1  0.352671  0.950100  0.352671  1
  Lu  Lu3  1  0.950100  0.352671  0.352671  1
  Lu  Lu4  1  0.810505  0.188109  0.188109  1
  Lu  Lu5  1  0.188910  0.810425  0.810425  1
  Lu  Lu6  1  0.188109  0.810505  0.188109  1
  Lu  Lu7  1  0.810425  0.188910  0.810425  1
  Lu  Lu8  1  0.188109  0.188109  0.810505  1
  Lu  Lu9  1  0.810425  0.810425  0.188910  1
  Lu  Lu10  1  0.934882  0.565142  0.565142  1
  Lu  Lu11  1  0.559688  0.936805  0.936805  1
  Lu  Lu12  1  0.565142  0.934882  0.565142  1
  Lu  Lu13  1  0.936805  0.559688  0.936805  1
  Lu  Lu14  1  0.565142  0.565142  0.934882  1
  Lu  Lu15  1  0.936805  0.936805  0.559688  1
  Ni  Ni16  1  0.142864  0.142864  0.573105  1
  Ni  Ni17  1  0.142864  0.573105  0.142864  1
  Ni  Ni18  1  0.573105  0.142864  0.142864  1
  Ag  Ag19  1  0.581966  0.581966  0.581966  1
  Ag  Ag20  1  0.582063  0.582063  0.252149  1
  Ag  Ag21  1  0.582063  0.252149  0.582063  1
  Ag  Ag22  1  0.252149  0.582063  0.582063  1
  Ru  Ru23  1  0.143460  0.143460  0.143460  1
