# generated using pymatgen
data_Sr2DyRuO6
_symmetry_space_group_name_H-M   'P 1'
_cell_length_a   5.87859700
_cell_length_b   5.80982581
_cell_length_c   10.05391400
_cell_angle_alpha   55.09108467
_cell_angle_beta   90.00000000
_cell_angle_gamma   90.00000000
_symmetry_Int_Tables_number   1
_chemical_formula_structural   Sr2DyRuO6
_chemical_formula_sum   'Sr4 Dy2 Ru2 O12'
_cell_volume   281.59121307
_cell_formula_units_Z   2
loop_
 _symmetry_equiv_pos_site_id
 _symmetry_equiv_pos_as_xyz
  1  'x, y, z'
loop_
 _atom_site_type_symbol
 _atom_site_label
 _atom_site_symmetry_multiplicity
 _atom_site_fract_x
 _atom_site_fract_y
 _atom_site_fract_z
 _atom_site_occupancy
  Sr  Sr0  1  0.537454  0.740689  0.750543  1
  Sr  Sr1  1  0.037454  0.259311  0.749457  1
  Sr  Sr2  1  0.962546  0.740689  0.250543  1
  Sr  Sr3  1  0.462546  0.259311  0.249457  1
  Dy  Dy4  1  0.000000  0.000000  0.500000  1
  Dy  Dy5  1  0.500000  0.000000  0.000000  1
  Ru  Ru6  1  0.000000  0.500000  0.000000  1
  Ru  Ru7  1  0.500000  0.500000  0.500000  1
  O  O8  1  0.520661  0.810170  0.266067  1
  O  O9  1  0.020661  0.189830  0.233933  1
  O  O10  1  0.479339  0.189830  0.733933  1
  O  O11  1  0.979339  0.810170  0.766067  1
  O  O12  1  0.772209  0.653928  0.541876  1
  O  O13  1  0.272209  0.346072  0.958124  1
  O  O14  1  0.227791  0.346072  0.458124  1
  O  O15  1  0.727791  0.653928  0.041876  1
  O  O16  1  0.198820  0.731774  0.039220  1
  O  O17  1  0.698820  0.268226  0.460780  1
  O  O18  1  0.801180  0.268226  0.960780  1
  O  O19  1  0.301180  0.731774  0.539220  1
