# generated using pymatgen
data_Ti7V5Sn9Au
_symmetry_space_group_name_H-M   'P 1'
_cell_length_a   9.15798808
_cell_length_b   9.15798730
_cell_length_c   5.55126188
_cell_angle_alpha   89.94448272
_cell_angle_beta   90.05551489
_cell_angle_gamma   119.99389165
_symmetry_Int_Tables_number   1
_chemical_formula_structural   Ti7V5Sn9Au
_chemical_formula_sum   'Ti7 V5 Sn9 Au1'
_cell_volume   403.22635891
_cell_formula_units_Z   1
loop_
 _symmetry_equiv_pos_site_id
 _symmetry_equiv_pos_as_xyz
  1  'x, y, z'
loop_
 _atom_site_type_symbol
 _atom_site_label
 _atom_site_symmetry_multiplicity
 _atom_site_fract_x
 _atom_site_fract_y
 _atom_site_fract_z
 _atom_site_occupancy
  Ti  Ti0  1  0.845607  0.685552  0.752456  1
  Ti  Ti1  1  0.157904  0.842096  0.247362  1
  Ti  Ti2  1  0.685552  0.845607  0.247544  1
  Ti  Ti3  1  0.314448  0.154393  0.752456  1
  Ti  Ti4  1  0.842096  0.157904  0.752638  1
  Ti  Ti5  1  0.154393  0.314448  0.247544  1
  Ti  Ti6  1  0.500000  0.500000  0.500000  1
  V  V7  1  0.500000  0.000000  0.500000  1
  V  V8  1  0.500000  0.500000  0.000000  1
  V  V9  1  0.000000  0.500000  0.000000  1
  V  V10  1  0.000000  0.500000  0.500000  1
  V  V11  1  0.500000  0.000000  0.000000  1
  Sn  Sn12  1  0.202239  0.408196  0.750685  1
  Sn  Sn13  1  0.794834  0.205166  0.252321  1
  Sn  Sn14  1  0.408196  0.202239  0.249315  1
  Sn  Sn15  1  0.591804  0.797761  0.750685  1
  Sn  Sn16  1  0.205166  0.794834  0.747679  1
  Sn  Sn17  1  0.797761  0.591804  0.249315  1
  Sn  Sn18  1  0.667272  0.332728  0.754584  1
  Sn  Sn19  1  0.332728  0.667272  0.245416  1
  Sn  Sn20  1  0.000000  0.000000  0.000000  1
  Au  Au21  1  0.000000  0.000000  0.500000  1
