# generated using pymatgen
data_Li4Yb8InGa3Ge8
_symmetry_space_group_name_H-M   'P 1'
_cell_length_a   7.03207533
_cell_length_b   4.35874400
_cell_length_c   16.43218739
_cell_angle_alpha   90.00000000
_cell_angle_beta   89.61028543
_cell_angle_gamma   90.00000000
_symmetry_Int_Tables_number   1
_chemical_formula_structural   Li4Yb8InGa3Ge8
_chemical_formula_sum   'Li4 Yb8 In1 Ga3 Ge8'
_cell_volume   503.65159010
_cell_formula_units_Z   1
loop_
 _symmetry_equiv_pos_site_id
 _symmetry_equiv_pos_as_xyz
  1  'x, y, z'
loop_
 _atom_site_type_symbol
 _atom_site_label
 _atom_site_symmetry_multiplicity
 _atom_site_fract_x
 _atom_site_fract_y
 _atom_site_fract_z
 _atom_site_occupancy
  Li  Li0  1  0.491583  0.750000  0.071564  1
  Li  Li1  1  0.988419  0.750000  0.430967  1
  Li  Li2  1  0.011521  0.250001  0.566801  1
  Li  Li3  1  0.515324  0.250001  0.934106  1
  Yb  Yb4  1  0.158600  0.250001  0.063710  1
  Yb  Yb5  1  0.504192  0.250001  0.225093  1
  Yb  Yb6  1  0.003817  0.250001  0.275875  1
  Yb  Yb7  1  0.656580  0.250001  0.438224  1
  Yb  Yb8  1  0.344095  0.750000  0.558228  1
  Yb  Yb9  1  0.990087  0.750000  0.719675  1
  Yb  Yb10  1  0.494217  0.750000  0.773922  1
  Yb  Yb11  1  0.840547  0.750000  0.939627  1
  In  In12  1  0.159695  0.250001  0.846182  1
  Ga  Ga13  1  0.840675  0.750000  0.156773  1
  Ga  Ga14  1  0.339648  0.750000  0.343410  1
  Ga  Ga15  1  0.658629  0.250001  0.654654  1
  Ge  Ge16  1  0.734406  0.250001  0.069602  1
  Ge  Ge17  1  0.218254  0.750000  0.189001  1
  Ge  Ge18  1  0.717480  0.750000  0.312239  1
  Ge  Ge19  1  0.234181  0.250001  0.430287  1
  Ge  Ge20  1  0.766227  0.750000  0.567523  1
  Ge  Ge21  1  0.283298  0.250001  0.682848  1
  Ge  Ge22  1  0.771099  0.250001  0.810888  1
  Ge  Ge23  1  0.277423  0.750000  0.938802  1
