# generated using pymatgen
data_Tb4TmTh3(ZnRu)2
_symmetry_space_group_name_H-M   'P 1'
_cell_length_a   9.57018369
_cell_length_b   9.64875810
_cell_length_c   9.65586036
_cell_angle_alpha   59.43786608
_cell_angle_beta   60.24411854
_cell_angle_gamma   60.31798943
_symmetry_Int_Tables_number   1
_chemical_formula_structural   Tb4TmTh3(ZnRu)2
_chemical_formula_sum   'Tb8 Tm2 Th6 Zn4 Ru4'
_cell_volume   630.38353631
_cell_formula_units_Z   2
loop_
 _symmetry_equiv_pos_site_id
 _symmetry_equiv_pos_as_xyz
  1  'x, y, z'
loop_
 _atom_site_type_symbol
 _atom_site_label
 _atom_site_symmetry_multiplicity
 _atom_site_fract_x
 _atom_site_fract_y
 _atom_site_fract_z
 _atom_site_occupancy
  Tb  Tb0  1  0.442112  0.442112  0.057888  1
  Tb  Tb1  1  0.057888  0.057888  0.442112  1
  Tb  Tb2  1  0.183514  0.816486  0.816486  1
  Tb  Tb3  1  0.816486  0.183514  0.183514  1
  Tb  Tb4  1  0.812698  0.187302  0.812698  1
  Tb  Tb5  1  0.187302  0.812698  0.187302  1
  Tb  Tb6  1  0.812663  0.812663  0.187337  1
  Tb  Tb7  1  0.187337  0.187337  0.812663  1
  Tm  Tm8  1  0.442768  0.057232  0.442768  1
  Tm  Tm9  1  0.057232  0.442768  0.057232  1
  Th  Th10  1  0.595439  0.605089  0.603611  1
  Th  Th11  1  0.605089  0.595439  0.195862  1
  Th  Th12  1  0.603611  0.195862  0.595439  1
  Th  Th13  1  0.195862  0.603611  0.605089  1
  Th  Th14  1  0.063782  0.436218  0.436218  1
  Th  Th15  1  0.436218  0.063782  0.063782  1
  Zn  Zn16  1  0.832671  0.828286  0.829042  1
  Zn  Zn17  1  0.828286  0.832671  0.510000  1
  Zn  Zn18  1  0.829042  0.510000  0.832671  1
  Zn  Zn19  1  0.510000  0.829042  0.828286  1
  Ru  Ru20  1  0.379205  0.396822  0.399966  1
  Ru  Ru21  1  0.396822  0.379205  0.824008  1
  Ru  Ru22  1  0.399966  0.824008  0.379205  1
  Ru  Ru23  1  0.824008  0.399966  0.396822  1
