# generated using pymatgen
data_Li6CeHoUN6
_symmetry_space_group_name_H-M   'P 1'
_cell_length_a   6.08078300
_cell_length_b   6.08078414
_cell_length_c   5.45897200
_cell_angle_alpha   90.00000000
_cell_angle_beta   90.00000000
_cell_angle_gamma   120.00001013
_symmetry_Int_Tables_number   1
_chemical_formula_structural   Li6CeHoUN6
_chemical_formula_sum   'Li6 Ce1 Ho1 U1 N6'
_cell_volume   174.80769491
_cell_formula_units_Z   1
loop_
 _symmetry_equiv_pos_site_id
 _symmetry_equiv_pos_as_xyz
  1  'x, y, z'
loop_
 _atom_site_type_symbol
 _atom_site_label
 _atom_site_symmetry_multiplicity
 _atom_site_fract_x
 _atom_site_fract_y
 _atom_site_fract_z
 _atom_site_occupancy
  Li  Li0  1  0.979542  0.650251  0.604626  1
  Li  Li1  1  0.349749  0.329290  0.604626  1
  Li  Li2  1  0.670710  0.020458  0.604626  1
  Li  Li3  1  0.007388  0.335249  0.393356  1
  Li  Li4  1  0.664751  0.672138  0.393356  1
  Li  Li5  1  0.327862  0.992612  0.393356  1
  Ce  Ce6  1  0.333333  0.666667  0.993288  1
  Ho  Ho7  1  0.000000  0.000000  0.997667  1
  U  U8  1  0.666667  0.333333  0.006904  1
  N  N9  1  0.982310  0.648885  0.227198  1
  N  N10  1  0.351115  0.333425  0.227198  1
  N  N11  1  0.666575  0.017690  0.227198  1
  N  N12  1  0.978654  0.333490  0.775533  1
  N  N13  1  0.666510  0.645163  0.775533  1
  N  N14  1  0.354837  0.021346  0.775533  1
