# generated using pymatgen
data_Ce4Dy3Y(AlRu)8
_symmetry_space_group_name_H-M   'P 1'
_cell_length_a   3.98704000
_cell_length_b   7.22643110
_cell_length_c   16.05265466
_cell_angle_alpha   91.47902989
_cell_angle_beta   90.00000000
_cell_angle_gamma   90.00000000
_symmetry_Int_Tables_number   1
_chemical_formula_structural   Ce4Dy3Y(AlRu)8
_chemical_formula_sum   'Ce4 Dy3 Y1 Al8 Ru8'
_cell_volume   462.35611686
_cell_formula_units_Z   1
loop_
 _symmetry_equiv_pos_site_id
 _symmetry_equiv_pos_as_xyz
  1  'x, y, z'
loop_
 _atom_site_type_symbol
 _atom_site_label
 _atom_site_symmetry_multiplicity
 _atom_site_fract_x
 _atom_site_fract_y
 _atom_site_fract_z
 _atom_site_occupancy
  Ce  Ce0  1  0.750000  0.826207  0.438731  1
  Ce  Ce1  1  0.750000  0.459036  0.281103  1
  Ce  Ce2  1  0.750000  0.329898  0.061269  1
  Ce  Ce3  1  0.250000  0.539046  0.721221  1
  Dy  Dy4  1  0.250000  0.164518  0.562614  1
  Dy  Dy5  1  0.250000  0.664833  0.937831  1
  Dy  Dy6  1  0.250000  0.041857  0.781662  1
  Y  Y7  1  0.750000  0.962734  0.218367  1
  Al  Al8  1  0.750000  0.498124  0.562575  1
  Al  Al9  1  0.750000  0.364099  0.853598  1
  Al  Al10  1  0.750000  0.990280  0.934485  1
  Al  Al11  1  0.750000  0.874422  0.650932  1
  Al  Al12  1  0.250000  0.488132  0.438312  1
  Al  Al13  1  0.250000  0.993058  0.065057  1
  Al  Al14  1  0.250000  0.640648  0.152459  1
  Al  Al15  1  0.250000  0.125115  0.345746  1
  Ru  Ru16  1  0.750000  0.734556  0.806097  1
  Ru  Ru17  1  0.250000  0.233692  0.940623  1
  Ru  Ru18  1  0.750000  0.263780  0.427530  1
  Ru  Ru19  1  0.250000  0.749832  0.324781  1
  Ru  Ru20  1  0.750000  0.764369  0.065330  1
  Ru  Ru21  1  0.750000  0.271257  0.688078  1
  Ru  Ru22  1  0.250000  0.276182  0.179786  1
  Ru  Ru23  1  0.250000  0.744326  0.561813  1
