# generated using pymatgen
data_Yb6Al24Os3Pd5
_symmetry_space_group_name_H-M   'P 1'
_cell_length_a   8.92141042
_cell_length_b   8.89001590
_cell_length_c   9.58247861
_cell_angle_alpha   90.00000135
_cell_angle_beta   89.70989011
_cell_angle_gamma   119.88366701
_symmetry_Int_Tables_number   1
_chemical_formula_structural   Yb6Al24Os3Pd5
_chemical_formula_sum   'Yb6 Al24 Os3 Pd5'
_cell_volume   658.93875315
_cell_formula_units_Z   1
loop_
 _symmetry_equiv_pos_site_id
 _symmetry_equiv_pos_as_xyz
  1  'x, y, z'
loop_
 _atom_site_type_symbol
 _atom_site_label
 _atom_site_symmetry_multiplicity
 _atom_site_fract_x
 _atom_site_fract_y
 _atom_site_fract_z
 _atom_site_occupancy
  Yb  Yb0  1  0.191042  0.386759  0.252164  1
  Yb  Yb1  1  0.808958  0.613241  0.747836  1
  Yb  Yb2  1  0.616481  0.808241  0.251585  1
  Yb  Yb3  1  0.383519  0.191759  0.748415  1
  Yb  Yb4  1  0.191042  0.804284  0.252164  1
  Yb  Yb5  1  0.808958  0.195716  0.747836  1
  Al  Al6  1  0.333532  0.666767  0.010201  1
  Al  Al7  1  0.666468  0.333233  0.989799  1
  Al  Al8  1  0.671734  0.335867  0.510451  1
  Al  Al9  1  0.328266  0.664133  0.489549  1
  Al  Al10  1  0.155767  0.322739  0.579109  1
  Al  Al11  1  0.844233  0.677261  0.420891  1
  Al  Al12  1  0.678663  0.839332  0.580202  1
  Al  Al13  1  0.839119  0.678655  0.081905  1
  Al  Al14  1  0.321337  0.160668  0.419798  1
  Al  Al15  1  0.160881  0.321345  0.918095  1
  Al  Al16  1  0.155767  0.833029  0.579109  1
  Al  Al17  1  0.320329  0.160164  0.080983  1
  Al  Al18  1  0.844233  0.166971  0.420891  1
  Al  Al19  1  0.679671  0.839836  0.919017  1
  Al  Al20  1  0.839119  0.160463  0.081905  1
  Al  Al21  1  0.160881  0.839537  0.918095  1
  Al  Al22  1  0.563544  0.125827  0.249847  1
  Al  Al23  1  0.436456  0.874173  0.750153  1
  Al  Al24  1  0.876070  0.438035  0.252028  1
  Al  Al25  1  0.123930  0.561965  0.747972  1
  Al  Al26  1  0.563544  0.437716  0.249847  1
  Al  Al27  1  0.436456  0.562284  0.750153  1
  Al  Al28  1  0.999293  0.999646  0.250249  1
  Al  Al29  1  0.000707  0.000354  0.749751  1
  Os  Os30  1  0.000000  0.500000  0.500000  1
  Os  Os31  1  0.000000  0.000000  0.000000  1
  Os  Os32  1  0.000000  0.000000  0.500000  1
  Pd  Pd33  1  0.500000  0.000000  0.000000  1
  Pd  Pd34  1  0.000000  0.500000  0.000000  1
  Pd  Pd35  1  0.500000  0.000000  0.500000  1
  Pd  Pd36  1  0.500000  0.500000  0.000000  1
  Pd  Pd37  1  0.500000  0.500000  0.500000  1
