# generated using pymatgen
data_Dy8SbPd19Pt5
_symmetry_space_group_name_H-M   'P 1'
_cell_length_a   8.38993600
_cell_length_b   8.37873000
_cell_length_c   8.39326600
_cell_angle_alpha   90.00000000
_cell_angle_beta   90.00000000
_cell_angle_gamma   90.00000000
_symmetry_Int_Tables_number   1
_chemical_formula_structural   Dy8SbPd19Pt5
_chemical_formula_sum   'Dy8 Sb1 Pd19 Pt5'
_cell_volume   590.02149102
_cell_formula_units_Z   1
loop_
 _symmetry_equiv_pos_site_id
 _symmetry_equiv_pos_as_xyz
  1  'x, y, z'
loop_
 _atom_site_type_symbol
 _atom_site_label
 _atom_site_symmetry_multiplicity
 _atom_site_fract_x
 _atom_site_fract_y
 _atom_site_fract_z
 _atom_site_occupancy
  Dy  Dy0  1  0.745691  0.745777  0.253921  1
  Dy  Dy1  1  0.745691  0.254223  0.746079  1
  Dy  Dy2  1  0.254348  0.744779  0.745287  1
  Dy  Dy3  1  0.745691  0.745777  0.746079  1
  Dy  Dy4  1  0.745691  0.254223  0.253921  1
  Dy  Dy5  1  0.254348  0.255221  0.745287  1
  Dy  Dy6  1  0.254348  0.744779  0.254713  1
  Dy  Dy7  1  0.254348  0.255221  0.254713  1
  Sb  Sb8  1  0.999706  0.000000  0.000000  1
  Pd  Pd9  1  0.000337  0.000000  0.304723  1
  Pd  Pd10  1  0.499712  0.000000  0.736001  1
  Pd  Pd11  1  0.000018  0.736233  0.500000  1
  Pd  Pd12  1  0.499712  0.000000  0.263999  1
  Pd  Pd13  1  0.000018  0.263767  0.500000  1
  Pd  Pd14  1  0.499647  0.736507  0.000000  1
  Pd  Pd15  1  0.500258  0.253670  0.500000  1
  Pd  Pd16  1  0.500258  0.746330  0.500000  1
  Pd  Pd17  1  0.745818  0.500000  0.500000  1
  Pd  Pd18  1  0.304799  0.000000  0.000000  1
  Pd  Pd19  1  0.000337  0.000000  0.695277  1
  Pd  Pd20  1  0.000016  0.500000  0.264180  1
  Pd  Pd21  1  0.000281  0.304929  0.000000  1
  Pd  Pd22  1  0.000281  0.695071  0.000000  1
  Pd  Pd23  1  0.694657  0.000000  0.000000  1
  Pd  Pd24  1  0.263715  0.500000  0.000000  1
  Pd  Pd25  1  0.263483  0.000000  0.500000  1
  Pd  Pd26  1  0.000016  0.500000  0.735820  1
  Pd  Pd27  1  0.499647  0.263493  0.000000  1
  Pt  Pt28  1  0.736523  0.000000  0.500000  1
  Pt  Pt29  1  0.736171  0.500000  0.000000  1
  Pt  Pt30  1  0.254298  0.500000  0.500000  1
  Pt  Pt31  1  0.500065  0.500000  0.746296  1
  Pt  Pt32  1  0.500065  0.500000  0.253704  1
