# generated using pymatgen
data_Lu4Sc4B24IrRh3
_symmetry_space_group_name_H-M   'P 1'
_cell_length_a   3.52099000
_cell_length_b   8.96614543
_cell_length_c   11.29997355
_cell_angle_alpha   89.96439583
_cell_angle_beta   90.00000000
_cell_angle_gamma   90.00000000
_symmetry_Int_Tables_number   1
_chemical_formula_structural   Lu4Sc4B24IrRh3
_chemical_formula_sum   'Lu4 Sc4 B24 Ir1 Rh3'
_cell_volume   356.73680096
_cell_formula_units_Z   1
loop_
 _symmetry_equiv_pos_site_id
 _symmetry_equiv_pos_as_xyz
  1  'x, y, z'
loop_
 _atom_site_type_symbol
 _atom_site_label
 _atom_site_symmetry_multiplicity
 _atom_site_fract_x
 _atom_site_fract_y
 _atom_site_fract_z
 _atom_site_occupancy
  Lu  Lu0  1  0.500000  0.319374  0.413784  1
  Lu  Lu1  1  0.500000  0.680290  0.586776  1
  Lu  Lu2  1  0.500000  0.180071  0.913753  1
  Lu  Lu3  1  0.500000  0.820139  0.085803  1
  Sc  Sc4  1  0.500000  0.444409  0.124470  1
  Sc  Sc5  1  0.500000  0.555435  0.875170  1
  Sc  Sc6  1  0.500000  0.055334  0.624845  1
  Sc  Sc7  1  0.500000  0.945027  0.375337  1
  B  B8  1  0.000000  0.101415  0.472431  1
  B  B9  1  0.000000  0.898638  0.527539  1
  B  B10  1  0.000000  0.398423  0.972414  1
  B  B11  1  0.000000  0.601455  0.027567  1
  B  B12  1  0.000000  0.130915  0.318534  1
  B  B13  1  0.000000  0.869136  0.681671  1
  B  B14  1  0.000000  0.369439  0.818389  1
  B  B15  1  0.000000  0.630488  0.181499  1
  B  B16  1  0.000000  0.054219  0.064616  1
  B  B17  1  0.000000  0.945653  0.935337  1
  B  B18  1  0.000000  0.445564  0.564827  1
  B  B19  1  0.000000  0.554294  0.435239  1
  B  B20  1  0.000000  0.480886  0.285863  1
  B  B21  1  0.000000  0.519082  0.714052  1
  B  B22  1  0.000000  0.018994  0.785955  1
  B  B23  1  0.000000  0.981138  0.213927  1
  B  B24  1  0.000000  0.253232  0.079288  1
  B  B25  1  0.000000  0.746828  0.920778  1
  B  B26  1  0.000000  0.246647  0.579237  1
  B  B27  1  0.000000  0.753462  0.420828  1
  B  B28  1  0.000000  0.295896  0.236223  1
  B  B29  1  0.000000  0.703849  0.763773  1
  B  B30  1  0.000000  0.203831  0.736143  1
  B  B31  1  0.000000  0.796189  0.263994  1
  Ir  Ir32  1  0.500000  0.641243  0.319191  1
  Rh  Rh33  1  0.500000  0.141109  0.181090  1
  Rh  Rh34  1  0.500000  0.858751  0.818984  1
  Rh  Rh35  1  0.500000  0.359147  0.680671  1
