# generated using pymatgen
data_HoHfP7Ru12
_symmetry_space_group_name_H-M   'P 1'
_cell_length_a   9.39052300
_cell_length_b   9.39052271
_cell_length_c   3.91547700
_cell_angle_alpha   90.00000000
_cell_angle_beta   90.00000000
_cell_angle_gamma   119.99999657
_symmetry_Int_Tables_number   1
_chemical_formula_structural   HoHfP7Ru12
_chemical_formula_sum   'Ho1 Hf1 P7 Ru12'
_cell_volume   299.01630589
_cell_formula_units_Z   1
loop_
 _symmetry_equiv_pos_site_id
 _symmetry_equiv_pos_as_xyz
  1  'x, y, z'
loop_
 _atom_site_type_symbol
 _atom_site_label
 _atom_site_symmetry_multiplicity
 _atom_site_fract_x
 _atom_site_fract_y
 _atom_site_fract_z
 _atom_site_occupancy
  Ho  Ho0  1  0.333333  0.666667  0.000000  1
  Hf  Hf1  1  0.666667  0.333333  0.500000  1
  P  P2  1  0.599009  0.719365  0.500000  1
  P  P3  1  0.000000  0.000000  0.000000  1
  P  P4  1  0.280635  0.879645  0.500000  1
  P  P5  1  0.120355  0.400991  0.500000  1
  P  P6  1  0.884773  0.573382  0.000000  1
  P  P7  1  0.426618  0.311390  0.000000  1
  P  P8  1  0.688610  0.115227  0.000000  1
  Ru  Ru9  1  0.556916  0.953378  0.500000  1
  Ru  Ru10  1  0.396463  0.443084  0.500000  1
  Ru  Ru11  1  0.913509  0.123071  0.500000  1
  Ru  Ru12  1  0.209562  0.086491  0.500000  1
  Ru  Ru13  1  0.876929  0.790438  0.500000  1
  Ru  Ru14  1  0.726449  0.889935  0.000000  1
  Ru  Ru15  1  0.110065  0.836513  0.000000  1
  Ru  Ru16  1  0.163487  0.273551  0.000000  1
  Ru  Ru17  1  0.429249  0.074132  0.000000  1
  Ru  Ru18  1  0.925868  0.355119  0.000000  1
  Ru  Ru19  1  0.644881  0.570751  0.000000  1
  Ru  Ru20  1  0.046622  0.603537  0.500000  1
