# generated using pymatgen
data_La3ErH12
_symmetry_space_group_name_H-M   'P 1'
_cell_length_a   6.92549200
_cell_length_b   6.92549200
_cell_length_c   6.92549200
_cell_angle_alpha   90.00000000
_cell_angle_beta   90.00000000
_cell_angle_gamma   90.00000000
_symmetry_Int_Tables_number   1
_chemical_formula_structural   La3ErH12
_chemical_formula_sum   'La6 Er2 H24'
_cell_volume   332.16349066
_cell_formula_units_Z   2
loop_
 _symmetry_equiv_pos_site_id
 _symmetry_equiv_pos_as_xyz
  1  'x, y, z'
loop_
 _atom_site_type_symbol
 _atom_site_label
 _atom_site_symmetry_multiplicity
 _atom_site_fract_x
 _atom_site_fract_y
 _atom_site_fract_z
 _atom_site_occupancy
  La  La0  1  0.250000  0.000000  0.500000  1
  La  La1  1  0.750000  0.000000  0.500000  1
  La  La2  1  0.000000  0.500000  0.250000  1
  La  La3  1  0.000000  0.500000  0.750000  1
  La  La4  1  0.500000  0.750000  0.000000  1
  La  La5  1  0.500000  0.250000  0.000000  1
  Er  Er6  1  0.000000  0.000000  0.000000  1
  Er  Er7  1  0.500000  0.500000  0.500000  1
  H  H8  1  0.000000  0.152226  0.296609  1
  H  H9  1  0.500000  0.203391  0.652226  1
  H  H10  1  0.500000  0.796609  0.347774  1
  H  H11  1  0.796609  0.652226  0.500000  1
  H  H12  1  0.203391  0.652226  0.500000  1
  H  H13  1  0.347774  0.500000  0.796609  1
  H  H14  1  0.652226  0.500000  0.796609  1
  H  H15  1  0.296609  0.000000  0.152226  1
  H  H16  1  0.152226  0.296609  0.000000  1
  H  H17  1  0.847774  0.703391  0.000000  1
  H  H18  1  0.296609  0.000000  0.847774  1
  H  H19  1  0.847774  0.296609  0.000000  1
  H  H20  1  0.703391  0.000000  0.152226  1
  H  H21  1  0.703391  0.000000  0.847774  1
  H  H22  1  0.152226  0.703391  0.000000  1
  H  H23  1  0.000000  0.847774  0.703391  1
  H  H24  1  0.000000  0.152226  0.703391  1
  H  H25  1  0.000000  0.847774  0.296609  1
  H  H26  1  0.652226  0.500000  0.203391  1
  H  H27  1  0.347774  0.500000  0.203391  1
  H  H28  1  0.796609  0.347774  0.500000  1
  H  H29  1  0.203391  0.347774  0.500000  1
  H  H30  1  0.500000  0.796609  0.652226  1
  H  H31  1  0.500000  0.203391  0.347774  1
