# generated using pymatgen
data_Pr3Al12TcRh3
_symmetry_space_group_name_H-M   'P 1'
_cell_length_a   8.95600100
_cell_length_b   8.95599905
_cell_length_c   9.71750100
_cell_angle_alpha   90.00000000
_cell_angle_beta   90.00000000
_cell_angle_gamma   119.99999611
_symmetry_Int_Tables_number   1
_chemical_formula_structural   Pr3Al12TcRh3
_chemical_formula_sum   'Pr6 Al24 Tc2 Rh6'
_cell_volume   675.01498660
_cell_formula_units_Z   2
loop_
 _symmetry_equiv_pos_site_id
 _symmetry_equiv_pos_as_xyz
  1  'x, y, z'
loop_
 _atom_site_type_symbol
 _atom_site_label
 _atom_site_symmetry_multiplicity
 _atom_site_fract_x
 _atom_site_fract_y
 _atom_site_fract_z
 _atom_site_occupancy
  Pr  Pr0  1  0.190560  0.381119  0.250000  1
  Pr  Pr1  1  0.809440  0.618881  0.750000  1
  Pr  Pr2  1  0.618881  0.809440  0.250000  1
  Pr  Pr3  1  0.381119  0.190560  0.750000  1
  Pr  Pr4  1  0.190560  0.809440  0.250000  1
  Pr  Pr5  1  0.809440  0.190560  0.750000  1
  Al  Al6  1  0.333333  0.666667  0.018393  1
  Al  Al7  1  0.666667  0.333333  0.981607  1
  Al  Al8  1  0.666667  0.333333  0.518393  1
  Al  Al9  1  0.333333  0.666667  0.481607  1
  Al  Al10  1  0.162882  0.325764  0.574373  1
  Al  Al11  1  0.837118  0.674236  0.425627  1
  Al  Al12  1  0.674236  0.837118  0.574373  1
  Al  Al13  1  0.837118  0.674236  0.074373  1
  Al  Al14  1  0.325764  0.162882  0.425627  1
  Al  Al15  1  0.162882  0.325764  0.925627  1
  Al  Al16  1  0.162882  0.837118  0.574373  1
  Al  Al17  1  0.325764  0.162882  0.074373  1
  Al  Al18  1  0.837118  0.162882  0.425627  1
  Al  Al19  1  0.674236  0.837118  0.925627  1
  Al  Al20  1  0.837118  0.162882  0.074373  1
  Al  Al21  1  0.162882  0.837118  0.925627  1
  Al  Al22  1  0.564320  0.128641  0.250000  1
  Al  Al23  1  0.435680  0.871359  0.750000  1
  Al  Al24  1  0.871359  0.435680  0.250000  1
  Al  Al25  1  0.128641  0.564320  0.750000  1
  Al  Al26  1  0.564320  0.435680  0.250000  1
  Al  Al27  1  0.435680  0.564320  0.750000  1
  Al  Al28  1  0.000000  0.000000  0.250000  1
  Al  Al29  1  0.000000  0.000000  0.750000  1
  Tc  Tc30  1  0.000000  0.000000  0.000000  1
  Tc  Tc31  1  0.000000  0.000000  0.500000  1
  Rh  Rh32  1  0.500000  0.000000  0.000000  1
  Rh  Rh33  1  0.000000  0.500000  0.000000  1
  Rh  Rh34  1  0.500000  0.000000  0.500000  1
  Rh  Rh35  1  0.500000  0.500000  0.000000  1
  Rh  Rh36  1  0.000000  0.500000  0.500000  1
  Rh  Rh37  1  0.500000  0.500000  0.500000  1
