# generated using pymatgen
data_YZn6(Ga2Cu)2
_symmetry_space_group_name_H-M   'P 1'
_cell_length_a   6.73197235
_cell_length_b   6.73659811
_cell_length_c   6.73659800
_cell_angle_alpha   98.73937160
_cell_angle_beta   99.06670678
_cell_angle_gamma   133.71392829
_symmetry_Int_Tables_number   1
_chemical_formula_structural   YZn6(Ga2Cu)2
_chemical_formula_sum   'Y1 Zn6 Ga4 Cu2'
_cell_volume   202.98003119
_cell_formula_units_Z   1
loop_
 _symmetry_equiv_pos_site_id
 _symmetry_equiv_pos_as_xyz
  1  'x, y, z'
loop_
 _atom_site_type_symbol
 _atom_site_label
 _atom_site_symmetry_multiplicity
 _atom_site_fract_x
 _atom_site_fract_y
 _atom_site_fract_z
 _atom_site_occupancy
  Y  Y0  1  0.000000  0.000000  0.000000  1
  Zn  Zn1  1  0.000000  0.000000  0.500000  1
  Zn  Zn2  1  0.000000  0.500000  0.000000  1
  Zn  Zn3  1  0.500000  0.287019  0.787019  1
  Zn  Zn4  1  0.500000  0.712981  0.212981  1
  Zn  Zn5  1  0.704288  0.491994  0.212294  1
  Zn  Zn6  1  0.295712  0.508006  0.787706  1
  Ga  Ga7  1  0.000000  0.349613  0.349613  1
  Ga  Ga8  1  0.000000  0.650387  0.650387  1
  Ga  Ga9  1  0.634154  0.984189  0.649966  1
  Ga  Ga10  1  0.365846  0.015811  0.350034  1
  Cu  Cu11  1  0.500000  0.500000  0.500000  1
  Cu  Cu12  1  0.500000  0.000000  0.000000  1
