# generated using pymatgen
data_Ho16In4RuPt3
_symmetry_space_group_name_H-M   'P 1'
_cell_length_a   9.66449751
_cell_length_b   9.66449676
_cell_length_c   9.66449587
_cell_angle_alpha   59.96764380
_cell_angle_beta   59.96764562
_cell_angle_gamma   59.96764237
_symmetry_Int_Tables_number   1
_chemical_formula_structural   Ho16In4RuPt3
_chemical_formula_sum   'Ho16 In4 Ru1 Pt3'
_cell_volume   637.82854786
_cell_formula_units_Z   1
loop_
 _symmetry_equiv_pos_site_id
 _symmetry_equiv_pos_as_xyz
  1  'x, y, z'
loop_
 _atom_site_type_symbol
 _atom_site_label
 _atom_site_symmetry_multiplicity
 _atom_site_fract_x
 _atom_site_fract_y
 _atom_site_fract_z
 _atom_site_occupancy
  Ho  Ho0  1  0.601057  0.601057  0.601057  1
  Ho  Ho1  1  0.598098  0.598098  0.200871  1
  Ho  Ho2  1  0.598098  0.200871  0.598098  1
  Ho  Ho3  1  0.200871  0.598098  0.598098  1
  Ho  Ho4  1  0.065543  0.438979  0.438979  1
  Ho  Ho5  1  0.440701  0.059467  0.059467  1
  Ho  Ho6  1  0.438979  0.065543  0.438979  1
  Ho  Ho7  1  0.059467  0.440701  0.059467  1
  Ho  Ho8  1  0.438979  0.438979  0.065543  1
  Ho  Ho9  1  0.059467  0.059467  0.440701  1
  Ho  Ho10  1  0.186432  0.812689  0.812689  1
  Ho  Ho11  1  0.808934  0.188667  0.188667  1
  Ho  Ho12  1  0.812689  0.186432  0.812689  1
  Ho  Ho13  1  0.188667  0.808934  0.188667  1
  Ho  Ho14  1  0.812689  0.812689  0.186432  1
  Ho  Ho15  1  0.188667  0.188667  0.808934  1
  In  In16  1  0.833563  0.833563  0.833563  1
  In  In17  1  0.832936  0.832936  0.500635  1
  In  In18  1  0.832936  0.500635  0.832936  1
  In  In19  1  0.500635  0.832936  0.832936  1
  Ru  Ru20  1  0.392155  0.392155  0.392155  1
  Pt  Pt21  1  0.392765  0.392765  0.822905  1
  Pt  Pt22  1  0.392765  0.822905  0.392765  1
  Pt  Pt23  1  0.822905  0.392765  0.392765  1
