# generated using pymatgen
data_DyLu(BiRh)2
_symmetry_space_group_name_H-M   'P 1'
_cell_length_a   4.69465000
_cell_length_b   6.65456800
_cell_length_c   9.36611800
_cell_angle_alpha   90.00000000
_cell_angle_beta   90.00000000
_cell_angle_gamma   90.00000000
_symmetry_Int_Tables_number   1
_chemical_formula_structural   DyLu(BiRh)2
_chemical_formula_sum   'Dy2 Lu2 Bi4 Rh4'
_cell_volume   292.60565294
_cell_formula_units_Z   2
loop_
 _symmetry_equiv_pos_site_id
 _symmetry_equiv_pos_as_xyz
  1  'x, y, z'
loop_
 _atom_site_type_symbol
 _atom_site_label
 _atom_site_symmetry_multiplicity
 _atom_site_fract_x
 _atom_site_fract_y
 _atom_site_fract_z
 _atom_site_occupancy
  Dy  Dy0  1  0.500002  0.495247  0.124805  1
  Dy  Dy1  1  0.000000  0.995246  0.875194  1
  Lu  Lu2  1  0.000000  0.004253  0.374723  1
  Lu  Lu3  1  0.500002  0.504252  0.625277  1
  Bi  Bi4  1  0.500002  0.996854  0.127751  1
  Bi  Bi5  1  0.000000  0.501033  0.377398  1
  Bi  Bi6  1  0.500002  0.001032  0.622600  1
  Bi  Bi7  1  0.000000  0.496855  0.872248  1
  Rh  Rh8  1  0.000000  0.750631  0.128154  1
  Rh  Rh9  1  0.500002  0.251977  0.378279  1
  Rh  Rh10  1  0.000000  0.751976  0.621721  1
  Rh  Rh11  1  0.500002  0.250632  0.871845  1
