# generated using pymatgen
data_Ce4P(PtRh2)4
_symmetry_space_group_name_H-M   'P 1'
_cell_length_a   7.25262055
_cell_length_b   7.24906442
_cell_length_c   7.25262167
_cell_angle_alpha   109.06635781
_cell_angle_beta   110.30356954
_cell_angle_gamma   109.06636842
_symmetry_Int_Tables_number   1
_chemical_formula_structural   Ce4P(PtRh2)4
_chemical_formula_sum   'Ce4 P1 Pt4 Rh8'
_cell_volume   293.41200635
_cell_formula_units_Z   1
loop_
 _symmetry_equiv_pos_site_id
 _symmetry_equiv_pos_as_xyz
  1  'x, y, z'
loop_
 _atom_site_type_symbol
 _atom_site_label
 _atom_site_symmetry_multiplicity
 _atom_site_fract_x
 _atom_site_fract_y
 _atom_site_fract_z
 _atom_site_occupancy
  Ce  Ce0  1  0.997019  0.994039  0.497019  1
  Ce  Ce1  1  0.010284  0.506740  0.010284  1
  Ce  Ce2  1  0.497019  0.994039  0.997019  1
  Ce  Ce3  1  0.496456  0.506740  0.496456  1
  P  P4  1  0.000136  0.000272  0.000136  1
  Pt  Pt5  1  0.750104  0.250948  0.500844  1
  Pt  Pt6  1  0.749426  0.498854  0.249426  1
  Pt  Pt7  1  0.500844  0.250948  0.750104  1
  Pt  Pt8  1  0.249426  0.498854  0.749426  1
  Rh  Rh9  1  0.249205  0.749756  0.500551  1
  Rh  Rh10  1  0.500551  0.749756  0.249205  1
  Rh  Rh11  1  0.729813  0.728938  0.999125  1
  Rh  Rh12  1  0.273393  0.001619  0.273393  1
  Rh  Rh13  1  0.998570  0.268971  0.270401  1
  Rh  Rh14  1  0.270401  0.268971  0.998570  1
  Rh  Rh15  1  0.728226  0.001619  0.728226  1
  Rh  Rh16  1  0.999125  0.728938  0.729813  1
