# generated using pymatgen
data_Be6Co11Si6Os
_symmetry_space_group_name_H-M   'P 1'
_cell_length_a   3.81451500
_cell_length_b   5.43416200
_cell_length_c   11.46256000
_cell_angle_alpha   89.99881919
_cell_angle_beta   89.99970984
_cell_angle_gamma   89.99970825
_symmetry_Int_Tables_number   1
_chemical_formula_structural   Be6Co11Si6Os
_chemical_formula_sum   'Be6 Co11 Si6 Os1'
_cell_volume   237.60388103
_cell_formula_units_Z   1
loop_
 _symmetry_equiv_pos_site_id
 _symmetry_equiv_pos_as_xyz
  1  'x, y, z'
loop_
 _atom_site_type_symbol
 _atom_site_label
 _atom_site_symmetry_multiplicity
 _atom_site_fract_x
 _atom_site_fract_y
 _atom_site_fract_z
 _atom_site_occupancy
  Be  Be0  1  0.000001  0.511825  0.999970  1
  Be  Be1  1  0.499841  0.995891  0.171291  1
  Be  Be2  1  0.999862  0.498972  0.334824  1
  Be  Be3  1  0.500002  0.001299  0.499987  1
  Be  Be4  1  0.000146  0.498958  0.665207  1
  Be  Be5  1  0.500125  0.995840  0.828703  1
  Co  Co6  1  0.500007  0.747267  0.999962  1
  Co  Co7  1  0.999925  0.250113  0.173014  1
  Co  Co8  1  0.999890  0.749514  0.171009  1
  Co  Co9  1  0.499910  0.250520  0.336652  1
  Co  Co10  1  0.499901  0.751510  0.336094  1
  Co  Co11  1  0.000004  0.250853  0.500011  1
  Co  Co12  1  0.000001  0.750322  0.500012  1
  Co  Co13  1  0.500103  0.250492  0.663359  1
  Co  Co14  1  0.500108  0.751575  0.663939  1
  Co  Co15  1  0.000069  0.250107  0.826997  1
  Co  Co16  1  0.000087  0.749515  0.828997  1
  Si  Si17  1  0.999998  0.986271  0.999973  1
  Si  Si18  1  0.499890  0.503802  0.171680  1
  Si  Si19  1  0.999892  0.001057  0.334961  1
  Si  Si20  1  0.499999  0.500623  0.500026  1
  Si  Si21  1  0.000134  0.001060  0.665056  1
  Si  Si22  1  0.500097  0.503883  0.828312  1
  Os  Os23  1  0.500016  0.248724  0.999966  1
