# generated using pymatgen
data_TmZrMn2Fe10P7
_symmetry_space_group_name_H-M   'P 1'
_cell_length_a   8.94255100
_cell_length_b   8.94434855
_cell_length_c   3.59790600
_cell_angle_alpha   90.00000000
_cell_angle_beta   90.00000000
_cell_angle_gamma   119.99143522
_symmetry_Int_Tables_number   1
_chemical_formula_structural   TmZrMn2Fe10P7
_chemical_formula_sum   'Tm1 Zr1 Mn2 Fe10 P7'
_cell_volume   249.24592119
_cell_formula_units_Z   1
loop_
 _symmetry_equiv_pos_site_id
 _symmetry_equiv_pos_as_xyz
  1  'x, y, z'
loop_
 _atom_site_type_symbol
 _atom_site_label
 _atom_site_symmetry_multiplicity
 _atom_site_fract_x
 _atom_site_fract_y
 _atom_site_fract_z
 _atom_site_occupancy
  Tm  Tm0  1  0.666813  0.334724  0.500000  1
  Zr  Zr1  1  0.998343  0.997405  0.000000  1
  Mn  Mn2  1  0.438843  0.887363  0.500000  1
  Mn  Mn3  1  0.113603  0.547637  0.500000  1
  Fe  Fe4  1  0.702686  0.610380  0.000000  1
  Fe  Fe5  1  0.389358  0.094703  0.000000  1
  Fe  Fe6  1  0.906668  0.295871  0.000000  1
  Fe  Fe7  1  0.213218  0.390898  0.000000  1
  Fe  Fe8  1  0.609497  0.823044  0.000000  1
  Fe  Fe9  1  0.179076  0.787014  0.000000  1
  Fe  Fe10  1  0.278900  0.229831  0.500000  1
  Fe  Fe11  1  0.770881  0.047651  0.500000  1
  Fe  Fe12  1  0.950076  0.721796  0.500000  1
  Fe  Fe13  1  0.451796  0.568467  0.500000  1
  P  P14  1  0.447013  0.369343  0.000000  1
  P  P15  1  0.634692  0.082194  0.000000  1
  P  P16  1  0.918944  0.553887  0.000000  1
  P  P17  1  0.041822  0.254746  0.500000  1
  P  P18  1  0.736350  0.779171  0.500000  1
  P  P19  1  0.215676  0.958107  0.500000  1
  P  P20  1  0.335741  0.665769  0.000000  1
