# generated using pymatgen
data_PrY2(ZnPt)4
_symmetry_space_group_name_H-M   'P 1'
_cell_length_a   8.28543286
_cell_length_b   8.28543276
_cell_length_c   8.28543164
_cell_angle_alpha   151.63533456
_cell_angle_beta   125.95762699
_cell_angle_gamma   62.15193198
_symmetry_Int_Tables_number   1
_chemical_formula_structural   PrY2(ZnPt)4
_chemical_formula_sum   'Pr1 Y2 Zn4 Pt4'
_cell_volume   216.90395517
_cell_formula_units_Z   1
loop_
 _symmetry_equiv_pos_site_id
 _symmetry_equiv_pos_as_xyz
  1  'x, y, z'
loop_
 _atom_site_type_symbol
 _atom_site_label
 _atom_site_symmetry_multiplicity
 _atom_site_fract_x
 _atom_site_fract_y
 _atom_site_fract_z
 _atom_site_occupancy
  Pr  Pr0  1  0.500000  0.000000  0.500000  1
  Y  Y1  1  0.874340  0.874340  0.000000  1
  Y  Y2  1  0.125660  0.125660  0.000000  1
  Zn  Zn3  1  0.476928  0.674043  0.802886  1
  Zn  Zn4  1  0.871158  0.674043  0.197114  1
  Zn  Zn5  1  0.128842  0.325957  0.802886  1
  Zn  Zn6  1  0.523072  0.325957  0.197114  1
  Pt  Pt7  1  0.277235  0.777235  0.500000  1
  Pt  Pt8  1  0.722765  0.222765  0.500000  1
  Pt  Pt9  1  0.810020  0.500000  0.310020  1
  Pt  Pt10  1  0.189980  0.500000  0.689980  1
