# generated using pymatgen
data_ErTm2Ga3Ge2Rh
_symmetry_space_group_name_H-M   'P 1'
_cell_length_a   6.93306600
_cell_length_b   6.93638946
_cell_length_c   4.17413500
_cell_angle_alpha   90.00000000
_cell_angle_beta   90.00000000
_cell_angle_gamma   119.98416118
_symmetry_Int_Tables_number   1
_chemical_formula_structural   ErTm2Ga3Ge2Rh
_chemical_formula_sum   'Er1 Tm2 Ga3 Ge2 Rh1'
_cell_volume   173.87022621
_cell_formula_units_Z   1
loop_
 _symmetry_equiv_pos_site_id
 _symmetry_equiv_pos_as_xyz
  1  'x, y, z'
loop_
 _atom_site_type_symbol
 _atom_site_label
 _atom_site_symmetry_multiplicity
 _atom_site_fract_x
 _atom_site_fract_y
 _atom_site_fract_z
 _atom_site_occupancy
  Er  Er0  1  0.410162  0.000000  0.000000  1
  Tm  Tm1  1  0.000119  0.409863  0.000000  1
  Tm  Tm2  1  0.590257  0.590138  0.000000  1
  Ga  Ga3  1  0.765347  0.000000  0.500001  1
  Ga  Ga4  1  0.234733  0.234834  0.500001  1
  Ga  Ga5  1  0.999899  0.765166  0.500001  1
  Ge  Ge6  1  0.667001  0.333831  0.500001  1
  Ge  Ge7  1  0.333170  0.666169  0.500001  1
  Rh  Rh8  1  0.999312  0.000000  0.000000  1
