# generated using pymatgen
data_Er5TlCd2InPd2
_symmetry_space_group_name_H-M   'P 1'
_cell_length_a   3.60913300
_cell_length_b   8.01466405
_cell_length_c   18.28777897
_cell_angle_alpha   89.89997604
_cell_angle_beta   90.00000000
_cell_angle_gamma   90.00000000
_symmetry_Int_Tables_number   1
_chemical_formula_structural   Er5TlCd2InPd2
_chemical_formula_sum   'Er10 Tl2 Cd4 In2 Pd4'
_cell_volume   528.99127833
_cell_formula_units_Z   2
loop_
 _symmetry_equiv_pos_site_id
 _symmetry_equiv_pos_as_xyz
  1  'x, y, z'
loop_
 _atom_site_type_symbol
 _atom_site_label
 _atom_site_symmetry_multiplicity
 _atom_site_fract_x
 _atom_site_fract_y
 _atom_site_fract_z
 _atom_site_occupancy
  Er  Er0  1  0.000000  0.500000  0.500000  1
  Er  Er1  1  0.000000  0.000000  0.000000  1
  Er  Er2  1  0.000000  0.745747  0.279505  1
  Er  Er3  1  0.000000  0.254253  0.720495  1
  Er  Er4  1  0.000000  0.754363  0.780049  1
  Er  Er5  1  0.000000  0.245637  0.219951  1
  Er  Er6  1  0.000000  0.615802  0.084230  1
  Er  Er7  1  0.000000  0.384198  0.915770  1
  Er  Er8  1  0.000000  0.885693  0.584622  1
  Er  Er9  1  0.000000  0.114307  0.415378  1
  Tl  Tl10  1  0.500000  0.572025  0.646250  1
  Tl  Tl11  1  0.500000  0.427975  0.353750  1
  Cd  Cd12  1  0.500000  0.711608  0.931736  1
  Cd  Cd13  1  0.500000  0.288392  0.068264  1
  Cd  Cd14  1  0.500000  0.791666  0.432325  1
  Cd  Cd15  1  0.500000  0.208334  0.567675  1
  In  In16  1  0.500000  0.928108  0.147453  1
  In  In17  1  0.500000  0.071892  0.852547  1
  Pd  Pd18  1  0.500000  0.528264  0.195290  1
  Pd  Pd19  1  0.500000  0.471736  0.804710  1
  Pd  Pd20  1  0.500000  0.974014  0.696589  1
  Pd  Pd21  1  0.500000  0.025986  0.303411  1
