# generated using pymatgen
data_Tb4Dy5Er3(GaCo2)2
_symmetry_space_group_name_H-M   'P 1'
_cell_length_a   8.27078529
_cell_length_b   8.25731151
_cell_length_c   8.25731140
_cell_angle_alpha   106.88959458
_cell_angle_beta   109.21353998
_cell_angle_gamma   112.28575091
_symmetry_Int_Tables_number   1
_chemical_formula_structural   Tb4Dy5Er3(GaCo2)2
_chemical_formula_sum   'Tb4 Dy5 Er3 Ga2 Co4'
_cell_volume   433.51589053
_cell_formula_units_Z   1
loop_
 _symmetry_equiv_pos_site_id
 _symmetry_equiv_pos_as_xyz
  1  'x, y, z'
loop_
 _atom_site_type_symbol
 _atom_site_label
 _atom_site_symmetry_multiplicity
 _atom_site_fract_x
 _atom_site_fract_y
 _atom_site_fract_z
 _atom_site_occupancy
  Tb  Tb0  1  0.698427  0.262160  0.959872  1
  Tb  Tb1  1  0.301356  0.738312  0.040128  1
  Tb  Tb2  1  0.698427  0.738555  0.436267  1
  Tb  Tb3  1  0.301356  0.261228  0.563042  1
  Dy  Dy4  1  0.810815  0.138286  0.327698  1
  Dy  Dy5  1  0.810815  0.483117  0.672528  1
  Dy  Dy6  1  0.189140  0.861997  0.672503  1
  Dy  Dy7  1  0.189140  0.516637  0.327144  1
  Dy  Dy8  1  0.601551  0.780866  0.820685  1
  Er  Er9  1  0.959922  0.780964  0.178959  1
  Er  Er10  1  0.040630  0.219120  0.821509  1
  Er  Er11  1  0.397970  0.219246  0.178724  1
  Ga  Ga12  1  0.499371  0.499229  0.000142  1
  Ga  Ga13  1  0.500030  0.999949  0.500080  1
  Co  Co14  1  0.836857  0.499787  0.337070  1
  Co  Co15  1  0.162131  0.499521  0.662611  1
  Co  Co16  1  0.001031  0.115188  0.115195  1
  Co  Co17  1  0.001031  0.885837  0.885843  1
