# generated using pymatgen
data_CaEu9(Si2Hg)2
_symmetry_space_group_name_H-M   'P 1'
_cell_length_a   9.66684606
_cell_length_b   9.66684540
_cell_length_c   9.66684606
_cell_angle_alpha   131.78090419
_cell_angle_beta   131.78090025
_cell_angle_gamma   70.57528429
_symmetry_Int_Tables_number   1
_chemical_formula_structural   CaEu9(Si2Hg)2
_chemical_formula_sum   'Ca1 Eu9 Si4 Hg2'
_cell_volume   492.14282173
_cell_formula_units_Z   1
loop_
 _symmetry_equiv_pos_site_id
 _symmetry_equiv_pos_as_xyz
  1  'x, y, z'
loop_
 _atom_site_type_symbol
 _atom_site_label
 _atom_site_symmetry_multiplicity
 _atom_site_fract_x
 _atom_site_fract_y
 _atom_site_fract_z
 _atom_site_occupancy
  Ca  Ca0  1  0.500000  0.500000  0.000000  1
  Eu  Eu1  1  0.534081  0.036258  0.845763  1
  Eu  Eu2  1  0.190495  0.688318  0.154237  1
  Eu  Eu3  1  0.036258  0.190495  0.502177  1
  Eu  Eu4  1  0.688318  0.534081  0.497823  1
  Eu  Eu5  1  0.465919  0.963742  0.154237  1
  Eu  Eu6  1  0.809505  0.311682  0.845763  1
  Eu  Eu7  1  0.963742  0.809505  0.497823  1
  Eu  Eu8  1  0.311682  0.465919  0.502177  1
  Eu  Eu9  1  0.000000  0.000000  0.000000  1
  Si  Si10  1  0.887951  0.389562  0.277512  1
  Si  Si11  1  0.112049  0.610438  0.722488  1
  Si  Si12  1  0.389562  0.112049  0.501611  1
  Si  Si13  1  0.610438  0.887951  0.498389  1
  Hg  Hg14  1  0.249694  0.249694  0.000000  1
  Hg  Hg15  1  0.750306  0.750306  0.000000  1
