# generated using pymatgen
data_Lu6AgRh7
_symmetry_space_group_name_H-M   'P 1'
_cell_length_a   7.48582838
_cell_length_b   7.48582740
_cell_length_c   7.48582900
_cell_angle_alpha   113.72557496
_cell_angle_beta   113.72558001
_cell_angle_gamma   113.72556217
_symmetry_Int_Tables_number   1
_chemical_formula_structural   Lu6AgRh7
_chemical_formula_sum   'Lu6 Ag1 Rh7'
_cell_volume   259.96497232
_cell_formula_units_Z   1
loop_
 _symmetry_equiv_pos_site_id
 _symmetry_equiv_pos_as_xyz
  1  'x, y, z'
loop_
 _atom_site_type_symbol
 _atom_site_label
 _atom_site_symmetry_multiplicity
 _atom_site_fract_x
 _atom_site_fract_y
 _atom_site_fract_z
 _atom_site_occupancy
  Lu  Lu0  1  0.037258  0.626154  0.767121  1
  Lu  Lu1  1  0.767121  0.037258  0.626154  1
  Lu  Lu2  1  0.626154  0.767121  0.037258  1
  Lu  Lu3  1  0.962742  0.373846  0.232879  1
  Lu  Lu4  1  0.232879  0.962742  0.373846  1
  Lu  Lu5  1  0.373846  0.232879  0.962742  1
  Ag  Ag6  1  0.500000  0.500000  0.500000  1
  Rh  Rh7  1  0.000000  0.000000  0.000000  1
  Rh  Rh8  1  0.875328  0.726744  0.431712  1
  Rh  Rh9  1  0.431712  0.875328  0.726744  1
  Rh  Rh10  1  0.726744  0.431712  0.875328  1
  Rh  Rh11  1  0.124672  0.273256  0.568288  1
  Rh  Rh12  1  0.568288  0.124672  0.273256  1
  Rh  Rh13  1  0.273256  0.568288  0.124672  1
