# generated using pymatgen
data_HoLu4In4CuPt
_symmetry_space_group_name_H-M   'P 1'
_cell_length_a   3.56599700
_cell_length_b   8.01450927
_cell_length_c   17.96166330
_cell_angle_alpha   90.02002840
_cell_angle_beta   90.00000000
_cell_angle_gamma   90.00000000
_symmetry_Int_Tables_number   1
_chemical_formula_structural   HoLu4In4CuPt
_chemical_formula_sum   'Ho2 Lu8 In8 Cu2 Pt2'
_cell_volume   513.33920488
_cell_formula_units_Z   2
loop_
 _symmetry_equiv_pos_site_id
 _symmetry_equiv_pos_as_xyz
  1  'x, y, z'
loop_
 _atom_site_type_symbol
 _atom_site_label
 _atom_site_symmetry_multiplicity
 _atom_site_fract_x
 _atom_site_fract_y
 _atom_site_fract_z
 _atom_site_occupancy
  Ho  Ho0  1  0.000000  0.000000  0.000000  1
  Ho  Ho1  1  0.000000  0.500000  0.500000  1
  Lu  Lu2  1  0.000000  0.117538  0.415187  1
  Lu  Lu3  1  0.000000  0.882462  0.584813  1
  Lu  Lu4  1  0.000000  0.381075  0.915230  1
  Lu  Lu5  1  0.000000  0.618925  0.084770  1
  Lu  Lu6  1  0.000000  0.247457  0.219322  1
  Lu  Lu7  1  0.000000  0.752543  0.780678  1
  Lu  Lu8  1  0.000000  0.260431  0.720247  1
  Lu  Lu9  1  0.000000  0.739569  0.279753  1
  In  In10  1  0.500000  0.417868  0.351629  1
  In  In11  1  0.500000  0.582132  0.648371  1
  In  In12  1  0.500000  0.073954  0.848540  1
  In  In13  1  0.500000  0.926046  0.151460  1
  In  In14  1  0.500000  0.295991  0.065540  1
  In  In15  1  0.500000  0.704009  0.934460  1
  In  In16  1  0.500000  0.204721  0.568621  1
  In  In17  1  0.500000  0.795279  0.431379  1
  Cu  Cu18  1  0.500000  0.026351  0.303066  1
  Cu  Cu19  1  0.500000  0.973649  0.696934  1
  Pt  Pt20  1  0.500000  0.472225  0.802523  1
  Pt  Pt21  1  0.500000  0.527775  0.197477  1
