# generated using pymatgen
data_Lu5Be3P9Ir19
_symmetry_space_group_name_H-M   'P 1'
_cell_length_a   12.59487800
_cell_length_b   12.59487774
_cell_length_c   3.92382600
_cell_angle_alpha   90.00000000
_cell_angle_beta   90.00000000
_cell_angle_gamma   120.00000070
_symmetry_Int_Tables_number   1
_chemical_formula_structural   Lu5Be3P9Ir19
_chemical_formula_sum   'Lu5 Be3 P9 Ir19'
_cell_volume   539.04905652
_cell_formula_units_Z   1
loop_
 _symmetry_equiv_pos_site_id
 _symmetry_equiv_pos_as_xyz
  1  'x, y, z'
loop_
 _atom_site_type_symbol
 _atom_site_label
 _atom_site_symmetry_multiplicity
 _atom_site_fract_x
 _atom_site_fract_y
 _atom_site_fract_z
 _atom_site_occupancy
  Lu  Lu0  1  0.666667  0.333333  0.000000  1
  Lu  Lu1  1  0.333333  0.666667  0.000000  1
  Lu  Lu2  1  0.815453  0.808697  0.500000  1
  Lu  Lu3  1  0.191303  0.006756  0.500000  1
  Lu  Lu4  1  0.993244  0.184547  0.500000  1
  Be  Be5  1  0.682925  0.162811  0.500000  1
  Be  Be6  1  0.837189  0.520114  0.500000  1
  Be  Be7  1  0.479886  0.317075  0.500000  1
  P  P8  1  0.178236  0.696176  0.500000  1
  P  P9  1  0.517940  0.821764  0.500000  1
  P  P10  1  0.303824  0.482060  0.500000  1
  P  P11  1  0.640150  0.627371  0.000000  1
  P  P12  1  0.372629  0.012778  0.000000  1
  P  P13  1  0.987222  0.359850  0.000000  1
  P  P14  1  0.178218  0.180876  0.000000  1
  P  P15  1  0.819124  0.997343  0.000000  1
  P  P16  1  0.002657  0.821782  0.000000  1
  Ir  Ir17  1  0.802391  0.175530  0.000000  1
  Ir  Ir18  1  0.824470  0.626861  0.000000  1
  Ir  Ir19  1  0.373139  0.197609  0.000000  1
  Ir  Ir20  1  0.190608  0.814138  0.000000  1
  Ir  Ir21  1  0.623529  0.809392  0.000000  1
  Ir  Ir22  1  0.185862  0.376471  0.000000  1
  Ir  Ir23  1  0.455199  0.446315  0.000000  1
  Ir  Ir24  1  0.553685  0.008884  0.000000  1
  Ir  Ir25  1  0.991116  0.544801  0.000000  1
  Ir  Ir26  1  0.279187  0.286813  0.500000  1
  Ir  Ir27  1  0.713187  0.992374  0.500000  1
  Ir  Ir28  1  0.007626  0.720813  0.500000  1
  Ir  Ir29  1  0.870279  0.354274  0.500000  1
  Ir  Ir30  1  0.645726  0.516006  0.500000  1
  Ir  Ir31  1  0.483994  0.129721  0.500000  1
  Ir  Ir32  1  0.369137  0.869772  0.500000  1
  Ir  Ir33  1  0.500637  0.630863  0.500000  1
  Ir  Ir34  1  0.130228  0.499363  0.500000  1
  Ir  Ir35  1  0.000000  0.000000  0.000000  1
