# generated using pymatgen
data_NdCoTeO6
_symmetry_space_group_name_H-M   'P 1'
_cell_length_a   5.08916500
_cell_length_b   5.08914701
_cell_length_c   5.14755500
_cell_angle_alpha   90.00032300
_cell_angle_beta   89.99992311
_cell_angle_gamma   119.99986704
_symmetry_Int_Tables_number   1
_chemical_formula_structural   NdCoTeO6
_chemical_formula_sum   'Nd1 Co1 Te1 O6'
_cell_volume   115.45792217
_cell_formula_units_Z   1
loop_
 _symmetry_equiv_pos_site_id
 _symmetry_equiv_pos_as_xyz
  1  'x, y, z'
loop_
 _atom_site_type_symbol
 _atom_site_label
 _atom_site_symmetry_multiplicity
 _atom_site_fract_x
 _atom_site_fract_y
 _atom_site_fract_z
 _atom_site_occupancy
  Nd  Nd0  1  0.666667  0.333334  0.000000  1
  Co  Co1  1  0.000011  0.000008  0.499998  1
  Te  Te2  1  0.333299  0.666650  0.499999  1
  O  O3  1  0.294383  0.330366  0.288424  1
  O  O4  1  0.035987  0.705616  0.288428  1
  O  O5  1  0.669640  0.964022  0.288417  1
  O  O6  1  0.035989  0.330372  0.711574  1
  O  O7  1  0.669641  0.705616  0.711585  1
  O  O8  1  0.294384  0.964013  0.711578  1
