# generated using pymatgen
data_Pm(AlAu)2
_symmetry_space_group_name_H-M   'P 1'
_cell_length_a   6.05984030
_cell_length_b   6.05984056
_cell_length_c   6.05984092
_cell_angle_alpha   136.71580419
_cell_angle_beta   136.71578744
_cell_angle_gamma   62.87562112
_symmetry_Int_Tables_number   1
_chemical_formula_structural   Pm(AlAu)2
_chemical_formula_sum   'Pm1 Al2 Au2'
_cell_volume   103.29939688
_cell_formula_units_Z   1
loop_
 _symmetry_equiv_pos_site_id
 _symmetry_equiv_pos_as_xyz
  1  'x, y, z'
loop_
 _atom_site_type_symbol
 _atom_site_label
 _atom_site_symmetry_multiplicity
 _atom_site_fract_x
 _atom_site_fract_y
 _atom_site_fract_z
 _atom_site_occupancy
  Pm  Pm0  1  0.000000  0.000000  0.000000  1
  Al  Al1  1  0.376612  0.376612  0.000000  1
  Al  Al2  1  0.623387  0.623387  0.000000  1
  Au  Au3  1  0.750000  0.250000  0.500000  1
  Au  Au4  1  0.250000  0.750000  0.500000  1
