# generated using pymatgen
data_HoEr2Ga6Co4Ni5
_symmetry_space_group_name_H-M   'P 1'
_cell_length_a   8.71827903
_cell_length_b   8.74893990
_cell_length_c   4.08351300
_cell_angle_alpha   90.00000000
_cell_angle_beta   90.00000000
_cell_angle_gamma   120.20355537
_symmetry_Int_Tables_number   1
_chemical_formula_structural   HoEr2Ga6Co4Ni5
_chemical_formula_sum   'Ho1 Er2 Ga6 Co4 Ni5'
_cell_volume   269.18837800
_cell_formula_units_Z   1
loop_
 _symmetry_equiv_pos_site_id
 _symmetry_equiv_pos_as_xyz
  1  'x, y, z'
loop_
 _atom_site_type_symbol
 _atom_site_label
 _atom_site_symmetry_multiplicity
 _atom_site_fract_x
 _atom_site_fract_y
 _atom_site_fract_z
 _atom_site_occupancy
  Ho  Ho0  1  0.667516  0.334520  0.500000  1
  Er  Er1  1  0.331158  0.669410  0.500000  1
  Er  Er2  1  0.002115  0.000254  0.000000  1
  Ga  Ga3  1  0.490136  0.487036  0.000000  1
  Ga  Ga4  1  0.510521  0.000627  0.000000  1
  Ga  Ga5  1  0.996331  0.509312  0.000000  1
  Ga  Ga6  1  0.726525  0.726795  0.500000  1
  Ga  Ga7  1  0.273530  0.999197  0.500000  1
  Ga  Ga8  1  0.000782  0.271299  0.500000  1
  Co  Co9  1  0.823699  0.188610  0.000000  1
  Co  Co10  1  0.812800  0.637601  0.000000  1
  Co  Co11  1  0.366037  0.175871  0.000000  1
  Co  Co12  1  0.187795  0.821142  0.000000  1
  Ni  Ni13  1  0.630560  0.809163  0.000000  1
  Ni  Ni14  1  0.178944  0.371941  0.000000  1
  Ni  Ni15  1  0.296939  0.294716  0.500000  1
  Ni  Ni16  1  0.705441  0.000783  0.500000  1
  Ni  Ni17  1  0.999171  0.701725  0.500000  1
