# generated using pymatgen
data_Ca2AcPd9
_symmetry_space_group_name_H-M   'P 1'
_cell_length_a   9.51413620
_cell_length_b   9.51413684
_cell_length_c   9.51413650
_cell_angle_alpha   33.42502778
_cell_angle_beta   33.42502064
_cell_angle_gamma   33.42502000
_symmetry_Int_Tables_number   1
_chemical_formula_structural   Ca2AcPd9
_chemical_formula_sum   'Ca2 Ac1 Pd9'
_cell_volume   232.71053308
_cell_formula_units_Z   1
loop_
 _symmetry_equiv_pos_site_id
 _symmetry_equiv_pos_as_xyz
  1  'x, y, z'
loop_
 _atom_site_type_symbol
 _atom_site_label
 _atom_site_symmetry_multiplicity
 _atom_site_fract_x
 _atom_site_fract_y
 _atom_site_fract_z
 _atom_site_occupancy
  Ca  Ca0  1  0.142003  0.142003  0.142003  1
  Ca  Ca1  1  0.857997  0.857997  0.857997  1
  Ac  Ac2  1  0.000000  0.000000  0.000000  1
  Pd  Pd3  1  0.586014  0.586014  0.083382  1
  Pd  Pd4  1  0.332760  0.332760  0.332760  1
  Pd  Pd5  1  0.916618  0.413985  0.413987  1
  Pd  Pd6  1  0.413985  0.916618  0.413987  1
  Pd  Pd7  1  0.500000  0.500000  0.500000  1
  Pd  Pd8  1  0.586015  0.083382  0.586013  1
  Pd  Pd9  1  0.083382  0.586015  0.586013  1
  Pd  Pd10  1  0.667240  0.667240  0.667240  1
  Pd  Pd11  1  0.413986  0.413986  0.916618  1
