# generated using pymatgen
data_Ho3Tm13(In3Os)2
_symmetry_space_group_name_H-M   'P 1'
_cell_length_a   10.26740800
_cell_length_b   10.26740786
_cell_length_c   7.02847600
_cell_angle_alpha   90.00000000
_cell_angle_beta   90.00000000
_cell_angle_gamma   120.00000044
_symmetry_Int_Tables_number   1
_chemical_formula_structural   Ho3Tm13(In3Os)2
_chemical_formula_sum   'Ho3 Tm13 In6 Os2'
_cell_volume   641.67250454
_cell_formula_units_Z   1
loop_
 _symmetry_equiv_pos_site_id
 _symmetry_equiv_pos_as_xyz
  1  'x, y, z'
loop_
 _atom_site_type_symbol
 _atom_site_label
 _atom_site_symmetry_multiplicity
 _atom_site_fract_x
 _atom_site_fract_y
 _atom_site_fract_z
 _atom_site_occupancy
  Ho  Ho0  1  0.531966  0.063933  0.515601  1
  Ho  Ho1  1  0.936067  0.468034  0.515601  1
  Ho  Ho2  1  0.531966  0.468034  0.515601  1
  Tm  Tm3  1  0.466856  0.933710  0.015734  1
  Tm  Tm4  1  0.066290  0.533144  0.015734  1
  Tm  Tm5  1  0.466856  0.533144  0.015734  1
  Tm  Tm6  1  0.177333  0.354665  0.721242  1
  Tm  Tm7  1  0.645335  0.822667  0.721242  1
  Tm  Tm8  1  0.177333  0.822667  0.721242  1
  Tm  Tm9  1  0.822561  0.645123  0.219419  1
  Tm  Tm10  1  0.354877  0.177439  0.219419  1
  Tm  Tm11  1  0.822561  0.177439  0.219419  1
  Tm  Tm12  1  0.666667  0.333333  0.893271  1
  Tm  Tm13  1  0.333333  0.666667  0.392937  1
  Tm  Tm14  1  0.000000  0.000000  0.499345  1
  Tm  Tm15  1  0.000000  0.000000  0.999507  1
  In  In16  1  0.837153  0.674307  0.762982  1
  In  In17  1  0.325693  0.162847  0.762982  1
  In  In18  1  0.837153  0.162847  0.762982  1
  In  In19  1  0.163224  0.326450  0.262851  1
  In  In20  1  0.673550  0.836776  0.262851  1
  In  In21  1  0.163224  0.836776  0.262851  1
  Os  Os22  1  0.666667  0.333333  0.289117  1
  Os  Os23  1  0.333333  0.666667  0.790344  1
