# generated using pymatgen
data_Sc22Ir3Os4Pt
_symmetry_space_group_name_H-M   'P 1'
_cell_length_a   9.48918572
_cell_length_b   9.47464241
_cell_length_c   9.49343948
_cell_angle_alpha   60.03579117
_cell_angle_beta   59.90405455
_cell_angle_gamma   60.08037435
_symmetry_Int_Tables_number   1
_chemical_formula_structural   Sc22Ir3Os4Pt
_chemical_formula_sum   'Sc22 Ir3 Os4 Pt1'
_cell_volume   603.62122058
_cell_formula_units_Z   1
loop_
 _symmetry_equiv_pos_site_id
 _symmetry_equiv_pos_as_xyz
  1  'x, y, z'
loop_
 _atom_site_type_symbol
 _atom_site_label
 _atom_site_symmetry_multiplicity
 _atom_site_fract_x
 _atom_site_fract_y
 _atom_site_fract_z
 _atom_site_occupancy
  Sc  Sc0  1  0.844334  0.844022  0.843316  1
  Sc  Sc1  1  0.531538  0.158554  0.152294  1
  Sc  Sc2  1  0.152294  0.157614  0.531538  1
  Sc  Sc3  1  0.156684  0.531672  0.155666  1
  Sc  Sc4  1  0.847706  0.842386  0.468462  1
  Sc  Sc5  1  0.843316  0.468328  0.844334  1
  Sc  Sc6  1  0.468462  0.841446  0.847706  1
  Sc  Sc7  1  0.155666  0.155978  0.156684  1
  Sc  Sc8  1  0.197644  0.802356  0.197644  1
  Sc  Sc9  1  0.196830  0.801419  0.803170  1
  Sc  Sc10  1  0.803170  0.198581  0.196830  1
  Sc  Sc11  1  0.803371  0.801533  0.196629  1
  Sc  Sc12  1  0.196629  0.198467  0.803371  1
  Sc  Sc13  1  0.802356  0.197644  0.802356  1
  Sc  Sc14  1  0.382173  0.387321  0.380370  1
  Sc  Sc15  1  0.149330  0.617708  0.617001  1
  Sc  Sc16  1  0.619630  0.149867  0.617827  1
  Sc  Sc17  1  0.617001  0.615961  0.149330  1
  Sc  Sc18  1  0.380370  0.850133  0.382173  1
  Sc  Sc19  1  0.382999  0.384039  0.850670  1
  Sc  Sc20  1  0.850670  0.382292  0.382999  1
  Sc  Sc21  1  0.617827  0.612679  0.619630  1
  Ir  Ir22  1  0.000000  0.500000  0.500000  1
  Ir  Ir23  1  0.500000  0.000000  0.000000  1
  Ir  Ir24  1  0.000000  0.500000  0.000000  1
  Os  Os25  1  0.500000  0.500000  0.000000  1
  Os  Os26  1  0.000000  0.000000  0.500000  1
  Os  Os27  1  0.500000  0.500000  0.500000  1
  Os  Os28  1  0.000000  0.000000  0.000000  1
  Pt  Pt29  1  0.500000  0.000000  0.500000  1
