# generated using pymatgen
data_Zr2Be25B
_symmetry_space_group_name_H-M   'P 1'
_cell_length_a   7.02959675
_cell_length_b   7.02959736
_cell_length_c   7.02959600
_cell_angle_alpha   59.99999698
_cell_angle_beta   59.99999411
_cell_angle_gamma   59.99999623
_symmetry_Int_Tables_number   1
_chemical_formula_structural   Zr2Be25B
_chemical_formula_sum   'Zr2 Be25 B1'
_cell_volume   245.62704839
_cell_formula_units_Z   1
loop_
 _symmetry_equiv_pos_site_id
 _symmetry_equiv_pos_as_xyz
  1  'x, y, z'
loop_
 _atom_site_type_symbol
 _atom_site_label
 _atom_site_symmetry_multiplicity
 _atom_site_fract_x
 _atom_site_fract_y
 _atom_site_fract_z
 _atom_site_occupancy
  Zr  Zr0  1  0.250000  0.250000  0.250000  1
  Zr  Zr1  1  0.750000  0.750000  0.750000  1
  Be  Be2  1  0.000000  0.000000  0.000000  1
  Be  Be3  1  0.212202  0.787798  0.437778  1
  Be  Be4  1  0.938470  0.294582  0.705418  1
  Be  Be5  1  0.705418  0.061530  0.938470  1
  Be  Be6  1  0.938470  0.061530  0.294582  1
  Be  Be7  1  0.061530  0.938470  0.705418  1
  Be  Be8  1  0.061530  0.294582  0.938470  1
  Be  Be9  1  0.705418  0.938470  0.294582  1
  Be  Be10  1  0.437778  0.787798  0.562222  1
  Be  Be11  1  0.562222  0.787798  0.212202  1
  Be  Be12  1  0.787798  0.562222  0.437778  1
  Be  Be13  1  0.562222  0.212202  0.437778  1
  Be  Be14  1  0.787798  0.437778  0.212202  1
  Be  Be15  1  0.437778  0.212202  0.787798  1
  Be  Be16  1  0.212202  0.562222  0.787798  1
  Be  Be17  1  0.212202  0.437778  0.562222  1
  Be  Be18  1  0.705418  0.294582  0.061530  1
  Be  Be19  1  0.294582  0.938470  0.061530  1
  Be  Be20  1  0.294582  0.061530  0.705418  1
  Be  Be21  1  0.938470  0.705418  0.061530  1
  Be  Be22  1  0.061530  0.705418  0.294582  1
  Be  Be23  1  0.294582  0.705418  0.938470  1
  Be  Be24  1  0.437778  0.562222  0.212202  1
  Be  Be25  1  0.787798  0.212202  0.562222  1
  Be  Be26  1  0.562222  0.437778  0.787798  1
  B  B27  1  0.500000  0.500000  0.500000  1
