# generated using pymatgen
data_Tc3Te4Cl5
_symmetry_space_group_name_H-M   'P 1'
_cell_length_a   9.19669300
_cell_length_b   15.60332600
_cell_length_c   19.82358000
_cell_angle_alpha   90.00000000
_cell_angle_beta   90.00000000
_cell_angle_gamma   90.00000000
_symmetry_Int_Tables_number   1
_chemical_formula_structural   Tc3Te4Cl5
_chemical_formula_sum   'Tc24 Te32 Cl40'
_cell_volume   2844.66388661
_cell_formula_units_Z   8
loop_
 _symmetry_equiv_pos_site_id
 _symmetry_equiv_pos_as_xyz
  1  'x, y, z'
loop_
 _atom_site_type_symbol
 _atom_site_label
 _atom_site_symmetry_multiplicity
 _atom_site_fract_x
 _atom_site_fract_y
 _atom_site_fract_z
 _atom_site_occupancy
  Tc  Tc0  1  0.447019  0.769067  0.340740  1
  Tc  Tc1  1  0.947019  0.230933  0.659260  1
  Tc  Tc2  1  0.447019  0.730933  0.840740  1
  Tc  Tc3  1  0.947019  0.269067  0.159260  1
  Tc  Tc4  1  0.803361  0.689682  0.269721  1
  Tc  Tc5  1  0.303361  0.310318  0.730279  1
  Tc  Tc6  1  0.803361  0.810318  0.769721  1
  Tc  Tc7  1  0.303361  0.189682  0.230279  1
  Tc  Tc8  1  0.523810  0.661123  0.242682  1
  Tc  Tc9  1  0.023810  0.338877  0.757318  1
  Tc  Tc10  1  0.523810  0.838877  0.742682  1
  Tc  Tc11  1  0.023810  0.161123  0.257318  1
  Tc  Tc12  1  0.625458  0.821063  0.244547  1
  Tc  Tc13  1  0.125458  0.178937  0.755453  1
  Tc  Tc14  1  0.625458  0.678937  0.744547  1
  Tc  Tc15  1  0.125458  0.321063  0.255453  1
  Tc  Tc16  1  0.622545  0.636187  0.368154  1
  Tc  Tc17  1  0.122545  0.363813  0.631846  1
  Tc  Tc18  1  0.622545  0.863813  0.868154  1
  Tc  Tc19  1  0.122545  0.136187  0.131846  1
  Tc  Tc20  1  0.729249  0.797484  0.369120  1
  Tc  Tc21  1  0.229249  0.202516  0.630880  1
  Tc  Tc22  1  0.729249  0.702516  0.869120  1
  Tc  Tc23  1  0.229249  0.297484  0.130880  1
  Te  Te24  1  0.554194  0.931044  0.341981  1
  Te  Te25  1  0.054194  0.068956  0.658019  1
  Te  Te26  1  0.554194  0.568956  0.841981  1
  Te  Te27  1  0.054194  0.431044  0.158019  1
  Te  Te28  1  0.545710  0.748691  0.466400  1
  Te  Te29  1  0.045710  0.251309  0.533600  1
  Te  Te30  1  0.545710  0.751309  0.966400  1
  Te  Te31  1  0.045710  0.248691  0.033600  1
  Te  Te32  1  0.342325  0.608107  0.338050  1
  Te  Te33  1  0.842325  0.391893  0.661950  1
  Te  Te34  1  0.342325  0.891893  0.838050  1
  Te  Te35  1  0.842325  0.108107  0.161950  1
  Te  Te36  1  0.613213  0.520213  0.464129  1
  Te  Te37  1  0.113213  0.479787  0.535871  1
  Te  Te38  1  0.613213  0.979787  0.964129  1
  Te  Te39  1  0.113213  0.020213  0.035871  1
  Te  Te40  1  0.905087  0.851714  0.269096  1
  Te  Te41  1  0.405087  0.148286  0.730904  1
  Te  Te42  1  0.905087  0.648286  0.769096  1
  Te  Te43  1  0.405087  0.351714  0.230904  1
  Te  Te44  1  0.896814  0.901008  0.443395  1
  Te  Te45  1  0.396814  0.098992  0.556605  1
  Te  Te46  1  0.896814  0.598992  0.943395  1
  Te  Te47  1  0.396814  0.401008  0.056605  1
  Te  Te48  1  0.906526  0.665273  0.393136  1
  Te  Te49  1  0.406526  0.334727  0.606864  1
  Te  Te50  1  0.906526  0.834727  0.893136  1
  Te  Te51  1  0.406526  0.165273  0.106864  1
  Te  Te52  1  0.697095  0.528039  0.269396  1
  Te  Te53  1  0.197095  0.471961  0.730604  1
  Te  Te54  1  0.697095  0.971961  0.769396  1
  Te  Te55  1  0.197095  0.028039  0.230604  1
  Cl  Cl56  1  0.987471  0.818653  0.535510  1
  Cl  Cl57  1  0.487471  0.181347  0.464490  1
  Cl  Cl58  1  0.987471  0.681347  0.035510  1
  Cl  Cl59  1  0.487471  0.318653  0.964490  1
  Cl  Cl60  1  0.814258  0.421097  0.447926  1
  Cl  Cl61  1  0.314258  0.578903  0.552074  1
  Cl  Cl62  1  0.814258  0.078903  0.947926  1
  Cl  Cl63  1  0.314258  0.921097  0.052074  1
  Cl  Cl64  1  0.210596  0.820868  0.378339  1
  Cl  Cl65  1  0.710596  0.179132  0.621661  1
  Cl  Cl66  1  0.210596  0.679132  0.878339  1
  Cl  Cl67  1  0.710596  0.320868  0.121661  1
  Cl  Cl68  1  0.443128  0.410996  0.429167  1
  Cl  Cl69  1  0.943128  0.589004  0.570833  1
  Cl  Cl70  1  0.443128  0.089004  0.929167  1
  Cl  Cl71  1  0.943128  0.910996  0.070833  1
  Cl  Cl72  1  0.398424  0.584538  0.155455  1
  Cl  Cl73  1  0.898424  0.415462  0.844545  1
  Cl  Cl74  1  0.398424  0.915462  0.655455  1
  Cl  Cl75  1  0.898424  0.084538  0.344545  1
  Cl  Cl76  1  0.609766  0.929413  0.160822  1
  Cl  Cl77  1  0.109766  0.070587  0.839178  1
  Cl  Cl78  1  0.609766  0.570587  0.660822  1
  Cl  Cl79  1  0.109766  0.429413  0.339178  1
  Cl  Cl80  1  0.027594  0.642924  0.220380  1
  Cl  Cl81  1  0.527594  0.357076  0.779620  1
  Cl  Cl82  1  0.027594  0.857076  0.720380  1
  Cl  Cl83  1  0.527594  0.142924  0.279620  1
  Cl  Cl84  1  0.734463  0.980721  0.514206  1
  Cl  Cl85  1  0.234463  0.019279  0.485794  1
  Cl  Cl86  1  0.734463  0.519279  0.014206  1
  Cl  Cl87  1  0.234463  0.480721  0.985794  1
  Cl  Cl88  1  0.696330  0.715430  0.155195  1
  Cl  Cl89  1  0.196330  0.284570  0.844805  1
  Cl  Cl90  1  0.696330  0.784570  0.655195  1
  Cl  Cl91  1  0.196330  0.215430  0.344805  1
  Cl  Cl92  1  0.363364  0.787193  0.221972  1
  Cl  Cl93  1  0.863364  0.212807  0.778028  1
  Cl  Cl94  1  0.363364  0.712807  0.721972  1
  Cl  Cl95  1  0.863364  0.287193  0.278028  1
