# generated using pymatgen
data_Li4Nd3YPt4
_symmetry_space_group_name_H-M   'P 1'
_cell_length_a   4.09595700
_cell_length_b   7.20302521
_cell_length_c   8.57130194
_cell_angle_alpha   90.50474293
_cell_angle_beta   90.00000000
_cell_angle_gamma   90.00000000
_symmetry_Int_Tables_number   1
_chemical_formula_structural   Li4Nd3YPt4
_chemical_formula_sum   'Li4 Nd3 Y1 Pt4'
_cell_volume   252.87172173
_cell_formula_units_Z   1
loop_
 _symmetry_equiv_pos_site_id
 _symmetry_equiv_pos_as_xyz
  1  'x, y, z'
loop_
 _atom_site_type_symbol
 _atom_site_label
 _atom_site_symmetry_multiplicity
 _atom_site_fract_x
 _atom_site_fract_y
 _atom_site_fract_z
 _atom_site_occupancy
  Li  Li0  1  0.250000  0.122258  0.053243  1
  Li  Li1  1  0.250000  0.629322  0.445884  1
  Li  Li2  1  0.750000  0.877439  0.940847  1
  Li  Li3  1  0.750000  0.369951  0.557673  1
  Nd  Nd4  1  0.250000  0.548161  0.813522  1
  Nd  Nd5  1  0.750000  0.951691  0.317705  1
  Nd  Nd6  1  0.750000  0.449923  0.184706  1
  Y  Y7  1  0.250000  0.050069  0.682754  1
  Pt  Pt8  1  0.250000  0.245781  0.383671  1
  Pt  Pt9  1  0.250000  0.744839  0.120937  1
  Pt  Pt10  1  0.750000  0.761739  0.624719  1
  Pt  Pt11  1  0.750000  0.248828  0.874339  1
