# generated using pymatgen
data_Er4FeTc5Ge8
_symmetry_space_group_name_H-M   'P 1'
_cell_length_a   6.87233253
_cell_length_b   6.90252297
_cell_length_c   6.88407111
_cell_angle_alpha   69.48267421
_cell_angle_beta   90.18300531
_cell_angle_gamma   90.96537846
_symmetry_Int_Tables_number   1
_chemical_formula_structural   Er4FeTc5Ge8
_chemical_formula_sum   'Er4 Fe1 Tc5 Ge8'
_cell_volume   305.79642691
_cell_formula_units_Z   1
loop_
 _symmetry_equiv_pos_site_id
 _symmetry_equiv_pos_as_xyz
  1  'x, y, z'
loop_
 _atom_site_type_symbol
 _atom_site_label
 _atom_site_symmetry_multiplicity
 _atom_site_fract_x
 _atom_site_fract_y
 _atom_site_fract_z
 _atom_site_occupancy
  Er  Er0  1  0.671657  0.446329  0.193244  1
  Er  Er1  1  0.168458  0.055824  0.803632  1
  Er  Er2  1  0.328322  0.550180  0.812247  1
  Er  Er3  1  0.826299  0.951719  0.190524  1
  Fe  Fe4  1  0.370603  0.723609  0.229362  1
  Tc  Tc5  1  0.500854  0.993071  0.500725  1
  Tc  Tc6  1  0.998273  0.511473  0.498505  1
  Tc  Tc7  1  0.145951  0.252222  0.243628  1
  Tc  Tc8  1  0.640845  0.254440  0.760112  1
  Tc  Tc9  1  0.853676  0.757883  0.769817  1
  Ge  Ge10  1  0.434501  0.116516  0.109073  1
  Ge  Ge11  1  0.943484  0.371102  0.899746  1
  Ge  Ge12  1  0.548540  0.863178  0.903294  1
  Ge  Ge13  1  0.061871  0.644105  0.105413  1
  Ge  Ge14  1  0.855479  0.135379  0.513777  1
  Ge  Ge15  1  0.354128  0.372375  0.485518  1
  Ge  Ge16  1  0.153509  0.863605  0.470184  1
  Ge  Ge17  1  0.643549  0.636991  0.511199  1
