# generated using pymatgen
data_DyIn(CuPt)2
_symmetry_space_group_name_H-M   'P 1'
_cell_length_a   5.12282920
_cell_length_b   5.23619954
_cell_length_c   5.23619927
_cell_angle_alpha   63.62087606
_cell_angle_beta   60.71367154
_cell_angle_gamma   60.71366667
_symmetry_Int_Tables_number   1
_chemical_formula_structural   DyIn(CuPt)2
_chemical_formula_sum   'Dy1 In1 Cu2 Pt2'
_cell_volume   102.89301002
_cell_formula_units_Z   1
loop_
 _symmetry_equiv_pos_site_id
 _symmetry_equiv_pos_as_xyz
  1  'x, y, z'
loop_
 _atom_site_type_symbol
 _atom_site_label
 _atom_site_symmetry_multiplicity
 _atom_site_fract_x
 _atom_site_fract_y
 _atom_site_fract_z
 _atom_site_occupancy
  Dy  Dy0  1  0.999087  0.000913  0.000913  1
  In  In1  1  0.246561  0.253439  0.253439  1
  Cu  Cu2  1  0.123956  0.623418  0.623418  1
  Cu  Cu3  1  0.629206  0.623418  0.623418  1
  Pt  Pt4  1  0.625595  0.622650  0.126160  1
  Pt  Pt5  1  0.625595  0.126160  0.622650  1
