# generated using pymatgen
data_Ba12Sm3Er(Co4O15)2
_symmetry_space_group_name_H-M   'P 1'
_cell_length_a   6.07549770
_cell_length_b   8.09563410
_cell_length_c   18.76732700
_cell_angle_alpha   91.11106774
_cell_angle_beta   89.93677703
_cell_angle_gamma   90.00194782
_symmetry_Int_Tables_number   1
_chemical_formula_structural   Ba12Sm3Er(Co4O15)2
_chemical_formula_sum   'Ba12 Sm3 Er1 Co8 O30'
_cell_volume   922.89698457
_cell_formula_units_Z   1
loop_
 _symmetry_equiv_pos_site_id
 _symmetry_equiv_pos_as_xyz
  1  'x, y, z'
loop_
 _atom_site_type_symbol
 _atom_site_label
 _atom_site_symmetry_multiplicity
 _atom_site_fract_x
 _atom_site_fract_y
 _atom_site_fract_z
 _atom_site_occupancy
  Ba  Ba0  1  0.750921  0.026142  0.092546  1
  Ba  Ba1  1  0.755573  0.494876  0.420644  1
  Ba  Ba2  1  0.248557  0.501498  0.576223  1
  Ba  Ba3  1  0.249084  0.974489  0.908227  1
  Ba  Ba4  1  0.333895  0.497975  0.251419  1
  Ba  Ba5  1  0.753176  0.503029  0.078490  1
  Ba  Ba6  1  0.723357  0.000976  0.749104  1
  Ba  Ba7  1  0.276374  0.000188  0.252180  1
  Ba  Ba8  1  0.246217  0.497522  0.922139  1
  Ba  Ba9  1  0.662483  0.500522  0.750174  1
  Ba  Ba10  1  0.251832  0.024626  0.588451  1
  Ba  Ba11  1  0.750689  0.977972  0.409006  1
  Sm  Sm12  1  0.746267  0.244024  0.911086  1
  Sm  Sm13  1  0.747466  0.754637  0.588301  1
  Sm  Sm14  1  0.253476  0.756310  0.089867  1
  Er  Er15  1  0.255139  0.245464  0.411085  1
  Co  Co16  1  0.254772  0.752859  0.436395  1
  Co  Co17  1  0.781084  0.767297  0.236825  1
  Co  Co18  1  0.779422  0.232505  0.266110  1
  Co  Co19  1  0.252438  0.246309  0.063099  1
  Co  Co20  1  0.746990  0.754059  0.937735  1
  Co  Co21  1  0.217883  0.232765  0.763096  1
  Co  Co22  1  0.217723  0.767365  0.735840  1
  Co  Co23  1  0.749313  0.245797  0.559430  1
  O  O24  1  0.245556  0.530174  0.410897  1
  O  O25  1  0.513343  0.764096  0.494295  1
  O  O26  1  0.950496  0.278643  0.805406  1
  O  O27  1  0.022106  0.232421  0.992739  1
  O  O28  1  0.807740  0.000647  0.250742  1
  O  O29  1  0.337624  0.692713  0.816641  1
  O  O30  1  0.041349  0.276530  0.312846  1
  O  O31  1  0.558868  0.750577  0.162725  1
  O  O32  1  0.544084  0.248679  0.336984  1
  O  O33  1  0.339472  0.305992  0.682317  1
  O  O34  1  0.484956  0.764238  0.994551  1
  O  O35  1  0.235556  0.957851  0.393458  1
  O  O36  1  0.950070  0.721508  0.693887  1
  O  O37  1  0.442419  0.750020  0.662127  1
  O  O38  1  0.656214  0.693373  0.316869  1
  O  O39  1  0.191320  0.999720  0.750161  1
  O  O40  1  0.769800  0.048162  0.606442  1
  O  O41  1  0.759250  0.464352  0.587174  1
  O  O42  1  0.977025  0.767996  0.008309  1
  O  O43  1  0.758938  0.534381  0.910781  1
  O  O44  1  0.230483  0.048938  0.110397  1
  O  O45  1  0.769514  0.951750  0.890595  1
  O  O46  1  0.514464  0.235903  0.006288  1
  O  O47  1  0.441405  0.250160  0.837290  1
  O  O48  1  0.022304  0.765585  0.506154  1
  O  O49  1  0.667611  0.309994  0.184970  1
  O  O50  1  0.049753  0.721522  0.195717  1
  O  O51  1  0.985835  0.233416  0.489931  1
  O  O52  1  0.241268  0.465694  0.090319  1
  O  O53  1  0.487048  0.235758  0.501520  1
