# generated using pymatgen
data_TbCo2Si2Ir
_symmetry_space_group_name_H-M   'P 1'
_cell_length_a   6.44361920
_cell_length_b   6.44361824
_cell_length_c   6.44361783
_cell_angle_alpha   132.08344534
_cell_angle_beta   113.90328144
_cell_angle_gamma   85.67543381
_symmetry_Int_Tables_number   1
_chemical_formula_structural   TbCo2Si2Ir
_chemical_formula_sum   'Tb2 Co4 Si4 Ir2'
_cell_volume   173.77836263
_cell_formula_units_Z   2
loop_
 _symmetry_equiv_pos_site_id
 _symmetry_equiv_pos_as_xyz
  1  'x, y, z'
loop_
 _atom_site_type_symbol
 _atom_site_label
 _atom_site_symmetry_multiplicity
 _atom_site_fract_x
 _atom_site_fract_y
 _atom_site_fract_z
 _atom_site_occupancy
  Tb  Tb0  1  0.250000  0.525253  0.275253  1
  Tb  Tb1  1  0.750000  0.474747  0.724747  1
  Co  Co2  1  0.725457  0.000000  0.725457  1
  Co  Co3  1  0.225457  0.500000  0.725457  1
  Co  Co4  1  0.274543  0.000000  0.274543  1
  Co  Co5  1  0.774543  0.500000  0.274543  1
  Si  Si6  1  0.069946  0.860951  0.791005  1
  Si  Si7  1  0.930054  0.139049  0.208995  1
  Si  Si8  1  0.569946  0.778942  0.208995  1
  Si  Si9  1  0.430054  0.221058  0.791005  1
  Ir  Ir10  1  0.000000  0.000000  0.500000  1
  Ir  Ir11  1  0.500000  0.000000  0.000000  1
