# generated using pymatgen
data_DyHo15In2(AgIr2)2
_symmetry_space_group_name_H-M   'P 1'
_cell_length_a   9.56979400
_cell_length_b   9.56979405
_cell_length_c   9.58338200
_cell_angle_alpha   59.95302657
_cell_angle_beta   59.95302639
_cell_angle_gamma   60.00930185
_symmetry_Int_Tables_number   1
_chemical_formula_structural   DyHo15In2(AgIr2)2
_chemical_formula_sum   'Dy1 Ho15 In2 Ag2 Ir4'
_cell_volume   620.19854628
_cell_formula_units_Z   1
loop_
 _symmetry_equiv_pos_site_id
 _symmetry_equiv_pos_as_xyz
  1  'x, y, z'
loop_
 _atom_site_type_symbol
 _atom_site_label
 _atom_site_symmetry_multiplicity
 _atom_site_fract_x
 _atom_site_fract_y
 _atom_site_fract_z
 _atom_site_occupancy
  Dy  Dy0  1  0.439734  0.439734  0.060266  1
  Ho  Ho1  1  0.650160  0.650160  0.049695  1
  Ho  Ho2  1  0.190330  0.810490  0.190530  1
  Ho  Ho3  1  0.064937  0.439480  0.058420  1
  Ho  Ho4  1  0.190330  0.810490  0.808650  1
  Ho  Ho5  1  0.064937  0.439480  0.437163  1
  Ho  Ho6  1  0.810490  0.190330  0.190530  1
  Ho  Ho7  1  0.650160  0.650160  0.649985  1
  Ho  Ho8  1  0.810490  0.190330  0.808650  1
  Ho  Ho9  1  0.189488  0.189488  0.810512  1
  Ho  Ho10  1  0.050455  0.649419  0.650064  1
  Ho  Ho11  1  0.439480  0.064937  0.058420  1
  Ho  Ho12  1  0.062725  0.062725  0.437275  1
  Ho  Ho13  1  0.649419  0.050455  0.650064  1
  Ho  Ho14  1  0.807978  0.807978  0.192022  1
  Ho  Ho15  1  0.439480  0.064937  0.437163  1
  In  In16  1  0.416502  0.742298  0.420600  1
  In  In17  1  0.742298  0.416502  0.420600  1
  Ag  Ag18  1  0.416371  0.416371  0.418041  1
  Ag  Ag19  1  0.416371  0.416371  0.749219  1
  Ir  Ir20  1  0.425047  0.857857  0.858547  1
  Ir  Ir21  1  0.857480  0.857480  0.859740  1
  Ir  Ir22  1  0.857857  0.425047  0.858547  1
  Ir  Ir23  1  0.857480  0.857480  0.425298  1
