# generated using pymatgen
data_Ho13Tm3Cd4(IrRu)2
_symmetry_space_group_name_H-M   'P 1'
_cell_length_a   9.57922765
_cell_length_b   9.58122893
_cell_length_c   9.61814900
_cell_angle_alpha   59.86985574
_cell_angle_beta   59.86309219
_cell_angle_gamma   59.72841326
_symmetry_Int_Tables_number   1
_chemical_formula_structural   Ho13Tm3Cd4(IrRu)2
_chemical_formula_sum   'Ho13 Tm3 Cd4 Ir2 Ru2'
_cell_volume   621.66012355
_cell_formula_units_Z   1
loop_
 _symmetry_equiv_pos_site_id
 _symmetry_equiv_pos_as_xyz
  1  'x, y, z'
loop_
 _atom_site_type_symbol
 _atom_site_label
 _atom_site_symmetry_multiplicity
 _atom_site_fract_x
 _atom_site_fract_y
 _atom_site_fract_z
 _atom_site_occupancy
  Ho  Ho0  1  0.209373  0.596757  0.596976  1
  Ho  Ho1  1  0.061590  0.438207  0.440039  1
  Ho  Ho2  1  0.438272  0.061693  0.059853  1
  Ho  Ho3  1  0.438273  0.061647  0.440193  1
  Ho  Ho4  1  0.061638  0.438205  0.060129  1
  Ho  Ho5  1  0.438320  0.438484  0.061560  1
  Ho  Ho6  1  0.059407  0.059613  0.440491  1
  Ho  Ho7  1  0.188173  0.810208  0.813170  1
  Ho  Ho8  1  0.810032  0.188295  0.188657  1
  Ho  Ho9  1  0.810027  0.188298  0.813018  1
  Ho  Ho10  1  0.188170  0.810213  0.188450  1
  Ho  Ho11  1  0.811333  0.811456  0.188604  1
  Ho  Ho12  1  0.188569  0.188424  0.811507  1
  Tm  Tm13  1  0.597762  0.597745  0.597746  1
  Tm  Tm14  1  0.597783  0.597765  0.206731  1
  Tm  Tm15  1  0.596722  0.209952  0.596688  1
  Cd  Cd16  1  0.830217  0.830456  0.830649  1
  Cd  Cd17  1  0.830217  0.830456  0.508678  1
  Cd  Cd18  1  0.830358  0.507660  0.830991  1
  Cd  Cd19  1  0.507778  0.830490  0.830866  1
  Ir  Ir20  1  0.395018  0.826179  0.389407  1
  Ir  Ir21  1  0.825516  0.394372  0.390061  1
  Ru  Ru22  1  0.392722  0.391707  0.387645  1
  Ru  Ru23  1  0.392733  0.391719  0.827893  1
