# generated using pymatgen
data_Yb2EuC3Cl2
_symmetry_space_group_name_H-M   'P 1'
_cell_length_a   7.05612173
_cell_length_b   7.05612005
_cell_length_c   11.49768800
_cell_angle_alpha   90.00000000
_cell_angle_beta   90.00000000
_cell_angle_gamma   148.12583456
_symmetry_Int_Tables_number   1
_chemical_formula_structural   Yb2EuC3Cl2
_chemical_formula_sum   'Yb4 Eu2 C6 Cl4'
_cell_volume   302.28883036
_cell_formula_units_Z   2
loop_
 _symmetry_equiv_pos_site_id
 _symmetry_equiv_pos_as_xyz
  1  'x, y, z'
loop_
 _atom_site_type_symbol
 _atom_site_label
 _atom_site_symmetry_multiplicity
 _atom_site_fract_x
 _atom_site_fract_y
 _atom_site_fract_z
 _atom_site_occupancy
  Yb  Yb0  1  0.657356  0.342644  0.559654  1
  Yb  Yb1  1  0.342644  0.657356  0.440346  1
  Yb  Yb2  1  0.342644  0.657356  0.059654  1
  Yb  Yb3  1  0.657356  0.342644  0.940346  1
  Eu  Eu4  1  0.120146  0.879854  0.250000  1
  Eu  Eu5  1  0.879854  0.120146  0.750000  1
  C  C6  1  0.264040  0.735960  0.634467  1
  C  C7  1  0.735960  0.264040  0.365533  1
  C  C8  1  0.735960  0.264040  0.134467  1
  C  C9  1  0.264040  0.735960  0.865533  1
  C  C10  1  0.746983  0.253017  0.250000  1
  C  C11  1  0.253017  0.746983  0.750000  1
  Cl  Cl12  1  0.537033  0.462967  0.750000  1
  Cl  Cl13  1  0.462967  0.537033  0.250000  1
  Cl  Cl14  1  0.000000  0.000000  0.000000  1
  Cl  Cl15  1  0.000000  0.000000  0.500000  1
