# generated using pymatgen
data_Zr6In4CBr18
_symmetry_space_group_name_H-M   'P 1'
_cell_length_a   10.37767760
_cell_length_b   10.55432457
_cell_length_c   10.63989546
_cell_angle_alpha   118.39091693
_cell_angle_beta   100.00368830
_cell_angle_gamma   103.97919560
_symmetry_Int_Tables_number   1
_chemical_formula_structural   Zr6In4CBr18
_chemical_formula_sum   'Zr6 In4 C1 Br18'
_cell_volume   936.28546517
_cell_formula_units_Z   1
loop_
 _symmetry_equiv_pos_site_id
 _symmetry_equiv_pos_as_xyz
  1  'x, y, z'
loop_
 _atom_site_type_symbol
 _atom_site_label
 _atom_site_symmetry_multiplicity
 _atom_site_fract_x
 _atom_site_fract_y
 _atom_site_fract_z
 _atom_site_occupancy
  Zr  Zr0  1  0.353095  0.445263  0.774952  1
  Zr  Zr1  1  0.364780  0.623911  0.130608  1
  Zr  Zr2  1  0.642457  0.733766  0.043956  1
  Zr  Zr3  1  0.646905  0.554737  0.225048  1
  Zr  Zr4  1  0.357543  0.266234  0.956044  1
  Zr  Zr5  1  0.635220  0.376089  0.869392  1
  In  In6  1  0.181949  0.723001  0.560753  1
  In  In7  1  0.850128  0.962628  0.774390  1
  In  In8  1  0.149872  0.037372  0.225610  1
  In  In9  1  0.818051  0.276999  0.439247  1
  C  C10  1  0.500000  0.500000  0.000000  1
  Br  Br11  1  0.822264  0.421806  0.109944  1
  Br  Br12  1  0.514803  0.705027  0.410038  1
  Br  Br13  1  0.174870  0.976052  0.899251  1
  Br  Br14  1  0.177736  0.578194  0.890056  1
  Br  Br15  1  0.830682  0.834878  0.312213  1
  Br  Br16  1  0.503598  0.294662  0.210105  1
  Br  Br17  1  0.798658  0.223132  0.709082  1
  Br  Br18  1  0.169318  0.165122  0.687787  1
  Br  Br19  1  0.507911  0.911263  0.197597  1
  Br  Br20  1  0.818979  0.628189  0.902291  1
  Br  Br21  1  0.201342  0.776868  0.290918  1
  Br  Br22  1  0.163863  0.377542  0.496027  1
  Br  Br23  1  0.496402  0.705338  0.789895  1
  Br  Br24  1  0.825130  0.023948  0.100749  1
  Br  Br25  1  0.485197  0.294973  0.589962  1
  Br  Br26  1  0.181021  0.371811  0.097709  1
  Br  Br27  1  0.836137  0.622458  0.503973  1
  Br  Br28  1  0.492089  0.088737  0.802403  1
