# generated using pymatgen
data_Lu3Sc2In2Sn
_symmetry_space_group_name_H-M   'P 1'
_cell_length_a   8.75250023
_cell_length_b   8.75250078
_cell_length_c   6.19093600
_cell_angle_alpha   90.00000000
_cell_angle_beta   90.00000000
_cell_angle_gamma   120.28054904
_symmetry_Int_Tables_number   1
_chemical_formula_structural   Lu3Sc2In2Sn
_chemical_formula_sum   'Lu6 Sc4 In4 Sn2'
_cell_volume   409.55905358
_cell_formula_units_Z   2
loop_
 _symmetry_equiv_pos_site_id
 _symmetry_equiv_pos_as_xyz
  1  'x, y, z'
loop_
 _atom_site_type_symbol
 _atom_site_label
 _atom_site_symmetry_multiplicity
 _atom_site_fract_x
 _atom_site_fract_y
 _atom_site_fract_z
 _atom_site_occupancy
  Lu  Lu0  1  0.769125  0.769125  0.750000  1
  Lu  Lu1  1  0.235808  0.998597  0.750000  1
  Lu  Lu2  1  0.998597  0.235808  0.750000  1
  Lu  Lu3  1  0.232593  0.232593  0.250000  1
  Lu  Lu4  1  0.764340  0.000272  0.250000  1
  Lu  Lu5  1  0.000272  0.764340  0.250000  1
  Sc  Sc6  1  0.669030  0.331251  0.997933  1
  Sc  Sc7  1  0.331251  0.669030  0.997933  1
  Sc  Sc8  1  0.331251  0.669030  0.502067  1
  Sc  Sc9  1  0.669030  0.331251  0.502067  1
  In  In10  1  0.407677  0.407677  0.750000  1
  In  In11  1  0.598374  0.999599  0.750000  1
  In  In12  1  0.999599  0.598374  0.750000  1
  In  In13  1  0.590369  0.590369  0.250000  1
  Sn  Sn14  1  0.401631  0.001053  0.250000  1
  Sn  Sn15  1  0.001053  0.401631  0.250000  1
