# generated using pymatgen
data_Ho9Mg(Co2Pd)2
_symmetry_space_group_name_H-M   'P 1'
_cell_length_a   7.33123900
_cell_length_b   7.33123845
_cell_length_c   8.38399369
_cell_angle_alpha   115.92641479
_cell_angle_beta   115.92641028
_cell_angle_gamma   89.99999447
_symmetry_Int_Tables_number   1
_chemical_formula_structural   Ho9Mg(Co2Pd)2
_chemical_formula_sum   'Ho9 Mg1 Co4 Pd2'
_cell_volume   354.15119601
_cell_formula_units_Z   1
loop_
 _symmetry_equiv_pos_site_id
 _symmetry_equiv_pos_as_xyz
  1  'x, y, z'
loop_
 _atom_site_type_symbol
 _atom_site_label
 _atom_site_symmetry_multiplicity
 _atom_site_fract_x
 _atom_site_fract_y
 _atom_site_fract_z
 _atom_site_occupancy
  Ho  Ho0  1  0.000000  0.000000  0.000000  1
  Ho  Ho1  1  0.473523  0.308980  0.267992  1
  Ho  Ho2  1  0.959013  0.473523  0.267992  1
  Ho  Ho3  1  0.308980  0.794468  0.267992  1
  Ho  Ho4  1  0.794468  0.959013  0.267992  1
  Ho  Ho5  1  0.205531  0.040988  0.732007  1
  Ho  Ho6  1  0.691019  0.205531  0.732007  1
  Ho  Ho7  1  0.040988  0.526476  0.732007  1
  Ho  Ho8  1  0.526476  0.691019  0.732007  1
  Mg  Mg9  1  0.500000  0.500000  0.000000  1
  Co  Co10  1  0.629441  0.127353  0.000000  1
  Co  Co11  1  0.127353  0.370560  0.000000  1
  Co  Co12  1  0.872647  0.629441  0.000000  1
  Co  Co13  1  0.370560  0.872647  0.000000  1
  Pd  Pd14  1  0.247060  0.247060  0.494120  1
  Pd  Pd15  1  0.752940  0.752940  0.505880  1
