# generated using pymatgen
data_Ca9TbSi5Sn
_symmetry_space_group_name_H-M   'P 1'
_cell_length_a   9.19207514
_cell_length_b   9.21466400
_cell_length_c   9.21240359
_cell_angle_alpha   130.73706482
_cell_angle_beta   130.75140076
_cell_angle_gamma   72.36468046
_symmetry_Int_Tables_number   1
_chemical_formula_structural   Ca9TbSi5Sn
_chemical_formula_sum   'Ca9 Tb1 Si5 Sn1'
_cell_volume   437.48940174
_cell_formula_units_Z   1
loop_
 _symmetry_equiv_pos_site_id
 _symmetry_equiv_pos_as_xyz
  1  'x, y, z'
loop_
 _atom_site_type_symbol
 _atom_site_label
 _atom_site_symmetry_multiplicity
 _atom_site_fract_x
 _atom_site_fract_y
 _atom_site_fract_z
 _atom_site_occupancy
  Ca  Ca0  1  0.190689  0.674168  0.143597  1
  Ca  Ca1  1  0.456956  0.973330  0.148304  1
  Ca  Ca2  1  0.311253  0.454252  0.484889  1
  Ca  Ca3  1  0.042420  0.191496  0.516455  1
  Ca  Ca4  1  0.528247  0.044863  0.853527  1
  Ca  Ca5  1  0.675662  0.526492  0.483720  1
  Ca  Ca6  1  0.971142  0.826244  0.516812  1
  Ca  Ca7  1  0.993323  0.988403  0.000744  1
  Ca  Ca8  1  0.506259  0.510625  0.999979  1
  Tb  Tb9  1  0.825133  0.306800  0.859291  1
  Si  Si10  1  0.111094  0.610699  0.720053  1
  Si  Si11  1  0.887045  0.387072  0.266915  1
  Si  Si12  1  0.618292  0.892962  0.507049  1
  Si  Si13  1  0.393496  0.117927  0.506701  1
  Si  Si14  1  0.237707  0.251107  0.994826  1
  Sn  Sn15  1  0.751282  0.743561  0.997138  1
