# generated using pymatgen
data_La3Nd5(DyIr2)2
_symmetry_space_group_name_H-M   'P 1'
_cell_length_a   6.69247952
_cell_length_b   7.25902857
_cell_length_c   9.01342888
_cell_angle_alpha   96.18097336
_cell_angle_beta   111.66629383
_cell_angle_gamma   89.73404944
_symmetry_Int_Tables_number   1
_chemical_formula_structural   La3Nd5(DyIr2)2
_chemical_formula_sum   'La3 Nd5 Dy2 Ir4'
_cell_volume   404.28633246
_cell_formula_units_Z   1
loop_
 _symmetry_equiv_pos_site_id
 _symmetry_equiv_pos_as_xyz
  1  'x, y, z'
loop_
 _atom_site_type_symbol
 _atom_site_label
 _atom_site_symmetry_multiplicity
 _atom_site_fract_x
 _atom_site_fract_y
 _atom_site_fract_z
 _atom_site_occupancy
  La  La0  1  0.792765  0.081461  0.813727  1
  La  La1  1  0.976715  0.418887  0.182513  1
  La  La2  1  0.206595  0.917464  0.184164  1
  Nd  Nd3  1  0.024856  0.577689  0.816280  1
  Nd  Nd4  1  0.213625  0.186774  0.569223  1
  Nd  Nd5  1  0.644970  0.314032  0.430761  1
  Nd  Nd6  1  0.786001  0.813158  0.432258  1
  Nd  Nd7  1  0.354575  0.686095  0.571967  1
  Dy  Dy8  1  0.435641  0.251423  0.999898  1
  Dy  Dy9  1  0.562875  0.749131  0.998944  1
  Ir  Ir10  1  0.600265  0.427287  0.787497  1
  Ir  Ir11  1  0.814289  0.073868  0.214826  1
  Ir  Ir12  1  0.398771  0.573536  0.212034  1
  Ir  Ir13  1  0.188059  0.929196  0.785908  1
