# generated using pymatgen
data_YbY18Tm(Cd3Ni)2
_symmetry_space_group_name_H-M   'P 1'
_cell_length_a   9.67450700
_cell_length_b   9.67450776
_cell_length_c   9.68785600
_cell_angle_alpha   90.00000000
_cell_angle_beta   90.00000000
_cell_angle_gamma   119.99999397
_symmetry_Int_Tables_number   1
_chemical_formula_structural   YbY18Tm(Cd3Ni)2
_chemical_formula_sum   'Yb1 Y18 Tm1 Cd6 Ni2'
_cell_volume   785.26466103
_cell_formula_units_Z   1
loop_
 _symmetry_equiv_pos_site_id
 _symmetry_equiv_pos_as_xyz
  1  'x, y, z'
loop_
 _atom_site_type_symbol
 _atom_site_label
 _atom_site_symmetry_multiplicity
 _atom_site_fract_x
 _atom_site_fract_y
 _atom_site_fract_z
 _atom_site_occupancy
  Yb  Yb0  1  0.000000  0.000000  0.500000  1
  Y  Y1  1  0.543549  0.456451  0.251212  1
  Y  Y2  1  0.543549  0.087098  0.251212  1
  Y  Y3  1  0.912902  0.456451  0.251212  1
  Y  Y4  1  0.456451  0.543549  0.748788  1
  Y  Y5  1  0.456451  0.912902  0.748788  1
  Y  Y6  1  0.087098  0.543549  0.748788  1
  Y  Y7  1  0.210222  0.789778  0.434905  1
  Y  Y8  1  0.210222  0.420446  0.434905  1
  Y  Y9  1  0.579554  0.789778  0.434905  1
  Y  Y10  1  0.789778  0.210222  0.565095  1
  Y  Y11  1  0.789778  0.579554  0.565095  1
  Y  Y12  1  0.420446  0.210222  0.565095  1
  Y  Y13  1  0.790152  0.209848  0.936903  1
  Y  Y14  1  0.790152  0.580304  0.936903  1
  Y  Y15  1  0.419696  0.209848  0.936903  1
  Y  Y16  1  0.209848  0.790152  0.063097  1
  Y  Y17  1  0.209848  0.419696  0.063097  1
  Y  Y18  1  0.580304  0.790152  0.063097  1
  Tm  Tm19  1  0.000000  0.000000  0.000000  1
  Cd  Cd20  1  0.884070  0.115930  0.249110  1
  Cd  Cd21  1  0.884070  0.768140  0.249110  1
  Cd  Cd22  1  0.231860  0.115930  0.249110  1
  Cd  Cd23  1  0.115930  0.884070  0.750890  1
  Cd  Cd24  1  0.115930  0.231860  0.750890  1
  Cd  Cd25  1  0.768140  0.884070  0.750890  1
  Ni  Ni26  1  0.333333  0.666667  0.250535  1
  Ni  Ni27  1  0.666667  0.333333  0.749465  1
