# generated using pymatgen
data_Ho6NpO12
_symmetry_space_group_name_H-M   'P 1'
_cell_length_a   6.53550124
_cell_length_b   6.53550132
_cell_length_c   6.53550104
_cell_angle_alpha   98.91854289
_cell_angle_beta   98.91853749
_cell_angle_gamma   98.91853248
_symmetry_Int_Tables_number   1
_chemical_formula_structural   Ho6NpO12
_chemical_formula_sum   'Ho6 Np1 O12'
_cell_volume   267.81544301
_cell_formula_units_Z   1
loop_
 _symmetry_equiv_pos_site_id
 _symmetry_equiv_pos_as_xyz
  1  'x, y, z'
loop_
 _atom_site_type_symbol
 _atom_site_label
 _atom_site_symmetry_multiplicity
 _atom_site_fract_x
 _atom_site_fract_y
 _atom_site_fract_z
 _atom_site_occupancy
  Ho  Ho0  1  0.145677  0.321492  0.610988  1
  Ho  Ho1  1  0.389012  0.854323  0.678508  1
  Ho  Ho2  1  0.678508  0.389012  0.854323  1
  Ho  Ho3  1  0.321492  0.610988  0.145677  1
  Ho  Ho4  1  0.610988  0.145677  0.321492  1
  Ho  Ho5  1  0.854323  0.678508  0.389012  1
  Np  Np6  1  0.000000  0.000000  0.000000  1
  O  O7  1  0.076637  0.309069  0.954777  1
  O  O8  1  0.045223  0.923363  0.690931  1
  O  O9  1  0.411080  0.570646  0.822351  1
  O  O10  1  0.177649  0.588920  0.429354  1
  O  O11  1  0.690931  0.045223  0.923363  1
  O  O12  1  0.429354  0.177649  0.588920  1
  O  O13  1  0.570646  0.822351  0.411080  1
  O  O14  1  0.309069  0.954777  0.076637  1
  O  O15  1  0.822351  0.411080  0.570646  1
  O  O16  1  0.588920  0.429354  0.177649  1
  O  O17  1  0.954777  0.076637  0.309069  1
  O  O18  1  0.923363  0.690931  0.045223  1
