# generated using pymatgen
data_Pr3SmSn12
_symmetry_space_group_name_H-M   'P 1'
_cell_length_a   12.25537846
_cell_length_b   12.25537867
_cell_length_c   12.25537877
_cell_angle_alpha   31.33604682
_cell_angle_beta   31.33604505
_cell_angle_gamma   31.33605100
_symmetry_Int_Tables_number   1
_chemical_formula_structural   Pr3SmSn12
_chemical_formula_sum   'Pr3 Sm1 Sn12'
_cell_volume   441.86161357
_cell_formula_units_Z   1
loop_
 _symmetry_equiv_pos_site_id
 _symmetry_equiv_pos_as_xyz
  1  'x, y, z'
loop_
 _atom_site_type_symbol
 _atom_site_label
 _atom_site_symmetry_multiplicity
 _atom_site_fract_x
 _atom_site_fract_y
 _atom_site_fract_z
 _atom_site_occupancy
  Pr  Pr0  1  0.878220  0.878220  0.878220  1
  Pr  Pr1  1  0.121827  0.121827  0.121827  1
  Pr  Pr2  1  0.705964  0.705964  0.705964  1
  Sm  Sm3  1  0.293736  0.293736  0.293736  1
  Sn  Sn4  1  0.293196  0.791741  0.791741  1
  Sn  Sn5  1  0.791741  0.791741  0.293196  1
  Sn  Sn6  1  0.864268  0.382409  0.382409  1
  Sn  Sn7  1  0.382409  0.382409  0.864268  1
  Sn  Sn8  1  0.382409  0.864268  0.382409  1
  Sn  Sn9  1  0.617283  0.137540  0.617283  1
  Sn  Sn10  1  0.137540  0.617283  0.617283  1
  Sn  Sn11  1  0.617283  0.617283  0.137540  1
  Sn  Sn12  1  0.791741  0.293196  0.791741  1
  Sn  Sn13  1  0.208991  0.704401  0.208991  1
  Sn  Sn14  1  0.208991  0.208991  0.704401  1
  Sn  Sn15  1  0.704401  0.208991  0.208991  1
