# generated using pymatgen
data_Eu2Sn2IrPd
_symmetry_space_group_name_H-M   'P 1'
_cell_length_a   4.63850500
_cell_length_b   7.48555000
_cell_length_c   8.14501500
_cell_angle_alpha   90.00000000
_cell_angle_beta   90.00000000
_cell_angle_gamma   90.00000000
_symmetry_Int_Tables_number   1
_chemical_formula_structural   Eu2Sn2IrPd
_chemical_formula_sum   'Eu4 Sn4 Ir2 Pd2'
_cell_volume   282.80926501
_cell_formula_units_Z   2
loop_
 _symmetry_equiv_pos_site_id
 _symmetry_equiv_pos_as_xyz
  1  'x, y, z'
loop_
 _atom_site_type_symbol
 _atom_site_label
 _atom_site_symmetry_multiplicity
 _atom_site_fract_x
 _atom_site_fract_y
 _atom_site_fract_z
 _atom_site_occupancy
  Eu  Eu0  1  0.250000  0.517040  0.183341  1
  Eu  Eu1  1  0.750000  0.470384  0.814914  1
  Eu  Eu2  1  0.250000  0.029616  0.314914  1
  Eu  Eu3  1  0.750000  0.982960  0.683341  1
  Sn  Sn4  1  0.250000  0.165314  0.926705  1
  Sn  Sn5  1  0.750000  0.334686  0.426705  1
  Sn  Sn6  1  0.250000  0.657797  0.572665  1
  Sn  Sn7  1  0.750000  0.842203  0.072665  1
  Ir  Ir8  1  0.750000  0.214225  0.109907  1
  Ir  Ir9  1  0.250000  0.285775  0.609907  1
  Pd  Pd10  1  0.750000  0.711553  0.392468  1
  Pd  Pd11  1  0.250000  0.788447  0.892468  1
