# generated using pymatgen
data_HoTa6PbS12
_symmetry_space_group_name_H-M   'P 1'
_cell_length_a   5.81080700
_cell_length_b   5.81080597
_cell_length_c   14.36516600
_cell_angle_alpha   90.00000000
_cell_angle_beta   90.00000000
_cell_angle_gamma   120.00001156
_symmetry_Int_Tables_number   1
_chemical_formula_structural   HoTa6PbS12
_chemical_formula_sum   'Ho1 Ta6 Pb1 S12'
_cell_volume   420.06263770
_cell_formula_units_Z   1
loop_
 _symmetry_equiv_pos_site_id
 _symmetry_equiv_pos_as_xyz
  1  'x, y, z'
loop_
 _atom_site_type_symbol
 _atom_site_label
 _atom_site_symmetry_multiplicity
 _atom_site_fract_x
 _atom_site_fract_y
 _atom_site_fract_z
 _atom_site_occupancy
  Ho  Ho0  1  0.000000  0.000000  0.000000  1
  Ta  Ta1  1  0.333333  0.666667  0.240529  1
  Ta  Ta2  1  0.666667  0.333333  0.759471  1
  Ta  Ta3  1  0.666667  0.333333  0.240529  1
  Ta  Ta4  1  0.333333  0.666667  0.759471  1
  Ta  Ta5  1  0.000000  0.000000  0.240996  1
  Ta  Ta6  1  0.000000  0.000000  0.759004  1
  Pb  Pb7  1  0.000000  0.000000  0.500000  1
  S  S8  1  0.336132  0.000000  0.131112  1
  S  S9  1  0.000000  0.336132  0.131112  1
  S  S10  1  0.663868  0.663868  0.131112  1
  S  S11  1  0.338909  0.338909  0.650446  1
  S  S12  1  0.661091  0.661091  0.349554  1
  S  S13  1  0.661091  0.000000  0.650446  1
  S  S14  1  0.000000  0.661091  0.650446  1
  S  S15  1  0.000000  0.663868  0.868888  1
  S  S16  1  0.336132  0.336132  0.868888  1
  S  S17  1  0.000000  0.338909  0.349554  1
  S  S18  1  0.338909  0.000000  0.349554  1
  S  S19  1  0.663868  0.000000  0.868888  1
