# generated using pymatgen
data_Nd6Al24Ir2Os5Pt
_symmetry_space_group_name_H-M   'P 1'
_cell_length_a   8.89960197
_cell_length_b   8.88879095
_cell_length_c   9.69215418
_cell_angle_alpha   90.10461261
_cell_angle_beta   89.97449801
_cell_angle_gamma   119.44994587
_symmetry_Int_Tables_number   1
_chemical_formula_structural   Nd6Al24Ir2Os5Pt
_chemical_formula_sum   'Nd6 Al24 Ir2 Os5 Pt1'
_cell_volume   667.64257093
_cell_formula_units_Z   1
loop_
 _symmetry_equiv_pos_site_id
 _symmetry_equiv_pos_as_xyz
  1  'x, y, z'
loop_
 _atom_site_type_symbol
 _atom_site_label
 _atom_site_symmetry_multiplicity
 _atom_site_fract_x
 _atom_site_fract_y
 _atom_site_fract_z
 _atom_site_occupancy
  Nd  Nd0  1  0.186217  0.382904  0.250254  1
  Nd  Nd1  1  0.813783  0.617096  0.749746  1
  Nd  Nd2  1  0.618817  0.813401  0.250145  1
  Nd  Nd3  1  0.381183  0.186599  0.749855  1
  Nd  Nd4  1  0.189842  0.807279  0.250285  1
  Nd  Nd5  1  0.810158  0.192721  0.749715  1
  Al  Al6  1  0.331732  0.666165  0.018986  1
  Al  Al7  1  0.668268  0.333835  0.981014  1
  Al  Al8  1  0.669021  0.330581  0.519366  1
  Al  Al9  1  0.330979  0.669419  0.480634  1
  Al  Al10  1  0.159498  0.326367  0.575077  1
  Al  Al11  1  0.840502  0.673633  0.424923  1
  Al  Al12  1  0.674224  0.841181  0.575218  1
  Al  Al13  1  0.837367  0.672974  0.074564  1
  Al  Al14  1  0.325776  0.158819  0.424782  1
  Al  Al15  1  0.162633  0.327026  0.925436  1
  Al  Al16  1  0.164894  0.836165  0.574582  1
  Al  Al17  1  0.326712  0.163852  0.074527  1
  Al  Al18  1  0.835106  0.163835  0.425418  1
  Al  Al19  1  0.673288  0.836148  0.925473  1
  Al  Al20  1  0.837438  0.165556  0.074409  1
  Al  Al21  1  0.162562  0.834444  0.925591  1
  Al  Al22  1  0.561043  0.125574  0.250989  1
  Al  Al23  1  0.438957  0.874426  0.749011  1
  Al  Al24  1  0.873623  0.438707  0.249957  1
  Al  Al25  1  0.126377  0.561293  0.750043  1
  Al  Al26  1  0.562883  0.437201  0.247361  1
  Al  Al27  1  0.437117  0.562799  0.752639  1
  Al  Al28  1  0.997861  0.001423  0.249890  1
  Al  Al29  1  0.002139  0.998577  0.750110  1
  Ir  Ir30  1  0.500000  0.000000  0.000000  1
  Ir  Ir31  1  0.500000  0.500000  0.000000  1
  Os  Os32  1  0.000000  0.500000  0.000000  1
  Os  Os33  1  0.500000  0.000000  0.500000  1
  Os  Os34  1  0.000000  0.500000  0.500000  1
  Os  Os35  1  0.000000  0.000000  0.000000  1
  Os  Os36  1  0.000000  0.000000  0.500000  1
  Pt  Pt37  1  0.500000  0.500000  0.500000  1
