# generated using pymatgen
data_Tb2Dy4NiI10
_symmetry_space_group_name_H-M   'P 1'
_cell_length_a   7.71312487
_cell_length_b   9.69465464
_cell_length_c   9.73132545
_cell_angle_alpha   107.23390641
_cell_angle_beta   97.01531424
_cell_angle_gamma   104.72907401
_symmetry_Int_Tables_number   1
_chemical_formula_structural   Tb2Dy4NiI10
_chemical_formula_sum   'Tb2 Dy4 Ni1 I10'
_cell_volume   656.62434740
_cell_formula_units_Z   1
loop_
 _symmetry_equiv_pos_site_id
 _symmetry_equiv_pos_as_xyz
  1  'x, y, z'
loop_
 _atom_site_type_symbol
 _atom_site_label
 _atom_site_symmetry_multiplicity
 _atom_site_fract_x
 _atom_site_fract_y
 _atom_site_fract_z
 _atom_site_occupancy
  Tb  Tb0  1  0.887775  0.960083  0.235854  1
  Tb  Tb1  1  0.112225  0.039917  0.764146  1
  Dy  Dy2  1  0.029860  0.720416  0.916149  1
  Dy  Dy3  1  0.970140  0.279584  0.083851  1
  Dy  Dy4  1  0.659555  0.878602  0.838236  1
  Dy  Dy5  1  0.340445  0.121398  0.161764  1
  Ni  Ni6  1  0.000000  0.000000  0.000000  1
  I  I7  1  0.646675  0.548331  0.727600  1
  I  I8  1  0.353325  0.451669  0.272400  1
  I  I9  1  0.739965  0.911640  0.537474  1
  I  I10  1  0.260035  0.088360  0.462526  1
  I  I11  1  0.085061  0.372542  0.820041  1
  I  I12  1  0.914939  0.627458  0.179959  1
  I  I13  1  0.453345  0.815486  0.092474  1
  I  I14  1  0.546655  0.184514  0.907526  1
  I  I15  1  0.222813  0.741834  0.654478  1
  I  I16  1  0.777187  0.258166  0.345522  1
