# generated using pymatgen
data_NdErNi6(BIr)2
_symmetry_space_group_name_H-M   'P 1'
_cell_length_a   5.16308013
_cell_length_b   5.16308050
_cell_length_c   7.09871300
_cell_angle_alpha   90.00000000
_cell_angle_beta   90.00000000
_cell_angle_gamma   121.98485169
_symmetry_Int_Tables_number   1
_chemical_formula_structural   NdErNi6(BIr)2
_chemical_formula_sum   'Nd1 Er1 Ni6 B2 Ir2'
_cell_volume   160.50537870
_cell_formula_units_Z   1
loop_
 _symmetry_equiv_pos_site_id
 _symmetry_equiv_pos_as_xyz
  1  'x, y, z'
loop_
 _atom_site_type_symbol
 _atom_site_label
 _atom_site_symmetry_multiplicity
 _atom_site_fract_x
 _atom_site_fract_y
 _atom_site_fract_z
 _atom_site_occupancy
  Nd  Nd0  1  0.000000  0.000000  0.000000  1
  Er  Er1  1  0.000000  0.000000  0.500000  1
  Ni  Ni2  1  0.333141  0.666859  0.000000  1
  Ni  Ni3  1  0.666859  0.333141  0.000000  1
  Ni  Ni4  1  0.500000  0.000000  0.293889  1
  Ni  Ni5  1  0.000000  0.500000  0.293889  1
  Ni  Ni6  1  0.500000  0.000000  0.706111  1
  Ni  Ni7  1  0.000000  0.500000  0.706111  1
  B  B8  1  0.673386  0.326614  0.500000  1
  B  B9  1  0.326614  0.673386  0.500000  1
  Ir  Ir10  1  0.500000  0.500000  0.292578  1
  Ir  Ir11  1  0.500000  0.500000  0.707422  1
