# generated using pymatgen
data_Ce2Dy(RhPb)3
_symmetry_space_group_name_H-M   'P 1'
_cell_length_a   7.74989493
_cell_length_b   7.74989503
_cell_length_c   3.95943400
_cell_angle_alpha   90.00000000
_cell_angle_beta   90.00000000
_cell_angle_gamma   120.43535930
_symmetry_Int_Tables_number   1
_chemical_formula_structural   Ce2Dy(RhPb)3
_chemical_formula_sum   'Ce2 Dy1 Rh3 Pb3'
_cell_volume   205.03753527
_cell_formula_units_Z   1
loop_
 _symmetry_equiv_pos_site_id
 _symmetry_equiv_pos_as_xyz
  1  'x, y, z'
loop_
 _atom_site_type_symbol
 _atom_site_label
 _atom_site_symmetry_multiplicity
 _atom_site_fract_x
 _atom_site_fract_y
 _atom_site_fract_z
 _atom_site_occupancy
  Ce  Ce0  1  0.590405  0.999947  0.500000  1
  Ce  Ce1  1  0.999947  0.590405  0.500000  1
  Dy  Dy2  1  0.404423  0.404423  0.500000  1
  Rh  Rh3  1  0.996212  0.996212  0.500000  1
  Rh  Rh4  1  0.676789  0.331367  0.000000  1
  Rh  Rh5  1  0.331367  0.676789  0.000000  1
  Pb  Pb6  1  0.731775  0.731775  0.000000  1
  Pb  Pb7  1  0.261796  0.007285  0.000000  1
  Pb  Pb8  1  0.007285  0.261796  0.000000  1
