# generated using pymatgen
data_Tm8Ir3Ru4Pt
_symmetry_space_group_name_H-M   'P 1'
_cell_length_a   6.68553500
_cell_length_b   4.81652900
_cell_length_c   9.64383800
_cell_angle_alpha   90.00009517
_cell_angle_beta   90.00102841
_cell_angle_gamma   90.00004758
_symmetry_Int_Tables_number   1
_chemical_formula_structural   Tm8Ir3Ru4Pt
_chemical_formula_sum   'Tm8 Ir3 Ru4 Pt1'
_cell_volume   310.54193344
_cell_formula_units_Z   1
loop_
 _symmetry_equiv_pos_site_id
 _symmetry_equiv_pos_as_xyz
  1  'x, y, z'
loop_
 _atom_site_type_symbol
 _atom_site_label
 _atom_site_symmetry_multiplicity
 _atom_site_fract_x
 _atom_site_fract_y
 _atom_site_fract_z
 _atom_site_occupancy
  Tm  Tm0  1  0.002841  0.750001  0.125001  1
  Tm  Tm1  1  0.496930  0.750000  0.125018  1
  Tm  Tm2  1  0.001291  0.250001  0.377539  1
  Tm  Tm3  1  0.498495  0.249999  0.377549  1
  Tm  Tm4  1  0.500474  0.750000  0.624992  1
  Tm  Tm5  1  0.999722  0.749999  0.625006  1
  Tm  Tm6  1  0.498716  0.249999  0.872439  1
  Tm  Tm7  1  0.001523  0.250002  0.872453  1
  Ir  Ir8  1  0.249921  0.750000  0.374668  1
  Ir  Ir9  1  0.750075  0.250000  0.624996  1
  Ir  Ir10  1  0.250085  0.749999  0.875343  1
  Ru  Ru11  1  0.249913  0.250000  0.124981  1
  Ru  Ru12  1  0.749929  0.750000  0.374561  1
  Ru  Ru13  1  0.250087  0.249999  0.624974  1
  Ru  Ru14  1  0.750082  0.749999  0.875477  1
  Pt  Pt15  1  0.749917  0.249999  0.124998  1
