# generated using pymatgen
data_Dy3Y7Si6C
_symmetry_space_group_name_H-M   'P 1'
_cell_length_a   8.47771000
_cell_length_b   8.47771154
_cell_length_c   6.38486500
_cell_angle_alpha   90.00000000
_cell_angle_beta   90.00000000
_cell_angle_gamma   119.99999401
_symmetry_Int_Tables_number   1
_chemical_formula_structural   Dy3Y7Si6C
_chemical_formula_sum   'Dy3 Y7 Si6 C1'
_cell_volume   397.41071150
_cell_formula_units_Z   1
loop_
 _symmetry_equiv_pos_site_id
 _symmetry_equiv_pos_as_xyz
  1  'x, y, z'
loop_
 _atom_site_type_symbol
 _atom_site_label
 _atom_site_symmetry_multiplicity
 _atom_site_fract_x
 _atom_site_fract_y
 _atom_site_fract_z
 _atom_site_occupancy
  Dy  Dy0  1  0.333333  0.666667  0.500000  1
  Dy  Dy1  1  0.666667  0.333333  0.500000  1
  Dy  Dy2  1  0.666667  0.333333  0.000000  1
  Y  Y3  1  0.333333  0.666667  0.000000  1
  Y  Y4  1  0.000070  0.764084  0.271122  1
  Y  Y5  1  0.235916  0.235986  0.271122  1
  Y  Y6  1  0.764014  0.999930  0.271122  1
  Y  Y7  1  0.000070  0.235986  0.728878  1
  Y  Y8  1  0.764014  0.764084  0.728878  1
  Y  Y9  1  0.235916  0.999930  0.728878  1
  Si  Si10  1  0.999878  0.399215  0.254109  1
  Si  Si11  1  0.600785  0.600663  0.254109  1
  Si  Si12  1  0.399337  0.000122  0.254109  1
  Si  Si13  1  0.999878  0.600663  0.745891  1
  Si  Si14  1  0.399337  0.399215  0.745891  1
  Si  Si15  1  0.600785  0.000122  0.745891  1
  C  C16  1  0.000000  0.000000  0.500000  1
