# generated using pymatgen
data_Tb10IrOs2Au3
_symmetry_space_group_name_H-M   'P 1'
_cell_length_a   11.19173173
_cell_length_b   11.13655200
_cell_length_c   6.41392500
_cell_angle_alpha   90.00000000
_cell_angle_beta   89.62341902
_cell_angle_gamma   90.00000000
_symmetry_Int_Tables_number   1
_chemical_formula_structural   Tb10IrOs2Au3
_chemical_formula_sum   'Tb20 Ir2 Os4 Au6'
_cell_volume   799.39704314
_cell_formula_units_Z   2
loop_
 _symmetry_equiv_pos_site_id
 _symmetry_equiv_pos_as_xyz
  1  'x, y, z'
loop_
 _atom_site_type_symbol
 _atom_site_label
 _atom_site_symmetry_multiplicity
 _atom_site_fract_x
 _atom_site_fract_y
 _atom_site_fract_z
 _atom_site_occupancy
  Tb  Tb0  1  0.300134  0.090139  0.362650  1
  Tb  Tb1  1  0.300134  0.909861  0.862650  1
  Tb  Tb2  1  0.695174  0.083189  0.856938  1
  Tb  Tb3  1  0.695174  0.916811  0.356938  1
  Tb  Tb4  1  0.574631  0.793485  0.858977  1
  Tb  Tb5  1  0.574631  0.206515  0.358977  1
  Tb  Tb6  1  0.410824  0.796705  0.373988  1
  Tb  Tb7  1  0.410824  0.203295  0.873988  1
  Tb  Tb8  1  0.210362  0.418718  0.630879  1
  Tb  Tb9  1  0.210362  0.581282  0.130879  1
  Tb  Tb10  1  0.804244  0.416089  0.137534  1
  Tb  Tb11  1  0.804244  0.583911  0.637534  1
  Tb  Tb12  1  0.921383  0.698225  0.141216  1
  Tb  Tb13  1  0.921383  0.301775  0.641216  1
  Tb  Tb14  1  0.094719  0.698518  0.641254  1
  Tb  Tb15  1  0.094719  0.301482  0.141254  1
  Tb  Tb16  1  0.997289  0.998539  0.499018  1
  Tb  Tb17  1  0.997289  0.001461  0.999018  1
  Tb  Tb18  1  0.492931  0.497379  0.999016  1
  Tb  Tb19  1  0.492931  0.502621  0.499016  1
  Ir  Ir20  1  0.347684  0.347935  0.250697  1
  Ir  Ir21  1  0.347684  0.652065  0.750697  1
  Os  Os22  1  0.497913  0.999237  0.115023  1
  Os  Os23  1  0.497913  0.000763  0.615023  1
  Os  Os24  1  0.002616  0.499995  0.885841  1
  Os  Os25  1  0.002616  0.500005  0.385841  1
  Au  Au26  1  0.841126  0.154994  0.251792  1
  Au  Au27  1  0.841126  0.845006  0.751792  1
  Au  Au28  1  0.153715  0.154707  0.748170  1
  Au  Au29  1  0.153715  0.845293  0.248170  1
  Au  Au30  1  0.655255  0.346433  0.747007  1
  Au  Au31  1  0.655255  0.653567  0.247007  1
