# generated using pymatgen
data_CsTcF5
_symmetry_space_group_name_H-M   'P 1'
_cell_length_a   5.81921100
_cell_length_b   8.28034000
_cell_length_c   11.09105200
_cell_angle_alpha   90.00000000
_cell_angle_beta   90.00000000
_cell_angle_gamma   90.00000000
_symmetry_Int_Tables_number   1
_chemical_formula_structural   CsTcF5
_chemical_formula_sum   'Cs4 Tc4 F20'
_cell_volume   534.42284650
_cell_formula_units_Z   4
loop_
 _symmetry_equiv_pos_site_id
 _symmetry_equiv_pos_as_xyz
  1  'x, y, z'
loop_
 _atom_site_type_symbol
 _atom_site_label
 _atom_site_symmetry_multiplicity
 _atom_site_fract_x
 _atom_site_fract_y
 _atom_site_fract_z
 _atom_site_occupancy
  Cs  Cs0  1  0.500000  0.890168  0.974994  1
  Cs  Cs1  1  0.500000  0.109832  0.474994  1
  Cs  Cs2  1  0.000000  0.354003  0.123582  1
  Cs  Cs3  1  0.000000  0.645997  0.623582  1
  Tc  Tc4  1  0.000000  0.874345  0.241273  1
  Tc  Tc5  1  0.500000  0.576771  0.338167  1
  Tc  Tc6  1  0.500000  0.423229  0.838167  1
  Tc  Tc7  1  0.000000  0.125655  0.741273  1
  F  F8  1  0.262681  0.541775  0.918717  1
  F  F9  1  0.748736  0.697467  0.239005  1
  F  F10  1  0.235959  0.036174  0.233397  1
  F  F11  1  0.748736  0.302533  0.739005  1
  F  F12  1  0.500000  0.254009  0.959308  1
  F  F13  1  0.764041  0.963826  0.733397  1
  F  F14  1  0.500000  0.581368  0.708669  1
  F  F15  1  0.235959  0.963826  0.733397  1
  F  F16  1  0.000000  0.850467  0.067376  1
  F  F17  1  0.764041  0.036174  0.233397  1
  F  F18  1  0.500000  0.418632  0.208669  1
  F  F19  1  0.737319  0.458225  0.418717  1
  F  F20  1  0.251264  0.697467  0.239005  1
  F  F21  1  0.000000  0.874784  0.415901  1
  F  F22  1  0.000000  0.149533  0.567376  1
  F  F23  1  0.251264  0.302533  0.739005  1
  F  F24  1  0.000000  0.125216  0.915901  1
  F  F25  1  0.262681  0.458225  0.418717  1
  F  F26  1  0.500000  0.745991  0.459308  1
  F  F27  1  0.737319  0.541775  0.918717  1
