# generated using pymatgen
data_Ho5Ni(As2Ru3)6
_symmetry_space_group_name_H-M   'P 1'
_cell_length_a   12.92943300
_cell_length_b   12.92943324
_cell_length_c   4.05873100
_cell_angle_alpha   90.00000000
_cell_angle_beta   90.00000000
_cell_angle_gamma   119.99999683
_symmetry_Int_Tables_number   1
_chemical_formula_structural   Ho5Ni(As2Ru3)6
_chemical_formula_sum   'Ho5 Ni1 As12 Ru18'
_cell_volume   587.59742266
_cell_formula_units_Z   1
loop_
 _symmetry_equiv_pos_site_id
 _symmetry_equiv_pos_as_xyz
  1  'x, y, z'
loop_
 _atom_site_type_symbol
 _atom_site_label
 _atom_site_symmetry_multiplicity
 _atom_site_fract_x
 _atom_site_fract_y
 _atom_site_fract_z
 _atom_site_occupancy
  Ho  Ho0  1  0.666667  0.333333  0.000000  1
  Ho  Ho1  1  0.333333  0.666667  0.000000  1
  Ho  Ho2  1  0.810357  0.810357  0.500000  1
  Ho  Ho3  1  0.189643  0.000000  0.500000  1
  Ho  Ho4  1  0.000000  0.189643  0.500000  1
  Ni  Ni5  1  0.000000  0.000000  0.000000  1
  As  As6  1  0.689042  0.167902  0.500000  1
  As  As7  1  0.832098  0.521141  0.500000  1
  As  As8  1  0.478859  0.310958  0.500000  1
  As  As9  1  0.167902  0.689042  0.500000  1
  As  As10  1  0.521141  0.832098  0.500000  1
  As  As11  1  0.310958  0.478859  0.500000  1
  As  As12  1  0.175157  0.175157  0.000000  1
  As  As13  1  0.824843  0.000000  0.000000  1
  As  As14  1  0.000000  0.824843  0.000000  1
  As  As15  1  0.628219  0.628219  0.000000  1
  As  As16  1  0.371781  0.000000  0.000000  1
  As  As17  1  0.000000  0.371781  0.000000  1
  Ru  Ru18  1  0.875334  0.362216  0.500000  1
  Ru  Ru19  1  0.637784  0.513119  0.500000  1
  Ru  Ru20  1  0.486881  0.124666  0.500000  1
  Ru  Ru21  1  0.362216  0.875334  0.500000  1
  Ru  Ru22  1  0.513119  0.637784  0.500000  1
  Ru  Ru23  1  0.124666  0.486881  0.500000  1
  Ru  Ru24  1  0.440466  0.440466  0.000000  1
  Ru  Ru25  1  0.559534  0.000000  0.000000  1
  Ru  Ru26  1  0.000000  0.559534  0.000000  1
  Ru  Ru27  1  0.808523  0.182545  0.000000  1
  Ru  Ru28  1  0.817455  0.625977  0.000000  1
  Ru  Ru29  1  0.374023  0.191477  0.000000  1
  Ru  Ru30  1  0.182545  0.808523  0.000000  1
  Ru  Ru31  1  0.625977  0.817455  0.000000  1
  Ru  Ru32  1  0.191477  0.374023  0.000000  1
  Ru  Ru33  1  0.278578  0.278578  0.500000  1
  Ru  Ru34  1  0.721422  0.000000  0.500000  1
  Ru  Ru35  1  0.000000  0.721422  0.500000  1
