# generated using pymatgen
data_K2TbBr5
_symmetry_space_group_name_H-M   'P 1'
_cell_length_a   8.59243100
_cell_length_b   9.08329800
_cell_length_c   13.71902200
_cell_angle_alpha   90.00000000
_cell_angle_beta   90.00000000
_cell_angle_gamma   90.00000000
_symmetry_Int_Tables_number   1
_chemical_formula_structural   K2TbBr5
_chemical_formula_sum   'K8 Tb4 Br20'
_cell_volume   1070.73689671
_cell_formula_units_Z   4
loop_
 _symmetry_equiv_pos_site_id
 _symmetry_equiv_pos_as_xyz
  1  'x, y, z'
loop_
 _atom_site_type_symbol
 _atom_site_label
 _atom_site_symmetry_multiplicity
 _atom_site_fract_x
 _atom_site_fract_y
 _atom_site_fract_z
 _atom_site_occupancy
  K  K0  1  0.946341  0.003594  0.827312  1
  K  K1  1  0.053659  0.996406  0.172688  1
  K  K2  1  0.446341  0.996406  0.672688  1
  K  K3  1  0.053659  0.503594  0.172688  1
  K  K4  1  0.553659  0.003594  0.327312  1
  K  K5  1  0.946341  0.496406  0.827312  1
  K  K6  1  0.553659  0.496406  0.327312  1
  K  K7  1  0.446341  0.503594  0.672688  1
  Tb  Tb8  1  0.924120  0.750000  0.504111  1
  Tb  Tb9  1  0.075880  0.250000  0.495889  1
  Tb  Tb10  1  0.424120  0.250000  0.995889  1
  Tb  Tb11  1  0.575880  0.750000  0.004111  1
  Br  Br12  1  0.120415  0.750000  0.674499  1
  Br  Br13  1  0.879585  0.250000  0.325501  1
  Br  Br14  1  0.620415  0.250000  0.825501  1
  Br  Br15  1  0.379585  0.750000  0.174499  1
  Br  Br16  1  0.837795  0.043310  0.574018  1
  Br  Br17  1  0.162205  0.956690  0.425982  1
  Br  Br18  1  0.337795  0.956690  0.925982  1
  Br  Br19  1  0.162205  0.543310  0.425982  1
  Br  Br20  1  0.662205  0.043310  0.074018  1
  Br  Br21  1  0.837795  0.456690  0.574018  1
  Br  Br22  1  0.662205  0.456690  0.074018  1
  Br  Br23  1  0.337795  0.543310  0.925982  1
  Br  Br24  1  0.583607  0.750000  0.510180  1
  Br  Br25  1  0.416393  0.250000  0.489820  1
  Br  Br26  1  0.083607  0.250000  0.989820  1
  Br  Br27  1  0.916393  0.750000  0.010180  1
  Br  Br28  1  0.658533  0.750000  0.801126  1
  Br  Br29  1  0.341467  0.250000  0.198874  1
  Br  Br30  1  0.158533  0.250000  0.698874  1
  Br  Br31  1  0.841467  0.750000  0.301126  1
