# generated using pymatgen
data_Ho10TlIn4Hg3Pd4
_symmetry_space_group_name_H-M   'P 1'
_cell_length_a   3.61023900
_cell_length_b   8.07679473
_cell_length_c   18.29797331
_cell_angle_alpha   89.98615064
_cell_angle_beta   90.00000000
_cell_angle_gamma   90.00000000
_symmetry_Int_Tables_number   1
_chemical_formula_structural   Ho10TlIn4Hg3Pd4
_chemical_formula_sum   'Ho10 Tl1 In4 Hg3 Pd4'
_cell_volume   533.55350338
_cell_formula_units_Z   1
loop_
 _symmetry_equiv_pos_site_id
 _symmetry_equiv_pos_as_xyz
  1  'x, y, z'
loop_
 _atom_site_type_symbol
 _atom_site_label
 _atom_site_symmetry_multiplicity
 _atom_site_fract_x
 _atom_site_fract_y
 _atom_site_fract_z
 _atom_site_occupancy
  Ho  Ho0  1  0.000000  0.504490  0.497507  1
  Ho  Ho1  1  0.000000  0.000102  0.000308  1
  Ho  Ho2  1  0.000000  0.744091  0.284604  1
  Ho  Ho3  1  0.000000  0.256473  0.719550  1
  Ho  Ho4  1  0.000000  0.756029  0.783906  1
  Ho  Ho5  1  0.000000  0.244447  0.215033  1
  Ho  Ho6  1  0.000000  0.610293  0.084100  1
  Ho  Ho7  1  0.000000  0.391802  0.917198  1
  Ho  Ho8  1  0.000000  0.882346  0.584246  1
  Ho  Ho9  1  0.000000  0.109013  0.414472  1
  Tl  Tl10  1  0.500000  0.210382  0.566732  1
  In  In11  1  0.500000  0.578503  0.649456  1
  In  In12  1  0.500000  0.417407  0.350125  1
  In  In13  1  0.500000  0.919194  0.149079  1
  In  In14  1  0.500000  0.081361  0.851720  1
  Hg  Hg15  1  0.500000  0.713172  0.933603  1
  Hg  Hg16  1  0.500000  0.288928  0.065730  1
  Hg  Hg17  1  0.500000  0.789317  0.433261  1
  Pd  Pd18  1  0.500000  0.530625  0.198107  1
  Pd  Pd19  1  0.500000  0.471164  0.802575  1
  Pd  Pd20  1  0.500000  0.970371  0.697365  1
  Pd  Pd21  1  0.500000  0.030487  0.301324  1
