# generated using pymatgen
data_HfCu4Pt
_symmetry_space_group_name_H-M   'P 1'
_cell_length_a   4.86763513
_cell_length_b   4.86763553
_cell_length_c   4.86763600
_cell_angle_alpha   60.00001038
_cell_angle_beta   60.00000765
_cell_angle_gamma   59.99999998
_symmetry_Int_Tables_number   1
_chemical_formula_structural   HfCu4Pt
_chemical_formula_sum   'Hf1 Cu4 Pt1'
_cell_volume   81.55286530
_cell_formula_units_Z   1
loop_
 _symmetry_equiv_pos_site_id
 _symmetry_equiv_pos_as_xyz
  1  'x, y, z'
loop_
 _atom_site_type_symbol
 _atom_site_label
 _atom_site_symmetry_multiplicity
 _atom_site_fract_x
 _atom_site_fract_y
 _atom_site_fract_z
 _atom_site_occupancy
  Hf  Hf0  1  0.250000  0.250000  0.250000  1
  Cu  Cu1  1  0.625339  0.625339  0.123980  1
  Cu  Cu2  1  0.625339  0.123980  0.625339  1
  Cu  Cu3  1  0.123980  0.625339  0.625339  1
  Cu  Cu4  1  0.625339  0.625339  0.625339  1
  Pt  Pt5  1  0.000000  0.000000  0.000000  1
