# generated using pymatgen
data_YAg6ClO8
_symmetry_space_group_name_H-M   'P 1'
_cell_length_a   7.11574121
_cell_length_b   7.11574074
_cell_length_c   7.11574100
_cell_angle_alpha   60.00000342
_cell_angle_beta   60.00000561
_cell_angle_gamma   59.99999887
_symmetry_Int_Tables_number   1
_chemical_formula_structural   YAg6ClO8
_chemical_formula_sum   'Y1 Ag6 Cl1 O8'
_cell_volume   254.76831874
_cell_formula_units_Z   1
loop_
 _symmetry_equiv_pos_site_id
 _symmetry_equiv_pos_as_xyz
  1  'x, y, z'
loop_
 _atom_site_type_symbol
 _atom_site_label
 _atom_site_symmetry_multiplicity
 _atom_site_fract_x
 _atom_site_fract_y
 _atom_site_fract_z
 _atom_site_occupancy
  Y  Y0  1  0.000000  0.000000  0.000000  1
  Ag  Ag1  1  0.000000  0.000000  0.500000  1
  Ag  Ag2  1  0.500000  0.000000  0.500000  1
  Ag  Ag3  1  0.000000  0.500000  0.500000  1
  Ag  Ag4  1  0.500000  0.500000  0.000000  1
  Ag  Ag5  1  0.000000  0.500000  0.000000  1
  Ag  Ag6  1  0.500000  0.000000  0.000000  1
  Cl  Cl7  1  0.500000  0.500000  0.500000  1
  O  O8  1  0.862419  0.862419  0.412742  1
  O  O9  1  0.862419  0.412742  0.862419  1
  O  O10  1  0.412742  0.862419  0.862419  1
  O  O11  1  0.862419  0.862419  0.862419  1
  O  O12  1  0.137581  0.137581  0.587258  1
  O  O13  1  0.137581  0.587258  0.137581  1
  O  O14  1  0.587258  0.137581  0.137581  1
  O  O15  1  0.137581  0.137581  0.137581  1
