# generated using pymatgen
data_Tb3Y5GaPd24
_symmetry_space_group_name_H-M   'P 1'
_cell_length_a   8.37871900
_cell_length_b   8.37871900
_cell_length_c   8.37871900
_cell_angle_alpha   89.99954868
_cell_angle_beta   89.99954868
_cell_angle_gamma   90.00045132
_symmetry_Int_Tables_number   1
_chemical_formula_structural   Tb3Y5GaPd24
_chemical_formula_sum   'Tb3 Y5 Ga1 Pd24'
_cell_volume   588.21064086
_cell_formula_units_Z   1
loop_
 _symmetry_equiv_pos_site_id
 _symmetry_equiv_pos_as_xyz
  1  'x, y, z'
loop_
 _atom_site_type_symbol
 _atom_site_label
 _atom_site_symmetry_multiplicity
 _atom_site_fract_x
 _atom_site_fract_y
 _atom_site_fract_z
 _atom_site_occupancy
  Tb  Tb0  1  0.748171  0.251829  0.748171  1
  Tb  Tb1  1  0.251829  0.748171  0.748171  1
  Tb  Tb2  1  0.251829  0.251829  0.251829  1
  Y  Y3  1  0.251810  0.251810  0.748190  1
  Y  Y4  1  0.251808  0.748193  0.251807  1
  Y  Y5  1  0.748193  0.251808  0.251807  1
  Y  Y6  1  0.748193  0.748193  0.748192  1
  Y  Y7  1  0.748187  0.748187  0.251813  1
  Ga  Ga8  1  0.999992  0.999992  0.000008  1
  Pd  Pd9  1  0.500002  0.500002  0.746873  1
  Pd  Pd10  1  0.500002  0.253127  0.499998  1
  Pd  Pd11  1  0.253127  0.500002  0.499998  1
  Pd  Pd12  1  0.499984  0.499984  0.253123  1
  Pd  Pd13  1  0.499984  0.746877  0.500016  1
  Pd  Pd14  1  0.746877  0.499984  0.500016  1
  Pd  Pd15  1  0.999997  0.999997  0.708026  1
  Pd  Pd16  1  0.999997  0.291974  0.000003  1
  Pd  Pd17  1  0.291974  0.999997  0.000003  1
  Pd  Pd18  1  0.000006  0.000006  0.291967  1
  Pd  Pd19  1  0.000006  0.708033  0.999994  1
  Pd  Pd20  1  0.708033  0.000006  0.999994  1
  Pd  Pd21  1  0.999998  0.500002  0.739624  1
  Pd  Pd22  1  0.500002  0.260376  0.000002  1
  Pd  Pd23  1  0.260376  0.999998  0.499998  1
  Pd  Pd24  1  0.999998  0.260376  0.499998  1
  Pd  Pd25  1  0.500002  0.999998  0.739624  1
  Pd  Pd26  1  0.260376  0.500002  0.000002  1
  Pd  Pd27  1  0.000011  0.499984  0.260373  1
  Pd  Pd28  1  0.499984  0.739627  0.999989  1
  Pd  Pd29  1  0.000011  0.739627  0.500016  1
  Pd  Pd30  1  0.499984  0.000011  0.260373  1
  Pd  Pd31  1  0.739627  0.000011  0.500016  1
  Pd  Pd32  1  0.739627  0.499984  0.999989  1
