# generated using pymatgen
data_TbTh(B4Rh)2
_symmetry_space_group_name_H-M   'P 1'
_cell_length_a   7.06125539
_cell_length_b   7.06125545
_cell_length_c   7.06125503
_cell_angle_alpha   105.29798614
_cell_angle_beta   111.58830879
_cell_angle_gamma   111.60624512
_symmetry_Int_Tables_number   1
_chemical_formula_structural   TbTh(B4Rh)2
_chemical_formula_sum   'Tb2 Th2 B16 Rh4'
_cell_volume   269.96591755
_cell_formula_units_Z   2
loop_
 _symmetry_equiv_pos_site_id
 _symmetry_equiv_pos_as_xyz
  1  'x, y, z'
loop_
 _atom_site_type_symbol
 _atom_site_label
 _atom_site_symmetry_multiplicity
 _atom_site_fract_x
 _atom_site_fract_y
 _atom_site_fract_z
 _atom_site_occupancy
  Tb  Tb0  1  0.500000  0.250722  0.750722  1
  Tb  Tb1  1  0.000000  0.784337  0.784338  1
  Th  Th2  1  0.000000  0.214076  0.214077  1
  Th  Th3  1  0.500000  0.751093  0.251092  1
  B  B4  1  0.841965  0.734562  0.108435  1
  B  B5  1  0.373873  0.266470  0.108437  1
  B  B6  1  0.998339  0.586120  0.109864  1
  B  B7  1  0.523745  0.111527  0.109866  1
  B  B8  1  0.158101  0.891088  0.264914  1
  B  B9  1  0.373826  0.106813  0.264914  1
  B  B10  1  0.001362  0.890447  0.413836  1
  B  B11  1  0.523390  0.412477  0.413838  1
  B  B12  1  0.001661  0.111526  0.587781  1
  B  B13  1  0.476255  0.586120  0.587782  1
  B  B14  1  0.841899  0.106813  0.732987  1
  B  B15  1  0.626175  0.891086  0.732988  1
  B  B16  1  0.476610  0.890446  0.889084  1
  B  B17  1  0.998638  0.412476  0.889084  1
  B  B18  1  0.158035  0.266471  0.892598  1
  B  B19  1  0.626128  0.734564  0.892598  1
  Rh  Rh20  1  0.759962  0.498214  0.258174  1
  Rh  Rh21  1  0.239700  0.741873  0.502174  1
  Rh  Rh22  1  0.760303  0.262477  0.502174  1
  Rh  Rh23  1  0.240040  0.498213  0.738251  1
