# generated using pymatgen
data_Yb2GaPdPt
_symmetry_space_group_name_H-M   'P 1'
_cell_length_a   5.67081691
_cell_length_b   5.67081661
_cell_length_c   7.80393167
_cell_angle_alpha   78.34005046
_cell_angle_beta   78.34005057
_cell_angle_gamma   59.33564856
_symmetry_Int_Tables_number   1
_chemical_formula_structural   Yb2GaPdPt
_chemical_formula_sum   'Yb4 Ga2 Pd2 Pt2'
_cell_volume   209.94789544
_cell_formula_units_Z   2
loop_
 _symmetry_equiv_pos_site_id
 _symmetry_equiv_pos_as_xyz
  1  'x, y, z'
loop_
 _atom_site_type_symbol
 _atom_site_label
 _atom_site_symmetry_multiplicity
 _atom_site_fract_x
 _atom_site_fract_y
 _atom_site_fract_z
 _atom_site_occupancy
  Yb  Yb0  1  0.788193  0.513875  0.351574  1
  Yb  Yb1  1  0.486125  0.211807  0.148426  1
  Yb  Yb2  1  0.214290  0.489600  0.650869  1
  Yb  Yb3  1  0.510400  0.785710  0.849131  1
  Ga  Ga4  1  0.142440  0.857560  0.250000  1
  Ga  Ga5  1  0.862489  0.137511  0.750000  1
  Pd  Pd6  1  0.996325  0.263451  0.998207  1
  Pd  Pd7  1  0.736549  0.003675  0.501793  1
  Pt  Pt8  1  0.001892  0.738704  0.004721  1
  Pt  Pt9  1  0.261296  0.998108  0.495279  1
