# generated using pymatgen
data_TmLu11GaCo4Rh
_symmetry_space_group_name_H-M   'P 1'
_cell_length_a   8.06220323
_cell_length_b   8.05253162
_cell_length_c   8.05253111
_cell_angle_alpha   110.88186291
_cell_angle_beta   111.13541710
_cell_angle_gamma   106.39227957
_symmetry_Int_Tables_number   1
_chemical_formula_structural   TmLu11GaCo4Rh
_chemical_formula_sum   'Tm1 Lu11 Ga1 Co4 Rh1'
_cell_volume   401.80978256
_cell_formula_units_Z   1
loop_
 _symmetry_equiv_pos_site_id
 _symmetry_equiv_pos_as_xyz
  1  'x, y, z'
loop_
 _atom_site_type_symbol
 _atom_site_label
 _atom_site_symmetry_multiplicity
 _atom_site_fract_x
 _atom_site_fract_y
 _atom_site_fract_z
 _atom_site_occupancy
  Tm  Tm0  1  0.417030  0.723412  0.693618  1
  Lu  Lu1  1  0.581740  0.276409  0.305331  1
  Lu  Lu2  1  0.185942  0.213986  0.400191  1
  Lu  Lu3  1  0.185942  0.785751  0.971957  1
  Lu  Lu4  1  0.684138  0.486595  0.803176  1
  Lu  Lu5  1  0.684138  0.880962  0.197543  1
  Lu  Lu6  1  0.970759  0.276781  0.693979  1
  Lu  Lu7  1  0.028588  0.723334  0.305254  1
  Lu  Lu8  1  0.315887  0.119709  0.802944  1
  Lu  Lu9  1  0.315887  0.512943  0.196177  1
  Lu  Lu10  1  0.814561  0.215252  0.029416  1
  Lu  Lu11  1  0.814561  0.785143  0.599309  1
  Ga  Ga12  1  0.500190  0.000618  0.499572  1
  Co  Co13  1  0.886727  0.885884  0.000844  1
  Co  Co14  1  0.374142  0.499728  0.874415  1
  Co  Co15  1  0.627530  0.500227  0.127303  1
  Co  Co16  1  0.114101  0.114078  0.000022  1
  Rh  Rh17  1  0.998138  0.499187  0.498950  1
