# generated using pymatgen
data_Y8Hg3Os
_symmetry_space_group_name_H-M   'P 1'
_cell_length_a   10.19413400
_cell_length_b   10.19415491
_cell_length_c   7.34990100
_cell_angle_alpha   90.00000000
_cell_angle_beta   90.00000000
_cell_angle_gamma   119.99995076
_symmetry_Int_Tables_number   1
_chemical_formula_structural   Y8Hg3Os
_chemical_formula_sum   'Y16 Hg6 Os2'
_cell_volume   661.47571325
_cell_formula_units_Z   2
loop_
 _symmetry_equiv_pos_site_id
 _symmetry_equiv_pos_as_xyz
  1  'x, y, z'
loop_
 _atom_site_type_symbol
 _atom_site_label
 _atom_site_symmetry_multiplicity
 _atom_site_fract_x
 _atom_site_fract_y
 _atom_site_fract_z
 _atom_site_occupancy
  Y  Y0  1  0.461276  0.538724  0.476142  1
  Y  Y1  1  0.077448  0.538725  0.476144  1
  Y  Y2  1  0.461275  0.922551  0.476144  1
  Y  Y3  1  0.538724  0.461276  0.976142  1
  Y  Y4  1  0.922552  0.461275  0.976144  1
  Y  Y5  1  0.538725  0.077449  0.976144  1
  Y  Y6  1  0.825924  0.174075  0.288216  1
  Y  Y7  1  0.348150  0.174076  0.288214  1
  Y  Y8  1  0.825925  0.651851  0.288214  1
  Y  Y9  1  0.174076  0.825925  0.788216  1
  Y  Y10  1  0.651850  0.825924  0.788214  1
  Y  Y11  1  0.174075  0.348149  0.788214  1
  Y  Y12  1  0.333334  0.666665  0.090473  1
  Y  Y13  1  0.666666  0.333335  0.590473  1
  Y  Y14  1  0.000000  0.999999  0.507399  1
  Y  Y15  1  0.000000  0.000001  0.007399  1
  Hg  Hg16  1  0.166938  0.833065  0.223335  1
  Hg  Hg17  1  0.666127  0.833064  0.223334  1
  Hg  Hg18  1  0.166937  0.333874  0.223334  1
  Hg  Hg19  1  0.833062  0.166935  0.723335  1
  Hg  Hg20  1  0.333873  0.166936  0.723334  1
  Hg  Hg21  1  0.833063  0.666126  0.723334  1
  Os  Os22  1  0.333334  0.666665  0.711330  1
  Os  Os23  1  0.666666  0.333335  0.211330  1
