# generated using pymatgen
data_Ho9Er(BiPb)3
_symmetry_space_group_name_H-M   'P 1'
_cell_length_a   9.10255500
_cell_length_b   9.10255673
_cell_length_c   6.44667700
_cell_angle_alpha   90.00000000
_cell_angle_beta   90.00000000
_cell_angle_gamma   120.00000462
_symmetry_Int_Tables_number   1
_chemical_formula_structural   Ho9Er(BiPb)3
_chemical_formula_sum   'Ho9 Er1 Bi3 Pb3'
_cell_volume   462.58679219
_cell_formula_units_Z   1
loop_
 _symmetry_equiv_pos_site_id
 _symmetry_equiv_pos_as_xyz
  1  'x, y, z'
loop_
 _atom_site_type_symbol
 _atom_site_label
 _atom_site_symmetry_multiplicity
 _atom_site_fract_x
 _atom_site_fract_y
 _atom_site_fract_z
 _atom_site_occupancy
  Ho  Ho0  1  0.666667  0.333333  0.002838  1
  Ho  Ho1  1  0.333333  0.666667  0.002823  1
  Ho  Ho2  1  0.333333  0.666667  0.497188  1
  Ho  Ho3  1  0.761872  0.761873  0.749973  1
  Ho  Ho4  1  0.238127  0.999999  0.749973  1
  Ho  Ho5  1  0.000001  0.238128  0.749973  1
  Ho  Ho6  1  0.238438  0.238432  0.250018  1
  Ho  Ho7  1  0.761568  0.000006  0.250018  1
  Ho  Ho8  1  0.999994  0.761562  0.250018  1
  Er  Er9  1  0.666667  0.333333  0.497153  1
  Bi  Bi10  1  0.392995  0.392920  0.749936  1
  Bi  Bi11  1  0.607080  0.000074  0.749936  1
  Bi  Bi12  1  0.999926  0.607005  0.749936  1
  Pb  Pb13  1  0.607479  0.607397  0.250072  1
  Pb  Pb14  1  0.392603  0.000082  0.250072  1
  Pb  Pb15  1  0.999918  0.392521  0.250072  1
