# generated using pymatgen
data_Tl2IrRu3Pb2O13
_symmetry_space_group_name_H-M   'P 1'
_cell_length_a   7.32026436
_cell_length_b   7.33221840
_cell_length_c   7.34853085
_cell_angle_alpha   60.17805171
_cell_angle_beta   60.12716184
_cell_angle_gamma   60.05390298
_symmetry_Int_Tables_number   1
_chemical_formula_structural   Tl2IrRu3Pb2O13
_chemical_formula_sum   'Tl2 Ir1 Ru3 Pb2 O13'
_cell_volume   279.65517082
_cell_formula_units_Z   1
loop_
 _symmetry_equiv_pos_site_id
 _symmetry_equiv_pos_as_xyz
  1  'x, y, z'
loop_
 _atom_site_type_symbol
 _atom_site_label
 _atom_site_symmetry_multiplicity
 _atom_site_fract_x
 _atom_site_fract_y
 _atom_site_fract_z
 _atom_site_occupancy
  Tl  Tl0  1  0.884689  0.371750  0.372126  1
  Tl  Tl1  1  0.371436  0.371750  0.372126  1
  Ir  Ir2  1  0.875233  0.373847  0.875685  1
  Ru  Ru3  1  0.875370  0.875666  0.373593  1
  Ru  Ru4  1  0.874838  0.875592  0.875766  1
  Ru  Ru5  1  0.373803  0.875592  0.875766  1
  Pb  Pb6  1  0.373980  0.375458  0.876583  1
  Pb  Pb7  1  0.373325  0.877520  0.375830  1
  O  O8  1  0.197232  0.802585  0.802949  1
  O  O9  1  0.196520  0.805132  0.195494  1
  O  O10  1  0.555006  0.945317  0.944669  1
  O  O11  1  0.554398  0.943315  0.554893  1
  O  O12  1  0.947393  0.943315  0.554893  1
  O  O13  1  0.802854  0.805132  0.195494  1
  O  O14  1  0.551796  0.552142  0.945557  1
  O  O15  1  0.799667  0.198152  0.802875  1
  O  O16  1  0.802527  0.198078  0.196868  1
  O  O17  1  0.950506  0.552142  0.945557  1
  O  O18  1  0.947303  0.552031  0.553363  1
  O  O19  1  0.199306  0.198152  0.802875  1
  O  O20  1  0.492815  0.507335  0.507035  1
