# generated using pymatgen
data_Ba12AlCo3O19
_symmetry_space_group_name_H-M   'P 1'
_cell_length_a   7.87016587
_cell_length_b   7.87532875
_cell_length_c   10.51134200
_cell_angle_alpha   89.96711541
_cell_angle_beta   90.03950195
_cell_angle_gamma   96.60614519
_symmetry_Int_Tables_number   1
_chemical_formula_structural   Ba12AlCo3O19
_chemical_formula_sum   'Ba12 Al1 Co3 O19'
_cell_volume   647.16861010
_cell_formula_units_Z   1
loop_
 _symmetry_equiv_pos_site_id
 _symmetry_equiv_pos_as_xyz
  1  'x, y, z'
loop_
 _atom_site_type_symbol
 _atom_site_label
 _atom_site_symmetry_multiplicity
 _atom_site_fract_x
 _atom_site_fract_y
 _atom_site_fract_z
 _atom_site_occupancy
  Ba  Ba0  1  0.729861  0.251108  0.499050  1
  Ba  Ba1  1  0.277074  0.749091  0.996128  1
  Ba  Ba2  1  0.723514  0.249547  0.003096  1
  Ba  Ba3  1  0.268318  0.747216  0.500282  1
  Ba  Ba4  1  0.578879  0.577265  0.246912  1
  Ba  Ba5  1  0.063830  0.071658  0.763768  1
  Ba  Ba6  1  0.421876  0.425557  0.754646  1
  Ba  Ba7  1  0.929917  0.928808  0.234280  1
  Ba  Ba8  1  0.745884  0.745942  0.925994  1
  Ba  Ba9  1  0.264251  0.257019  0.427391  1
  Ba  Ba10  1  0.256833  0.251171  0.072773  1
  Ba  Ba11  1  0.736269  0.740364  0.574967  1
  Al  Al12  1  0.495210  0.997277  0.742213  1
  Co  Co13  1  0.502039  0.000501  0.257039  1
  Co  Co14  1  0.996223  0.497983  0.742439  1
  Co  Co15  1  0.004867  0.502564  0.257991  1
  O  O16  1  0.263591  0.966424  0.286148  1
  O  O17  1  0.767135  0.459726  0.759439  1
  O  O18  1  0.532376  0.240553  0.244206  1
  O  O19  1  0.037717  0.728008  0.714312  1
  O  O20  1  0.934840  0.630596  0.387424  1
  O  O21  1  0.424354  0.104554  0.880344  1
  O  O22  1  0.895391  0.574663  0.119905  1
  O  O23  1  0.366579  0.067208  0.614256  1
  O  O24  1  0.234169  0.541005  0.241217  1
  O  O25  1  0.722941  0.039096  0.711268  1
  O  O26  1  0.961795  0.272889  0.286496  1
  O  O27  1  0.463666  0.768728  0.759935  1
  O  O28  1  0.587808  0.891668  0.115748  1
  O  O29  1  0.067026  0.370458  0.613167  1
  O  O30  1  0.640618  0.923769  0.387743  1
  O  O31  1  0.105659  0.425646  0.880375  1
  O  O32  1  0.499875  0.499921  0.999760  1
  O  O33  1  0.000109  0.001790  0.997837  1
  O  O34  1  0.499507  0.500231  0.501453  1
