# generated using pymatgen
data_TbDyP7(Rh3W)3
_symmetry_space_group_name_H-M   'P 1'
_cell_length_a   3.94725005
_cell_length_b   9.52188222
_cell_length_c   9.52103502
_cell_angle_alpha   119.99906438
_cell_angle_beta   89.99953113
_cell_angle_gamma   90.00239413
_symmetry_Int_Tables_number   1
_chemical_formula_structural   TbDyP7(Rh3W)3
_chemical_formula_sum   'Tb1 Dy1 P7 Rh9 W3'
_cell_volume   309.91052931
_cell_formula_units_Z   1
loop_
 _symmetry_equiv_pos_site_id
 _symmetry_equiv_pos_as_xyz
  1  'x, y, z'
loop_
 _atom_site_type_symbol
 _atom_site_label
 _atom_site_symmetry_multiplicity
 _atom_site_fract_x
 _atom_site_fract_y
 _atom_site_fract_z
 _atom_site_occupancy
  Tb  Tb0  1  0.261623  0.666598  0.333240  1
  Dy  Dy1  1  0.762611  0.333349  0.666697  1
  P  P2  1  0.261639  0.999998  0.999912  1
  P  P3  1  0.762102  0.881323  0.592059  1
  P  P4  1  0.762117  0.407931  0.289267  1
  P  P5  1  0.762115  0.710721  0.118602  1
  P  P6  1  0.261912  0.118889  0.412352  1
  P  P7  1  0.261920  0.587707  0.706588  1
  P  P8  1  0.261858  0.293478  0.881158  1
  Rh  Rh9  1  0.261676  0.886518  0.159498  1
  Rh  Rh10  1  0.261672  0.840430  0.726808  1
  Rh  Rh11  1  0.261661  0.273071  0.113619  1
  Rh  Rh12  1  0.761892  0.613881  0.559974  1
  Rh  Rh13  1  0.761872  0.439904  0.053780  1
  Rh  Rh14  1  0.761898  0.946019  0.386068  1
  Rh  Rh15  1  0.262138  0.371149  0.438940  1
  Rh  Rh16  1  0.262107  0.561237  0.932339  1
  Rh  Rh17  1  0.262151  0.067755  0.628931  1
  W  W18  1  0.761682  0.090575  0.869873  1
  W  W19  1  0.761682  0.130270  0.221001  1
  W  W20  1  0.761671  0.779197  0.909294  1
