# generated using pymatgen
data_DyYGa9RuPt2
_symmetry_space_group_name_H-M   'P 1'
_cell_length_a   7.63458503
_cell_length_b   7.63453826
_cell_length_c   9.50509400
_cell_angle_alpha   90.00000000
_cell_angle_beta   90.00000000
_cell_angle_gamma   119.76872735
_symmetry_Int_Tables_number   1
_chemical_formula_structural   DyYGa9RuPt2
_chemical_formula_sum   'Dy2 Y2 Ga18 Ru2 Pt4'
_cell_volume   480.90872309
_cell_formula_units_Z   2
loop_
 _symmetry_equiv_pos_site_id
 _symmetry_equiv_pos_as_xyz
  1  'x, y, z'
loop_
 _atom_site_type_symbol
 _atom_site_label
 _atom_site_symmetry_multiplicity
 _atom_site_fract_x
 _atom_site_fract_y
 _atom_site_fract_z
 _atom_site_occupancy
  Dy  Dy0  1  0.002267  0.326616  0.749639  1
  Dy  Dy1  1  0.997733  0.673384  0.249639  1
  Y  Y2  1  0.326534  0.002257  0.750327  1
  Y  Y3  1  0.673466  0.997743  0.250327  1
  Ga  Ga4  1  0.864246  0.864339  0.750005  1
  Ga  Ga5  1  0.135754  0.135661  0.250005  1
  Ga  Ga6  1  0.661953  0.667697  0.432383  1
  Ga  Ga7  1  0.338047  0.332303  0.932383  1
  Ga  Ga8  1  0.667756  0.661916  0.067598  1
  Ga  Ga9  1  0.332244  0.338084  0.567598  1
  Ga  Ga10  1  0.449926  0.660841  0.746794  1
  Ga  Ga11  1  0.550074  0.339159  0.246794  1
  Ga  Ga12  1  0.660977  0.450022  0.753223  1
  Ga  Ga13  1  0.339023  0.549978  0.253223  1
  Ga  Ga14  1  0.994176  0.335763  0.081949  1
  Ga  Ga15  1  0.005824  0.664237  0.581949  1
  Ga  Ga16  1  0.335535  0.994051  0.417995  1
  Ga  Ga17  1  0.664465  0.005949  0.917995  1
  Ga  Ga18  1  0.994615  0.658096  0.918561  1
  Ga  Ga19  1  0.005385  0.341904  0.418561  1
  Ga  Ga20  1  0.658206  0.994645  0.581522  1
  Ga  Ga21  1  0.341794  0.005355  0.081522  1
  Ru  Ru22  1  0.328223  0.671593  0.499964  1
  Ru  Ru23  1  0.671777  0.328407  0.999964  1
  Pt  Pt24  1  0.000391  0.999760  0.500006  1
  Pt  Pt25  1  0.999609  0.000240  0.000006  1
  Pt  Pt26  1  0.671611  0.328431  0.500033  1
  Pt  Pt27  1  0.328389  0.671569  0.000033  1
