# generated using pymatgen
data_NdTh3(HgPt2)2
_symmetry_space_group_name_H-M   'P 1'
_cell_length_a   8.01697558
_cell_length_b   8.01697558
_cell_length_c   3.77350000
_cell_angle_alpha   90.00000000
_cell_angle_beta   90.00000000
_cell_angle_gamma   91.09134826
_symmetry_Int_Tables_number   1
_chemical_formula_structural   NdTh3(HgPt2)2
_chemical_formula_sum   'Nd1 Th3 Hg2 Pt4'
_cell_volume   242.48600992
_cell_formula_units_Z   1
loop_
 _symmetry_equiv_pos_site_id
 _symmetry_equiv_pos_as_xyz
  1  'x, y, z'
loop_
 _atom_site_type_symbol
 _atom_site_label
 _atom_site_symmetry_multiplicity
 _atom_site_fract_x
 _atom_site_fract_y
 _atom_site_fract_z
 _atom_site_occupancy
  Nd  Nd0  1  0.674135  0.825866  0.500000  1
  Th  Th1  1  0.328695  0.171306  0.500000  1
  Th  Th2  1  0.826397  0.328167  0.500000  1
  Th  Th3  1  0.171834  0.673604  0.500000  1
  Hg  Hg4  1  0.996372  0.999215  0.000000  1
  Hg  Hg5  1  0.500785  0.503628  0.000000  1
  Pt  Pt6  1  0.624389  0.134119  0.000000  1
  Pt  Pt7  1  0.131374  0.368627  0.000000  1
  Pt  Pt8  1  0.880141  0.619859  0.000000  1
  Pt  Pt9  1  0.365882  0.875611  0.000000  1
