# generated using pymatgen
data_Tb4ZnSi3Ni4
_symmetry_space_group_name_H-M   'P 1'
_cell_length_a   4.20549800
_cell_length_b   6.91536516
_cell_length_c   7.14897727
_cell_angle_alpha   89.71522724
_cell_angle_beta   90.00000000
_cell_angle_gamma   90.00000000
_symmetry_Int_Tables_number   1
_chemical_formula_structural   Tb4ZnSi3Ni4
_chemical_formula_sum   'Tb4 Zn1 Si3 Ni4'
_cell_volume   207.90795218
_cell_formula_units_Z   1
loop_
 _symmetry_equiv_pos_site_id
 _symmetry_equiv_pos_as_xyz
  1  'x, y, z'
loop_
 _atom_site_type_symbol
 _atom_site_label
 _atom_site_symmetry_multiplicity
 _atom_site_fract_x
 _atom_site_fract_y
 _atom_site_fract_z
 _atom_site_occupancy
  Tb  Tb0  1  0.250000  0.484537  0.200770  1
  Tb  Tb1  1  0.750000  0.509623  0.798601  1
  Tb  Tb2  1  0.750000  0.011501  0.700565  1
  Tb  Tb3  1  0.250000  0.990290  0.303898  1
  Zn  Zn4  1  0.250000  0.808372  0.909543  1
  Si  Si5  1  0.750000  0.185457  0.086269  1
  Si  Si6  1  0.750000  0.689259  0.411185  1
  Si  Si7  1  0.250000  0.306236  0.590348  1
  Ni  Ni8  1  0.250000  0.670755  0.568224  1
  Ni  Ni9  1  0.750000  0.312742  0.416850  1
  Ni  Ni10  1  0.750000  0.825297  0.095693  1
  Ni  Ni11  1  0.250000  0.205931  0.918055  1
