# generated using pymatgen
data_Y8Tl3Ir
_symmetry_space_group_name_H-M   'P 1'
_cell_length_a   10.44688300
_cell_length_b   10.44688319
_cell_length_c   7.13088100
_cell_angle_alpha   90.00000000
_cell_angle_beta   90.00000000
_cell_angle_gamma   120.00000256
_symmetry_Int_Tables_number   1
_chemical_formula_structural   Y8Tl3Ir
_chemical_formula_sum   'Y16 Tl6 Ir2'
_cell_volume   673.98041878
_cell_formula_units_Z   2
loop_
 _symmetry_equiv_pos_site_id
 _symmetry_equiv_pos_as_xyz
  1  'x, y, z'
loop_
 _atom_site_type_symbol
 _atom_site_label
 _atom_site_symmetry_multiplicity
 _atom_site_fract_x
 _atom_site_fract_y
 _atom_site_fract_z
 _atom_site_occupancy
  Y  Y0  1  0.465125  0.534875  0.480013  1
  Y  Y1  1  0.069749  0.534875  0.480013  1
  Y  Y2  1  0.465125  0.930251  0.480013  1
  Y  Y3  1  0.534875  0.465125  0.980013  1
  Y  Y4  1  0.930251  0.465125  0.980013  1
  Y  Y5  1  0.534875  0.069749  0.980013  1
  Y  Y6  1  0.824233  0.175767  0.276395  1
  Y  Y7  1  0.351532  0.175767  0.276395  1
  Y  Y8  1  0.824233  0.648468  0.276395  1
  Y  Y9  1  0.175767  0.824233  0.776395  1
  Y  Y10  1  0.648468  0.824233  0.776395  1
  Y  Y11  1  0.175767  0.351532  0.776395  1
  Y  Y12  1  0.333333  0.666667  0.099926  1
  Y  Y13  1  0.666667  0.333333  0.599926  1
  Y  Y14  1  0.000000  0.000000  0.498001  1
  Y  Y15  1  0.000000  0.000000  0.998001  1
  Tl  Tl16  1  0.163330  0.836670  0.232450  1
  Tl  Tl17  1  0.673341  0.836670  0.232450  1
  Tl  Tl18  1  0.163330  0.326659  0.232450  1
  Tl  Tl19  1  0.836670  0.163330  0.732450  1
  Tl  Tl20  1  0.326659  0.163330  0.732450  1
  Tl  Tl21  1  0.836670  0.673341  0.732450  1
  Ir  Ir22  1  0.333333  0.666667  0.707780  1
  Ir  Ir23  1  0.666667  0.333333  0.207780  1
