# generated using pymatgen
data_Eu3MoN4
_symmetry_space_group_name_H-M   'P 1'
_cell_length_a   6.74756603
_cell_length_b   6.74756481
_cell_length_c   6.57810959
_cell_angle_alpha   92.84481291
_cell_angle_beta   92.84482739
_cell_angle_gamma   75.51807739
_symmetry_Int_Tables_number   1
_chemical_formula_structural   Eu3MoN4
_chemical_formula_sum   'Eu6 Mo2 N8'
_cell_volume   289.41088354
_cell_formula_units_Z   2
loop_
 _symmetry_equiv_pos_site_id
 _symmetry_equiv_pos_as_xyz
  1  'x, y, z'
loop_
 _atom_site_type_symbol
 _atom_site_label
 _atom_site_symmetry_multiplicity
 _atom_site_fract_x
 _atom_site_fract_y
 _atom_site_fract_z
 _atom_site_occupancy
  Eu  Eu0  1  0.163872  0.606288  0.188430  1
  Eu  Eu1  1  0.836128  0.393712  0.811570  1
  Eu  Eu2  1  0.393712  0.836128  0.811570  1
  Eu  Eu3  1  0.606288  0.163872  0.188430  1
  Eu  Eu4  1  0.112433  0.112433  0.306420  1
  Eu  Eu5  1  0.887567  0.887567  0.693580  1
  Mo  Mo6  1  0.684855  0.684855  0.316012  1
  Mo  Mo7  1  0.315145  0.315145  0.683988  1
  N  N8  1  0.133690  0.133690  0.681084  1
  N  N9  1  0.866310  0.866310  0.318916  1
  N  N10  1  0.568061  0.167932  0.811091  1
  N  N11  1  0.431939  0.832068  0.188909  1
  N  N12  1  0.832068  0.431939  0.188909  1
  N  N13  1  0.167932  0.568061  0.811091  1
  N  N14  1  0.334899  0.334899  0.403488  1
  N  N15  1  0.665101  0.665101  0.596512  1
