# generated using pymatgen
data_Tb8ZnCo2Si12Pd
_symmetry_space_group_name_H-M   'P 1'
_cell_length_a   8.06796800
_cell_length_b   8.06796779
_cell_length_c   8.13451500
_cell_angle_alpha   90.00000000
_cell_angle_beta   90.00000000
_cell_angle_gamma   120.00000087
_symmetry_Int_Tables_number   1
_chemical_formula_structural   Tb8ZnCo2Si12Pd
_chemical_formula_sum   'Tb8 Zn1 Co2 Si12 Pd1'
_cell_volume   458.55413581
_cell_formula_units_Z   1
loop_
 _symmetry_equiv_pos_site_id
 _symmetry_equiv_pos_as_xyz
  1  'x, y, z'
loop_
 _atom_site_type_symbol
 _atom_site_label
 _atom_site_symmetry_multiplicity
 _atom_site_fract_x
 _atom_site_fract_y
 _atom_site_fract_z
 _atom_site_occupancy
  Tb  Tb0  1  0.499759  0.999518  0.241554  1
  Tb  Tb1  1  0.499493  0.998986  0.758417  1
  Tb  Tb2  1  0.000482  0.500241  0.241554  1
  Tb  Tb3  1  0.001014  0.500507  0.758417  1
  Tb  Tb4  1  0.499759  0.500241  0.241554  1
  Tb  Tb5  1  0.499493  0.500507  0.758417  1
  Tb  Tb6  1  0.000000  0.000000  0.247421  1
  Tb  Tb7  1  0.000000  0.000000  0.752795  1
  Zn  Zn8  1  0.666667  0.333333  0.500346  1
  Co  Co9  1  0.333333  0.666667  0.001289  1
  Co  Co10  1  0.666667  0.333333  0.998673  1
  Si  Si11  1  0.171786  0.343572  0.000005  1
  Si  Si12  1  0.828204  0.656408  0.999991  1
  Si  Si13  1  0.656428  0.828214  0.000005  1
  Si  Si14  1  0.835746  0.671490  0.500541  1
  Si  Si15  1  0.343592  0.171796  0.999991  1
  Si  Si16  1  0.166419  0.332837  0.499515  1
  Si  Si17  1  0.171786  0.828214  0.000005  1
  Si  Si18  1  0.328510  0.164254  0.500541  1
  Si  Si19  1  0.828204  0.171796  0.999991  1
  Si  Si20  1  0.667163  0.833581  0.499515  1
  Si  Si21  1  0.835746  0.164254  0.500541  1
  Si  Si22  1  0.166419  0.833581  0.499515  1
  Pd  Pd23  1  0.333333  0.666667  0.499404  1
