# generated using pymatgen
data_YTm6Lu9(In3Ir)2
_symmetry_space_group_name_H-M   'P 1'
_cell_length_a   10.23129600
_cell_length_b   10.23129765
_cell_length_c   6.99733300
_cell_angle_alpha   90.00000000
_cell_angle_beta   90.00000000
_cell_angle_gamma   120.00000760
_symmetry_Int_Tables_number   1
_chemical_formula_structural   YTm6Lu9(In3Ir)2
_chemical_formula_sum   'Y1 Tm6 Lu9 In6 Ir2'
_cell_volume   634.34352246
_cell_formula_units_Z   1
loop_
 _symmetry_equiv_pos_site_id
 _symmetry_equiv_pos_as_xyz
  1  'x, y, z'
loop_
 _atom_site_type_symbol
 _atom_site_label
 _atom_site_symmetry_multiplicity
 _atom_site_fract_x
 _atom_site_fract_y
 _atom_site_fract_z
 _atom_site_occupancy
  Y  Y0  1  0.000000  0.000000  0.995763  1
  Tm  Tm1  1  0.466757  0.533243  0.480546  1
  Tm  Tm2  1  0.066484  0.533243  0.480546  1
  Tm  Tm3  1  0.466757  0.933516  0.480546  1
  Tm  Tm4  1  0.533388  0.466612  0.980698  1
  Tm  Tm5  1  0.933224  0.466612  0.980698  1
  Tm  Tm6  1  0.533388  0.066776  0.980698  1
  Lu  Lu7  1  0.822404  0.177596  0.278060  1
  Lu  Lu8  1  0.355192  0.177596  0.278060  1
  Lu  Lu9  1  0.822404  0.644808  0.278060  1
  Lu  Lu10  1  0.177690  0.822310  0.775958  1
  Lu  Lu11  1  0.644619  0.822310  0.775958  1
  Lu  Lu12  1  0.177690  0.355381  0.775958  1
  Lu  Lu13  1  0.333333  0.666667  0.098175  1
  Lu  Lu14  1  0.666667  0.333333  0.597895  1
  Lu  Lu15  1  0.000000  0.000000  0.496347  1
  In  In16  1  0.162710  0.837290  0.234484  1
  In  In17  1  0.674579  0.837290  0.234484  1
  In  In18  1  0.162710  0.325421  0.234484  1
  In  In19  1  0.837319  0.162681  0.732208  1
  In  In20  1  0.325361  0.162681  0.732208  1
  In  In21  1  0.837319  0.674639  0.732208  1
  Ir  Ir22  1  0.333333  0.666667  0.705532  1
  Ir  Ir23  1  0.666667  0.333333  0.204974  1
