# generated using pymatgen
data_SmYHo8(In2Pd)4
_symmetry_space_group_name_H-M   'P 1'
_cell_length_a   3.61466200
_cell_length_b   8.16687785
_cell_length_c   18.30291313
_cell_angle_alpha   90.07709713
_cell_angle_beta   90.00000000
_cell_angle_gamma   90.00000000
_symmetry_Int_Tables_number   1
_chemical_formula_structural   SmYHo8(In2Pd)4
_chemical_formula_sum   'Sm1 Y1 Ho8 In8 Pd4'
_cell_volume   540.31071349
_cell_formula_units_Z   1
loop_
 _symmetry_equiv_pos_site_id
 _symmetry_equiv_pos_as_xyz
  1  'x, y, z'
loop_
 _atom_site_type_symbol
 _atom_site_label
 _atom_site_symmetry_multiplicity
 _atom_site_fract_x
 _atom_site_fract_y
 _atom_site_fract_z
 _atom_site_occupancy
  Sm  Sm0  1  0.000000  0.500000  0.500000  1
  Y  Y1  1  0.000000  0.000000  0.000000  1
  Ho  Ho2  1  0.000000  0.739195  0.280668  1
  Ho  Ho3  1  0.000000  0.260805  0.719332  1
  Ho  Ho4  1  0.000000  0.760725  0.780675  1
  Ho  Ho5  1  0.000000  0.239275  0.219325  1
  Ho  Ho6  1  0.000000  0.617177  0.083655  1
  Ho  Ho7  1  0.000000  0.382823  0.916345  1
  Ho  Ho8  1  0.000000  0.882255  0.583681  1
  Ho  Ho9  1  0.000000  0.117745  0.416319  1
  In  In10  1  0.500000  0.707715  0.932197  1
  In  In11  1  0.500000  0.292285  0.067803  1
  In  In12  1  0.500000  0.794171  0.431711  1
  In  In13  1  0.500000  0.205829  0.568289  1
  In  In14  1  0.500000  0.581078  0.651271  1
  In  In15  1  0.500000  0.418922  0.348729  1
  In  In16  1  0.500000  0.919352  0.150440  1
  In  In17  1  0.500000  0.080648  0.849560  1
  Pd  Pd18  1  0.500000  0.522792  0.195729  1
  Pd  Pd19  1  0.500000  0.477208  0.804271  1
  Pd  Pd20  1  0.500000  0.977239  0.696010  1
  Pd  Pd21  1  0.500000  0.022761  0.303990  1
