# generated using pymatgen
data_Dy13Ho3(CdCo)4
_symmetry_space_group_name_H-M   'P 1'
_cell_length_a   9.48627877
_cell_length_b   9.48089267
_cell_length_c   9.48557100
_cell_angle_alpha   59.98367902
_cell_angle_beta   60.00247154
_cell_angle_gamma   59.98282533
_symmetry_Int_Tables_number   1
_chemical_formula_structural   Dy13Ho3(CdCo)4
_chemical_formula_sum   'Dy13 Ho3 Cd4 Co4'
_cell_volume   603.10331659
_cell_formula_units_Z   1
loop_
 _symmetry_equiv_pos_site_id
 _symmetry_equiv_pos_as_xyz
  1  'x, y, z'
loop_
 _atom_site_type_symbol
 _atom_site_label
 _atom_site_symmetry_multiplicity
 _atom_site_fract_x
 _atom_site_fract_y
 _atom_site_fract_z
 _atom_site_occupancy
  Dy  Dy0  1  0.938114  0.561830  0.561844  1
  Dy  Dy1  1  0.538894  0.153834  0.153636  1
  Dy  Dy2  1  0.153602  0.153796  0.538838  1
  Dy  Dy3  1  0.938080  0.938226  0.561847  1
  Dy  Dy4  1  0.311815  0.688128  0.311691  1
  Dy  Dy5  1  0.561882  0.938178  0.938136  1
  Dy  Dy6  1  0.561882  0.938178  0.561803  1
  Dy  Dy7  1  0.688379  0.688026  0.311797  1
  Dy  Dy8  1  0.561864  0.561779  0.938178  1
  Dy  Dy9  1  0.938114  0.561830  0.938212  1
  Dy  Dy10  1  0.311815  0.688128  0.688366  1
  Dy  Dy11  1  0.153602  0.153796  0.153763  1
  Dy  Dy12  1  0.311960  0.311741  0.688149  1
  Ho  Ho13  1  0.153853  0.538574  0.153786  1
  Ho  Ho14  1  0.688206  0.311769  0.688159  1
  Ho  Ho15  1  0.688206  0.311769  0.311866  1
  Cd  Cd16  1  0.919425  0.241602  0.919487  1
  Cd  Cd17  1  0.919441  0.919471  0.919430  1
  Cd  Cd18  1  0.919441  0.919471  0.241658  1
  Cd  Cd19  1  0.241640  0.919424  0.919468  1
  Co  Co20  1  0.358955  0.359170  0.922937  1
  Co  Co21  1  0.359010  0.922937  0.359027  1
  Co  Co22  1  0.922866  0.359170  0.358983  1
  Co  Co23  1  0.358955  0.359170  0.358939  1
