# generated using pymatgen
data_LaCu2SnAu3
_symmetry_space_group_name_H-M   'P 1'
_cell_length_a   5.47879413
_cell_length_b   9.00776116
_cell_length_c   11.00922210
_cell_angle_alpha   90.00177725
_cell_angle_beta   90.00016686
_cell_angle_gamma   90.00111160
_symmetry_Int_Tables_number   1
_chemical_formula_structural   LaCu2SnAu3
_chemical_formula_sum   'La4 Cu8 Sn4 Au12'
_cell_volume   543.32348404
_cell_formula_units_Z   4
loop_
 _symmetry_equiv_pos_site_id
 _symmetry_equiv_pos_as_xyz
  1  'x, y, z'
loop_
 _atom_site_type_symbol
 _atom_site_label
 _atom_site_symmetry_multiplicity
 _atom_site_fract_x
 _atom_site_fract_y
 _atom_site_fract_z
 _atom_site_occupancy
  La  La0  1  0.249913  0.755572  0.059788  1
  La  La1  1  0.750100  0.244370  0.940122  1
  La  La2  1  0.749954  0.744434  0.559814  1
  La  La3  1  0.249892  0.255658  0.440157  1
  Cu  Cu4  1  0.507634  0.561815  0.800569  1
  Cu  Cu5  1  0.492466  0.438194  0.199559  1
  Cu  Cu6  1  0.492408  0.938279  0.300436  1
  Cu  Cu7  1  0.007548  0.438318  0.199590  1
  Cu  Cu8  1  0.507757  0.061717  0.699522  1
  Cu  Cu9  1  0.992376  0.561774  0.800482  1
  Cu  Cu10  1  0.992260  0.061687  0.699466  1
  Cu  Cu11  1  0.007695  0.938323  0.300475  1
  Sn  Sn12  1  0.249970  0.651242  0.346135  1
  Sn  Sn13  1  0.750071  0.348710  0.653900  1
  Sn  Sn14  1  0.750099  0.848740  0.846061  1
  Sn  Sn15  1  0.249913  0.151228  0.153929  1
  Au  Au16  1  0.250082  0.809817  0.757007  1
  Au  Au17  1  0.749948  0.190145  0.242962  1
  Au  Au18  1  0.749989  0.690206  0.257012  1
  Au  Au19  1  0.250011  0.309786  0.743004  1
  Au  Au20  1  0.249978  0.926752  0.512209  1
  Au  Au21  1  0.749917  0.073333  0.487769  1
  Au  Au22  1  0.749966  0.573266  0.012223  1
  Au  Au23  1  0.250054  0.426650  0.987844  1
  Au  Au24  1  0.249984  0.564747  0.583983  1
  Au  Au25  1  0.749963  0.435277  0.416046  1
  Au  Au26  1  0.749956  0.935255  0.083951  1
  Au  Au27  1  0.250095  0.064708  0.915988  1
