# generated using pymatgen
data_Tb2YEr2(In2Pd)2
_symmetry_space_group_name_H-M   'P 1'
_cell_length_a   3.63100600
_cell_length_b   8.16464500
_cell_length_c   18.24778000
_cell_angle_alpha   90.00000000
_cell_angle_beta   90.00000000
_cell_angle_gamma   90.00000000
_symmetry_Int_Tables_number   1
_chemical_formula_structural   Tb2YEr2(In2Pd)2
_chemical_formula_sum   'Tb4 Y2 Er4 In8 Pd4'
_cell_volume   540.97140459
_cell_formula_units_Z   2
loop_
 _symmetry_equiv_pos_site_id
 _symmetry_equiv_pos_as_xyz
  1  'x, y, z'
loop_
 _atom_site_type_symbol
 _atom_site_label
 _atom_site_symmetry_multiplicity
 _atom_site_fract_x
 _atom_site_fract_y
 _atom_site_fract_z
 _atom_site_occupancy
  Tb  Tb0  1  0.000000  0.738966  0.281245  1
  Tb  Tb1  1  0.000000  0.261034  0.718755  1
  Tb  Tb2  1  0.000000  0.761034  0.781245  1
  Tb  Tb3  1  0.000000  0.238966  0.218755  1
  Y  Y4  1  0.000000  0.500000  0.500000  1
  Y  Y5  1  0.000000  0.000000  0.000000  1
  Er  Er6  1  0.000000  0.617077  0.083778  1
  Er  Er7  1  0.000000  0.382923  0.916222  1
  Er  Er8  1  0.000000  0.882923  0.583778  1
  Er  Er9  1  0.000000  0.117077  0.416222  1
  In  In10  1  0.500000  0.706905  0.933165  1
  In  In11  1  0.500000  0.293095  0.066835  1
  In  In12  1  0.500000  0.793095  0.433165  1
  In  In13  1  0.500000  0.206905  0.566835  1
  In  In14  1  0.500000  0.582250  0.650081  1
  In  In15  1  0.500000  0.417750  0.349919  1
  In  In16  1  0.500000  0.917750  0.150081  1
  In  In17  1  0.500000  0.082250  0.849919  1
  Pd  Pd18  1  0.500000  0.523695  0.195375  1
  Pd  Pd19  1  0.500000  0.476305  0.804625  1
  Pd  Pd20  1  0.500000  0.976305  0.695375  1
  Pd  Pd21  1  0.500000  0.023695  0.304625  1
