# generated using pymatgen
data_Ce2U2Mn2As6Ru5
_symmetry_space_group_name_H-M   'P 1'
_cell_length_a   7.18510847
_cell_length_b   7.23888565
_cell_length_c   7.18075419
_cell_angle_alpha   109.46201867
_cell_angle_beta   109.45561316
_cell_angle_gamma   109.28223497
_symmetry_Int_Tables_number   1
_chemical_formula_structural   Ce2U2Mn2As6Ru5
_chemical_formula_sum   'Ce2 U2 Mn2 As6 Ru5'
_cell_volume   288.26559211
_cell_formula_units_Z   1
loop_
 _symmetry_equiv_pos_site_id
 _symmetry_equiv_pos_as_xyz
  1  'x, y, z'
loop_
 _atom_site_type_symbol
 _atom_site_label
 _atom_site_symmetry_multiplicity
 _atom_site_fract_x
 _atom_site_fract_y
 _atom_site_fract_z
 _atom_site_occupancy
  Ce  Ce0  1  0.998007  0.997632  0.498048  1
  Ce  Ce1  1  0.501056  0.001130  0.000999  1
  U  U2  1  0.003024  0.502673  0.004150  1
  U  U3  1  0.502771  0.503483  0.495212  1
  Mn  Mn4  1  0.749718  0.500683  0.250984  1
  Mn  Mn5  1  0.489892  0.738223  0.250669  1
  As  As6  1  0.314191  0.996233  0.310182  1
  As  As7  1  0.995571  0.314086  0.309786  1
  As  As8  1  0.996014  0.685849  0.682128  1
  As  As9  1  0.320624  0.320034  0.006954  1
  As  As10  1  0.686486  0.685889  0.008915  1
  As  As11  1  0.686448  0.997183  0.682543  1
  Ru  Ru12  1  0.508707  0.258031  0.751747  1
  Ru  Ru13  1  0.749198  0.255736  0.504223  1
  Ru  Ru14  1  0.248350  0.742314  0.491930  1
  Ru  Ru15  1  0.250110  0.500889  0.751183  1
  Ru  Ru16  1  0.999832  0.999932  0.000348  1
