# generated using pymatgen
data_Li3Gd2TmSi2Sb
_symmetry_space_group_name_H-M   'P 1'
_cell_length_a   7.10691245
_cell_length_b   7.10691242
_cell_length_c   4.32694100
_cell_angle_alpha   90.00000000
_cell_angle_beta   90.00000000
_cell_angle_gamma   119.70565504
_symmetry_Int_Tables_number   1
_chemical_formula_structural   Li3Gd2TmSi2Sb
_chemical_formula_sum   'Li3 Gd2 Tm1 Si2 Sb1'
_cell_volume   189.82527221
_cell_formula_units_Z   1
loop_
 _symmetry_equiv_pos_site_id
 _symmetry_equiv_pos_as_xyz
  1  'x, y, z'
loop_
 _atom_site_type_symbol
 _atom_site_label
 _atom_site_symmetry_multiplicity
 _atom_site_fract_x
 _atom_site_fract_y
 _atom_site_fract_z
 _atom_site_occupancy
  Li  Li0  1  0.241964  0.000195  0.500000  1
  Li  Li1  1  0.758085  0.758085  0.500000  1
  Li  Li2  1  0.000195  0.241964  0.500000  1
  Gd  Gd3  1  0.999767  0.551622  0.000000  1
  Gd  Gd4  1  0.551622  0.999767  0.000000  1
  Tm  Tm5  1  0.446268  0.446268  0.000000  1
  Si  Si6  1  0.335597  0.662190  0.500000  1
  Si  Si7  1  0.662190  0.335597  0.500000  1
  Sb  Sb8  1  0.004311  0.004311  0.000000  1
