# generated using pymatgen
data_Yb9In(BiPt2)2
_symmetry_space_group_name_H-M   'P 1'
_cell_length_a   9.13931674
_cell_length_b   9.13931725
_cell_length_c   9.13931691
_cell_angle_alpha   129.87255394
_cell_angle_beta   129.87256039
_cell_angle_gamma   73.61058979
_symmetry_Int_Tables_number   1
_chemical_formula_structural   Yb9In(BiPt2)2
_chemical_formula_sum   'Yb9 In1 Bi2 Pt4'
_cell_volume   438.75606769
_cell_formula_units_Z   1
loop_
 _symmetry_equiv_pos_site_id
 _symmetry_equiv_pos_as_xyz
  1  'x, y, z'
loop_
 _atom_site_type_symbol
 _atom_site_label
 _atom_site_symmetry_multiplicity
 _atom_site_fract_x
 _atom_site_fract_y
 _atom_site_fract_z
 _atom_site_occupancy
  Yb  Yb0  1  0.500000  0.500000  0.000000  1
  Yb  Yb1  1  0.800498  0.288047  0.836770  1
  Yb  Yb2  1  0.199502  0.711953  0.163230  1
  Yb  Yb3  1  0.451276  0.963728  0.163230  1
  Yb  Yb4  1  0.288047  0.451276  0.487548  1
  Yb  Yb5  1  0.036272  0.199502  0.487548  1
  Yb  Yb6  1  0.548724  0.036272  0.836770  1
  Yb  Yb7  1  0.711953  0.548724  0.512452  1
  Yb  Yb8  1  0.963728  0.800498  0.512452  1
  In  In9  1  0.000000  0.000000  0.000000  1
  Bi  Bi10  1  0.255863  0.255863  0.000000  1
  Bi  Bi11  1  0.744137  0.744137  0.000000  1
  Pt  Pt12  1  0.131506  0.631357  0.762864  1
  Pt  Pt13  1  0.868494  0.368643  0.237136  1
  Pt  Pt14  1  0.631357  0.868494  0.499851  1
  Pt  Pt15  1  0.368643  0.131506  0.500149  1
