# generated using pymatgen
data_Al3Tl4FeI16
_symmetry_space_group_name_H-M   'P 1'
_cell_length_a   8.00782138
_cell_length_b   8.33996052
_cell_length_c   16.27062300
_cell_angle_alpha   85.12394510
_cell_angle_beta   90.01762271
_cell_angle_gamma   89.98327175
_symmetry_Int_Tables_number   1
_chemical_formula_structural   Al3Tl4FeI16
_chemical_formula_sum   'Al3 Tl4 Fe1 I16'
_cell_volume   1082.69943050
_cell_formula_units_Z   1
loop_
 _symmetry_equiv_pos_site_id
 _symmetry_equiv_pos_as_xyz
  1  'x, y, z'
loop_
 _atom_site_type_symbol
 _atom_site_label
 _atom_site_symmetry_multiplicity
 _atom_site_fract_x
 _atom_site_fract_y
 _atom_site_fract_z
 _atom_site_occupancy
  Al  Al0  1  0.358827  0.245312  0.360351  1
  Al  Al1  1  0.858963  0.754753  0.139467  1
  Al  Al2  1  0.641479  0.755307  0.639578  1
  Tl  Tl3  1  0.497686  0.255163  0.639604  1
  Tl  Tl4  1  0.999770  0.745321  0.861117  1
  Tl  Tl5  1  0.501639  0.744788  0.360977  1
  Tl  Tl6  1  0.002076  0.255701  0.138451  1
  Fe  Fe7  1  0.141681  0.245189  0.860540  1
  I  I8  1  0.856971  0.134839  0.908586  1
  I  I9  1  0.355129  0.864413  0.591174  1
  I  I10  1  0.144470  0.864322  0.090916  1
  I  I11  1  0.644935  0.135835  0.408798  1
  I  I12  1  0.388321  0.419123  0.223316  1
  I  I13  1  0.888617  0.580715  0.276498  1
  I  I14  1  0.611076  0.581256  0.776582  1
  I  I15  1  0.111598  0.418584  0.723894  1
  I  I16  1  0.653054  0.983893  0.159917  1
  I  I17  1  0.152778  0.016364  0.339925  1
  I  I18  1  0.345113  0.015547  0.839985  1
  I  I19  1  0.847355  0.984121  0.660100  1
  I  I20  1  0.244157  0.423205  0.468827  1
  I  I21  1  0.744203  0.576410  0.031067  1
  I  I22  1  0.755919  0.576319  0.531554  1
  I  I23  1  0.254184  0.423521  0.968777  1
