# generated using pymatgen
data_IF6
_symmetry_space_group_name_H-M   'P 1'
_cell_length_a   5.95387150
_cell_length_b   5.95387209
_cell_length_c   5.95387202
_cell_angle_alpha   57.64194701
_cell_angle_beta   57.64194133
_cell_angle_gamma   57.64194167
_symmetry_Int_Tables_number   1
_chemical_formula_structural   IF6
_chemical_formula_sum   'I1 F6'
_cell_volume   141.15149983
_cell_formula_units_Z   1
loop_
 _symmetry_equiv_pos_site_id
 _symmetry_equiv_pos_as_xyz
  1  'x, y, z'
loop_
 _atom_site_type_symbol
 _atom_site_label
 _atom_site_symmetry_multiplicity
 _atom_site_fract_x
 _atom_site_fract_y
 _atom_site_fract_z
 _atom_site_occupancy
  I  I0  1  0.000000  0.000000  0.000000  1
  F  F1  1  0.874487  0.220328  0.680880  1
  F  F2  1  0.220328  0.680880  0.874487  1
  F  F3  1  0.319120  0.125513  0.779672  1
  F  F4  1  0.779672  0.319120  0.125513  1
  F  F5  1  0.125513  0.779672  0.319120  1
  F  F6  1  0.680880  0.874487  0.220328  1
