# generated using pymatgen
data_Tb9Y7MgTl2Ni4Hg
_symmetry_space_group_name_H-M   'P 1'
_cell_length_a   9.56815507
_cell_length_b   9.58113255
_cell_length_c   9.58113300
_cell_angle_alpha   60.21148993
_cell_angle_beta   60.17665174
_cell_angle_gamma   60.17664668
_symmetry_Int_Tables_number   1
_chemical_formula_structural   Tb9Y7MgTl2Ni4Hg
_chemical_formula_sum   'Tb9 Y7 Mg1 Tl2 Ni4 Hg1'
_cell_volume   623.72680362
_cell_formula_units_Z   1
loop_
 _symmetry_equiv_pos_site_id
 _symmetry_equiv_pos_as_xyz
  1  'x, y, z'
loop_
 _atom_site_type_symbol
 _atom_site_label
 _atom_site_symmetry_multiplicity
 _atom_site_fract_x
 _atom_site_fract_y
 _atom_site_fract_z
 _atom_site_occupancy
  Tb  Tb0  1  0.434652  0.064454  0.063320  1
  Tb  Tb1  1  0.435755  0.064754  0.438702  1
  Tb  Tb2  1  0.061359  0.439507  0.061616  1
  Tb  Tb3  1  0.434540  0.438625  0.066595  1
  Tb  Tb4  1  0.060246  0.061612  0.440464  1
  Tb  Tb5  1  0.593607  0.594645  0.595905  1
  Tb  Tb6  1  0.599272  0.597831  0.205414  1
  Tb  Tb7  1  0.598126  0.205823  0.597250  1
  Tb  Tb8  1  0.199493  0.600246  0.601168  1
  Y  Y9  1  0.189795  0.814908  0.814362  1
  Y  Y10  1  0.811826  0.191843  0.184619  1
  Y  Y11  1  0.813088  0.190787  0.814198  1
  Y  Y12  1  0.189613  0.813827  0.184947  1
  Y  Y13  1  0.813066  0.815157  0.185904  1
  Y  Y14  1  0.187959  0.187902  0.812055  1
  Y  Y15  1  0.058503  0.441297  0.441363  1
  Mg  Mg16  1  0.529150  0.819335  0.823711  1
  Tl  Tl17  1  0.833818  0.833766  0.835633  1
  Tl  Tl18  1  0.832676  0.833717  0.495686  1
  Ni  Ni19  1  0.391848  0.393917  0.394695  1
  Ni  Ni20  1  0.388944  0.391336  0.823579  1
  Ni  Ni21  1  0.388932  0.823139  0.391092  1
  Ni  Ni22  1  0.821681  0.390725  0.390684  1
  Hg  Hg23  1  0.832057  0.490849  0.837037  1
