# generated using pymatgen
data_TbTm6Fe2Co4Sn23
_symmetry_space_group_name_H-M   'P 1'
_cell_length_a   9.65895015
_cell_length_b   9.65894992
_cell_length_c   9.93812996
_cell_angle_alpha   90.13339358
_cell_angle_beta   89.86660635
_cell_angle_gamma   119.91614537
_symmetry_Int_Tables_number   1
_chemical_formula_structural   TbTm6Fe2Co4Sn23
_chemical_formula_sum   'Tb1 Tm6 Fe2 Co4 Sn23'
_cell_volume   803.63699326
_cell_formula_units_Z   1
loop_
 _symmetry_equiv_pos_site_id
 _symmetry_equiv_pos_as_xyz
  1  'x, y, z'
loop_
 _atom_site_type_symbol
 _atom_site_label
 _atom_site_symmetry_multiplicity
 _atom_site_fract_x
 _atom_site_fract_y
 _atom_site_fract_z
 _atom_site_occupancy
  Tb  Tb0  1  0.000000  0.000000  0.000000  1
  Tm  Tm1  1  0.480185  0.519815  0.305986  1
  Tm  Tm2  1  0.519815  0.480185  0.694014  1
  Tm  Tm3  1  0.480793  0.960370  0.305530  1
  Tm  Tm4  1  0.519207  0.039630  0.694470  1
  Tm  Tm5  1  0.039630  0.519207  0.305530  1
  Tm  Tm6  1  0.960370  0.480793  0.694470  1
  Fe  Fe7  1  0.832205  0.167795  0.198697  1
  Fe  Fe8  1  0.167795  0.832205  0.801303  1
  Co  Co9  1  0.831316  0.663246  0.197632  1
  Co  Co10  1  0.168684  0.336754  0.802368  1
  Co  Co11  1  0.336754  0.168684  0.197632  1
  Co  Co12  1  0.663246  0.831316  0.802368  1
  Sn  Sn13  1  0.345814  0.999208  0.999558  1
  Sn  Sn14  1  0.654186  0.000792  0.000442  1
  Sn  Sn15  1  0.999208  0.345814  0.000442  1
  Sn  Sn16  1  0.000792  0.654186  0.999558  1
  Sn  Sn17  1  0.652762  0.652762  0.000000  1
  Sn  Sn18  1  0.347238  0.347238  0.000000  1
  Sn  Sn19  1  0.332789  0.667211  0.817632  1
  Sn  Sn20  1  0.667211  0.332789  0.182368  1
  Sn  Sn21  1  0.000000  0.000000  0.500000  1
  Sn  Sn22  1  0.781221  0.218779  0.452106  1
  Sn  Sn23  1  0.218779  0.781221  0.547894  1
  Sn  Sn24  1  0.780935  0.562189  0.452048  1
  Sn  Sn25  1  0.219065  0.437811  0.547952  1
  Sn  Sn26  1  0.437811  0.219065  0.452048  1
  Sn  Sn27  1  0.562189  0.780935  0.547952  1
  Sn  Sn28  1  0.333313  0.666687  0.121283  1
  Sn  Sn29  1  0.666687  0.333313  0.878717  1
  Sn  Sn30  1  0.118506  0.881494  0.274337  1
  Sn  Sn31  1  0.881494  0.118506  0.725663  1
  Sn  Sn32  1  0.118178  0.236591  0.273783  1
  Sn  Sn33  1  0.881822  0.763409  0.726217  1
  Sn  Sn34  1  0.763409  0.881822  0.273783  1
  Sn  Sn35  1  0.236591  0.118178  0.726217  1
