# generated using pymatgen
data_Sc4Al6FeRh
_symmetry_space_group_name_H-M   'P 1'
_cell_length_a   5.31021800
_cell_length_b   5.31017943
_cell_length_c   8.38905500
_cell_angle_alpha   90.00008439
_cell_angle_beta   90.00010721
_cell_angle_gamma   120.00016806
_symmetry_Int_Tables_number   1
_chemical_formula_structural   Sc4Al6FeRh
_chemical_formula_sum   'Sc4 Al6 Fe1 Rh1'
_cell_volume   204.86345123
_cell_formula_units_Z   1
loop_
 _symmetry_equiv_pos_site_id
 _symmetry_equiv_pos_as_xyz
  1  'x, y, z'
loop_
 _atom_site_type_symbol
 _atom_site_label
 _atom_site_symmetry_multiplicity
 _atom_site_fract_x
 _atom_site_fract_y
 _atom_site_fract_z
 _atom_site_occupancy
  Sc  Sc0  1  0.666675  0.333348  0.054768  1
  Sc  Sc1  1  0.666669  0.333330  0.441092  1
  Sc  Sc2  1  0.333328  0.666670  0.558893  1
  Sc  Sc3  1  0.333333  0.666670  0.945218  1
  Al  Al4  1  0.164656  0.329309  0.254994  1
  Al  Al5  1  0.164658  0.835352  0.254991  1
  Al  Al6  1  0.670694  0.835352  0.254994  1
  Al  Al7  1  0.329299  0.164653  0.745009  1
  Al  Al8  1  0.835353  0.164652  0.745007  1
  Al  Al9  1  0.835350  0.670704  0.745008  1
  Fe  Fe10  1  0.999996  0.999953  0.500001  1
  Rh  Rh11  1  0.999986  0.000006  0.000024  1
