# generated using pymatgen
data_Tm12FeCo4Pb
_symmetry_space_group_name_H-M   'P 1'
_cell_length_a   8.17516380
_cell_length_b   8.17516417
_cell_length_c   8.17516434
_cell_angle_alpha   111.04919609
_cell_angle_beta   111.27687627
_cell_angle_gamma   106.13821251
_symmetry_Int_Tables_number   1
_chemical_formula_structural   Tm12FeCo4Pb
_chemical_formula_sum   'Tm12 Fe1 Co4 Pb1'
_cell_volume   419.53706100
_cell_formula_units_Z   1
loop_
 _symmetry_equiv_pos_site_id
 _symmetry_equiv_pos_as_xyz
  1  'x, y, z'
loop_
 _atom_site_type_symbol
 _atom_site_label
 _atom_site_symmetry_multiplicity
 _atom_site_fract_x
 _atom_site_fract_y
 _atom_site_fract_z
 _atom_site_occupancy
  Tm  Tm0  1  0.285718  0.185699  0.471418  1
  Tm  Tm1  1  0.712170  0.814734  0.526904  1
  Tm  Tm2  1  0.287830  0.814734  0.102563  1
  Tm  Tm3  1  0.714282  0.185699  0.899982  1
  Tm  Tm4  1  0.618758  0.310709  0.304718  1
  Tm  Tm5  1  0.381242  0.685960  0.691952  1
  Tm  Tm6  1  0.005992  0.310709  0.691952  1
  Tm  Tm7  1  0.994008  0.685960  0.304718  1
  Tm  Tm8  1  0.210801  0.405612  0.194812  1
  Tm  Tm9  1  0.789758  0.595423  0.805664  1
  Tm  Tm10  1  0.210242  0.015905  0.805664  1
  Tm  Tm11  1  0.789199  0.984011  0.194812  1
  Fe  Fe12  1  0.000000  0.382804  0.382804  1
  Co  Co13  1  0.000000  0.623580  0.623580  1
  Co  Co14  1  0.388038  0.887331  0.499294  1
  Co  Co15  1  0.611962  0.111256  0.499294  1
  Co  Co16  1  0.000000  0.000307  0.000307  1
  Pb  Pb17  1  0.500000  0.499564  0.999564  1
