# generated using pymatgen
data_Pr3Cd3IrPd2
_symmetry_space_group_name_H-M   'P 1'
_cell_length_a   7.77224600
_cell_length_b   7.77224472
_cell_length_c   4.05660000
_cell_angle_alpha   90.00000000
_cell_angle_beta   90.00000000
_cell_angle_gamma   120.00000546
_symmetry_Int_Tables_number   1
_chemical_formula_structural   Pr3Cd3IrPd2
_chemical_formula_sum   'Pr3 Cd3 Ir1 Pd2'
_cell_volume   212.21974999
_cell_formula_units_Z   1
loop_
 _symmetry_equiv_pos_site_id
 _symmetry_equiv_pos_as_xyz
  1  'x, y, z'
loop_
 _atom_site_type_symbol
 _atom_site_label
 _atom_site_symmetry_multiplicity
 _atom_site_fract_x
 _atom_site_fract_y
 _atom_site_fract_z
 _atom_site_occupancy
  Pr  Pr0  1  0.416362  0.402334  0.500000  1
  Pr  Pr1  1  0.985972  0.583638  0.500000  1
  Pr  Pr2  1  0.597666  0.014028  0.500000  1
  Cd  Cd3  1  0.747807  0.750363  0.000000  1
  Cd  Cd4  1  0.249637  0.997445  0.000000  1
  Cd  Cd5  1  0.002555  0.252193  0.000000  1
  Ir  Ir6  1  0.666667  0.333333  0.000000  1
  Pd  Pd7  1  0.000000  0.000000  0.500000  1
  Pd  Pd8  1  0.333333  0.666667  0.000000  1
