# generated using pymatgen
data_Sc5Ti2Nb(Co4P3)4
_symmetry_space_group_name_H-M   'P 1'
_cell_length_a   12.00126938
_cell_length_b   12.00126918
_cell_length_c   3.60725400
_cell_angle_alpha   90.00000000
_cell_angle_beta   90.00000000
_cell_angle_gamma   119.97132801
_symmetry_Int_Tables_number   1
_chemical_formula_structural   Sc5Ti2Nb(Co4P3)4
_chemical_formula_sum   'Sc5 Ti2 Nb1 Co16 P12'
_cell_volume   450.07730967
_cell_formula_units_Z   1
loop_
 _symmetry_equiv_pos_site_id
 _symmetry_equiv_pos_as_xyz
  1  'x, y, z'
loop_
 _atom_site_type_symbol
 _atom_site_label
 _atom_site_symmetry_multiplicity
 _atom_site_fract_x
 _atom_site_fract_y
 _atom_site_fract_z
 _atom_site_occupancy
  Sc  Sc0  1  0.817241  0.000812  0.500000  1
  Sc  Sc1  1  0.000812  0.817241  0.500000  1
  Sc  Sc2  1  0.181561  0.181561  0.500000  1
  Sc  Sc3  1  0.332538  0.666407  0.000000  1
  Sc  Sc4  1  0.666407  0.332538  0.000000  1
  Ti  Ti5  1  0.442975  0.999647  0.000000  1
  Ti  Ti6  1  0.999647  0.442975  0.000000  1
  Nb  Nb7  1  0.554451  0.554451  0.000000  1
  Co  Co8  1  0.280628  0.000080  0.500000  1
  Co  Co9  1  0.000080  0.280628  0.500000  1
  Co  Co10  1  0.722373  0.722373  0.500000  1
  Co  Co11  1  0.627624  0.805121  0.000000  1
  Co  Co12  1  0.196887  0.823123  0.000000  1
  Co  Co13  1  0.176429  0.373749  0.000000  1
  Co  Co14  1  0.373749  0.176429  0.000000  1
  Co  Co15  1  0.805121  0.627624  0.000000  1
  Co  Co16  1  0.823123  0.196887  0.000000  1
  Co  Co17  1  0.518627  0.874016  0.500000  1
  Co  Co18  1  0.126160  0.645436  0.500000  1
  Co  Co19  1  0.352646  0.480917  0.500000  1
  Co  Co20  1  0.480917  0.352646  0.500000  1
  Co  Co21  1  0.874016  0.518627  0.500000  1
  Co  Co22  1  0.645436  0.126160  0.500000  1
  Co  Co23  1  0.000729  0.000729  0.000000  1
  P  P24  1  0.176284  0.999687  0.000000  1
  P  P25  1  0.999687  0.176284  0.000000  1
  P  P26  1  0.825047  0.825047  0.000000  1
  P  P27  1  0.516281  0.688463  0.500000  1
  P  P28  1  0.313687  0.830456  0.500000  1
  P  P29  1  0.168605  0.483639  0.500000  1
  P  P30  1  0.483639  0.168605  0.500000  1
  P  P31  1  0.688463  0.516281  0.500000  1
  P  P32  1  0.830456  0.313687  0.500000  1
  P  P33  1  0.647716  0.000815  0.000000  1
  P  P34  1  0.000815  0.647716  0.000000  1
  P  P35  1  0.349141  0.349141  0.000000  1
