# generated using pymatgen
data_Hf3BSb
_symmetry_space_group_name_H-M   'P 1'
_cell_length_a   5.90936562
_cell_length_b   5.90936548
_cell_length_c   9.20367900
_cell_angle_alpha   90.00000000
_cell_angle_beta   90.00000000
_cell_angle_gamma   143.88953598
_symmetry_Int_Tables_number   1
_chemical_formula_structural   Hf3BSb
_chemical_formula_sum   'Hf6 B2 Sb2'
_cell_volume   189.41395718
_cell_formula_units_Z   2
loop_
 _symmetry_equiv_pos_site_id
 _symmetry_equiv_pos_as_xyz
  1  'x, y, z'
loop_
 _atom_site_type_symbol
 _atom_site_label
 _atom_site_symmetry_multiplicity
 _atom_site_fract_x
 _atom_site_fract_y
 _atom_site_fract_z
 _atom_site_occupancy
  Hf  Hf0  1  0.130353  0.869646  0.043915  1
  Hf  Hf1  1  0.455803  0.544195  0.250000  1
  Hf  Hf2  1  0.130353  0.869646  0.456084  1
  Hf  Hf3  1  0.869646  0.130353  0.543915  1
  Hf  Hf4  1  0.544195  0.455803  0.750000  1
  Hf  Hf5  1  0.869646  0.130353  0.956084  1
  B  B6  1  0.499999  0.499999  0.000000  1
  B  B7  1  0.499999  0.499999  0.500000  1
  Sb  Sb8  1  0.747410  0.252588  0.250000  1
  Sb  Sb9  1  0.252588  0.747410  0.750000  1
