# generated using pymatgen
data_Hf6Ti4Ga5Ge
_symmetry_space_group_name_H-M   'P 1'
_cell_length_a   7.87059900
_cell_length_b   7.86838521
_cell_length_c   5.44549400
_cell_angle_alpha   90.00000000
_cell_angle_beta   90.00000000
_cell_angle_gamma   120.00931172
_symmetry_Int_Tables_number   1
_chemical_formula_structural   Hf6Ti4Ga5Ge
_chemical_formula_sum   'Hf6 Ti4 Ga5 Ge1'
_cell_volume   292.02535250
_cell_formula_units_Z   1
loop_
 _symmetry_equiv_pos_site_id
 _symmetry_equiv_pos_as_xyz
  1  'x, y, z'
loop_
 _atom_site_type_symbol
 _atom_site_label
 _atom_site_symmetry_multiplicity
 _atom_site_fract_x
 _atom_site_fract_y
 _atom_site_fract_z
 _atom_site_occupancy
  Hf  Hf0  1  0.243188  0.000000  0.250000  1
  Hf  Hf1  1  0.756098  0.000000  0.750000  1
  Hf  Hf2  1  0.000437  0.242829  0.250000  1
  Hf  Hf3  1  0.999256  0.757515  0.750000  1
  Hf  Hf4  1  0.757607  0.757171  0.250000  1
  Hf  Hf5  1  0.241742  0.242485  0.750000  1
  Ti  Ti6  1  0.333935  0.667146  0.000055  1
  Ti  Ti7  1  0.666790  0.332854  0.000055  1
  Ti  Ti8  1  0.666790  0.332854  0.499945  1
  Ti  Ti9  1  0.333935  0.667146  0.499945  1
  Ga  Ga10  1  0.398376  0.000000  0.750000  1
  Ga  Ga11  1  0.000103  0.600638  0.250000  1
  Ga  Ga12  1  0.000125  0.399926  0.750000  1
  Ga  Ga13  1  0.399465  0.399362  0.250000  1
  Ga  Ga14  1  0.600199  0.600074  0.750000  1
  Ge  Ge15  1  0.601953  0.000000  0.250000  1
