# generated using pymatgen
data_BaIr5O13
_symmetry_space_group_name_H-M   'P 1'
_cell_length_a   5.52972123
_cell_length_b   5.52971927
_cell_length_c   16.85413200
_cell_angle_alpha   90.00000000
_cell_angle_beta   90.00000000
_cell_angle_gamma   108.98031718
_symmetry_Int_Tables_number   1
_chemical_formula_structural   BaIr5O13
_chemical_formula_sum   'Ba2 Ir10 O26'
_cell_volume   487.34231318
_cell_formula_units_Z   2
loop_
 _symmetry_equiv_pos_site_id
 _symmetry_equiv_pos_as_xyz
  1  'x, y, z'
loop_
 _atom_site_type_symbol
 _atom_site_label
 _atom_site_symmetry_multiplicity
 _atom_site_fract_x
 _atom_site_fract_y
 _atom_site_fract_z
 _atom_site_occupancy
  Ba  Ba0  1  0.887576  0.122401  0.750000  1
  Ba  Ba1  1  0.122401  0.887576  0.250000  1
  Ir  Ir2  1  0.385698  0.616692  0.072243  1
  Ir  Ir3  1  0.616692  0.385698  0.927757  1
  Ir  Ir4  1  0.001185  0.001185  0.000000  1
  Ir  Ir5  1  0.385698  0.616692  0.427757  1
  Ir  Ir6  1  0.616692  0.385698  0.572243  1
  Ir  Ir7  1  0.001185  0.001185  0.500000  1
  Ir  Ir8  1  0.760828  0.242262  0.366424  1
  Ir  Ir9  1  0.760828  0.242262  0.133576  1
  Ir  Ir10  1  0.242262  0.760828  0.866424  1
  Ir  Ir11  1  0.242262  0.760828  0.633576  1
  O  O12  1  0.538243  0.065484  0.866674  1
  O  O13  1  0.065484  0.538243  0.366674  1
  O  O14  1  0.065484  0.538243  0.133326  1
  O  O15  1  0.538243  0.065484  0.633326  1
  O  O16  1  0.308549  0.308549  0.000000  1
  O  O17  1  0.308549  0.308549  0.500000  1
  O  O18  1  0.027779  0.974971  0.615003  1
  O  O19  1  0.192621  0.808467  0.750000  1
  O  O20  1  0.225497  0.777543  0.986750  1
  O  O21  1  0.225497  0.777543  0.513250  1
  O  O22  1  0.458829  0.542334  0.649396  1
  O  O23  1  0.542334  0.458829  0.149396  1
  O  O24  1  0.777543  0.225497  0.486750  1
  O  O25  1  0.974971  0.027779  0.384997  1
  O  O26  1  0.542334  0.458829  0.350604  1
  O  O27  1  0.974971  0.027779  0.115003  1
  O  O28  1  0.808467  0.192621  0.250000  1
  O  O29  1  0.777543  0.225497  0.013250  1
  O  O30  1  0.027779  0.974971  0.884997  1
  O  O31  1  0.458829  0.542334  0.850604  1
  O  O32  1  0.693800  0.693800  0.500000  1
  O  O33  1  0.693800  0.693800  0.000000  1
  O  O34  1  0.465038  0.937260  0.367127  1
  O  O35  1  0.937260  0.465038  0.632873  1
  O  O36  1  0.937260  0.465038  0.867127  1
  O  O37  1  0.465038  0.937260  0.132873  1
