# generated using pymatgen
data_Ho8In2PtRh
_symmetry_space_group_name_H-M   'P 1'
_cell_length_a   9.64544483
_cell_length_b   9.65638154
_cell_length_c   9.65639010
_cell_angle_alpha   60.05407234
_cell_angle_beta   60.03749617
_cell_angle_gamma   60.03745686
_symmetry_Int_Tables_number   1
_chemical_formula_structural   Ho8In2PtRh
_chemical_formula_sum   'Ho16 In4 Pt2 Rh2'
_cell_volume   636.58972135
_cell_formula_units_Z   2
loop_
 _symmetry_equiv_pos_site_id
 _symmetry_equiv_pos_as_xyz
  1  'x, y, z'
loop_
 _atom_site_type_symbol
 _atom_site_label
 _atom_site_symmetry_multiplicity
 _atom_site_fract_x
 _atom_site_fract_y
 _atom_site_fract_z
 _atom_site_occupancy
  Ho  Ho0  1  0.192012  0.187231  0.810243  1
  Ho  Ho1  1  0.438034  0.061960  0.061966  1
  Ho  Ho2  1  0.437385  0.062443  0.438206  1
  Ho  Ho3  1  0.061965  0.438202  0.062446  1
  Ho  Ho4  1  0.649045  0.050364  0.651548  1
  Ho  Ho5  1  0.188967  0.811032  0.811036  1
  Ho  Ho6  1  0.061964  0.062442  0.438203  1
  Ho  Ho7  1  0.809701  0.190300  0.190299  1
  Ho  Ho8  1  0.810513  0.810244  0.187230  1
  Ho  Ho9  1  0.649041  0.651548  0.050367  1
  Ho  Ho10  1  0.647184  0.650591  0.650591  1
  Ho  Ho11  1  0.062384  0.437618  0.437619  1
  Ho  Ho12  1  0.051631  0.650591  0.650591  1
  Ho  Ho13  1  0.810512  0.187228  0.810245  1
  Ho  Ho14  1  0.437387  0.438205  0.062441  1
  Ho  Ho15  1  0.192015  0.810245  0.187228  1
  In  In16  1  0.417091  0.748760  0.417058  1
  In  In17  1  0.417089  0.417060  0.748761  1
  In  In18  1  0.749948  0.416679  0.416681  1
  In  In19  1  0.416693  0.416681  0.416678  1
  Pt  Pt20  1  0.857260  0.428011  0.857470  1
  Pt  Pt21  1  0.857260  0.857471  0.428010  1
  Rh  Rh22  1  0.427407  0.857545  0.857543  1
  Rh  Rh23  1  0.857512  0.857547  0.857536  1
