# generated using pymatgen
data_Ba6Sr2PrUSe12
_symmetry_space_group_name_H-M   'P 1'
_cell_length_a   9.02739228
_cell_length_b   9.02739145
_cell_length_c   9.02739309
_cell_angle_alpha   90.84859704
_cell_angle_beta   90.84859203
_cell_angle_gamma   90.84860273
_symmetry_Int_Tables_number   1
_chemical_formula_structural   Ba6Sr2PrUSe12
_chemical_formula_sum   'Ba6 Sr2 Pr1 U1 Se12'
_cell_volume   735.43212250
_cell_formula_units_Z   1
loop_
 _symmetry_equiv_pos_site_id
 _symmetry_equiv_pos_as_xyz
  1  'x, y, z'
loop_
 _atom_site_type_symbol
 _atom_site_label
 _atom_site_symmetry_multiplicity
 _atom_site_fract_x
 _atom_site_fract_y
 _atom_site_fract_z
 _atom_site_occupancy
  Ba  Ba0  1  0.870155  0.622842  0.254806  1
  Ba  Ba1  1  0.254806  0.870155  0.622842  1
  Ba  Ba2  1  0.622842  0.254806  0.870155  1
  Ba  Ba3  1  0.745194  0.129845  0.377158  1
  Ba  Ba4  1  0.377158  0.745194  0.129845  1
  Ba  Ba5  1  0.129845  0.377158  0.745194  1
  Sr  Sr6  1  0.253878  0.253878  0.253878  1
  Sr  Sr7  1  0.746122  0.746122  0.746122  1
  Pr  Pr8  1  0.500000  0.500000  0.500000  1
  U  U9  1  0.000000  0.000000  0.000000  1
  Se  Se10  1  0.190979  0.557002  0.409549  1
  Se  Se11  1  0.409549  0.190979  0.557002  1
  Se  Se12  1  0.557002  0.409549  0.190979  1
  Se  Se13  1  0.923706  0.049625  0.706719  1
  Se  Se14  1  0.706719  0.923706  0.049625  1
  Se  Se15  1  0.049625  0.706719  0.923706  1
  Se  Se16  1  0.809021  0.442998  0.590451  1
  Se  Se17  1  0.590451  0.809021  0.442998  1
  Se  Se18  1  0.442998  0.590451  0.809021  1
  Se  Se19  1  0.076294  0.950375  0.293281  1
  Se  Se20  1  0.293281  0.076294  0.950375  1
  Se  Se21  1  0.950375  0.293281  0.076294  1
