# generated using pymatgen
data_Dy12CuNi4Bi
_symmetry_space_group_name_H-M   'P 1'
_cell_length_a   8.36864286
_cell_length_b   8.36864242
_cell_length_c   8.36864353
_cell_angle_alpha   112.78501549
_cell_angle_beta   109.24702515
_cell_angle_gamma   106.44435917
_symmetry_Int_Tables_number   1
_chemical_formula_structural   Dy12CuNi4Bi
_chemical_formula_sum   'Dy12 Cu1 Ni4 Bi1'
_cell_volume   449.78060780
_cell_formula_units_Z   1
loop_
 _symmetry_equiv_pos_site_id
 _symmetry_equiv_pos_as_xyz
  1  'x, y, z'
loop_
 _atom_site_type_symbol
 _atom_site_label
 _atom_site_symmetry_multiplicity
 _atom_site_fract_x
 _atom_site_fract_y
 _atom_site_fract_z
 _atom_site_occupancy
  Dy  Dy0  1  0.021670  0.717108  0.304560  1
  Dy  Dy1  1  0.978330  0.282892  0.695440  1
  Dy  Dy2  1  0.587452  0.282892  0.304560  1
  Dy  Dy3  1  0.412548  0.717108  0.695440  1
  Dy  Dy4  1  0.677609  0.867156  0.189547  1
  Dy  Dy5  1  0.322391  0.511937  0.189547  1
  Dy  Dy6  1  0.322391  0.132844  0.810453  1
  Dy  Dy7  1  0.677609  0.488063  0.810453  1
  Dy  Dy8  1  0.177687  0.208629  0.386316  1
  Dy  Dy9  1  0.822313  0.208629  0.030940  1
  Dy  Dy10  1  0.177687  0.791371  0.969060  1
  Dy  Dy11  1  0.822313  0.791371  0.613684  1
  Cu  Cu12  1  0.000000  0.500000  0.500000  1
  Ni  Ni13  1  0.644146  0.500000  0.144146  1
  Ni  Ni14  1  0.355854  0.500000  0.855854  1
  Ni  Ni15  1  0.876150  0.876150  0.000000  1
  Ni  Ni16  1  0.123850  0.123850  0.000000  1
  Bi  Bi17  1  0.500000  0.000000  0.500000  1
