# generated using pymatgen
data_Co2ReTc5
_symmetry_space_group_name_H-M   'P 1'
_cell_length_a   5.39100100
_cell_length_b   5.39695556
_cell_length_c   4.30306100
_cell_angle_alpha   90.00000000
_cell_angle_beta   90.00000000
_cell_angle_gamma   119.96351535
_symmetry_Int_Tables_number   1
_chemical_formula_structural   Co2ReTc5
_chemical_formula_sum   'Co2 Re1 Tc5'
_cell_volume   108.46408001
_cell_formula_units_Z   1
loop_
 _symmetry_equiv_pos_site_id
 _symmetry_equiv_pos_as_xyz
  1  'x, y, z'
loop_
 _atom_site_type_symbol
 _atom_site_label
 _atom_site_symmetry_multiplicity
 _atom_site_fract_x
 _atom_site_fract_y
 _atom_site_fract_z
 _atom_site_occupancy
  Co  Co0  1  0.333129  0.666258  0.749999  1
  Co  Co1  1  0.667786  0.335573  0.249999  1
  Re  Re2  1  0.167326  0.334653  0.249999  1
  Tc  Tc3  1  0.666655  0.832891  0.249999  1
  Tc  Tc4  1  0.166238  0.832891  0.249999  1
  Tc  Tc5  1  0.832770  0.665540  0.749999  1
  Tc  Tc6  1  0.334398  0.166097  0.749999  1
  Tc  Tc7  1  0.831701  0.166097  0.749999  1
