# generated using pymatgen
data_Fe6SiW6
_symmetry_space_group_name_H-M   'P 1'
_cell_length_a   9.03483512
_cell_length_b   9.03483547
_cell_length_c   9.03483529
_cell_angle_alpha   30.68444371
_cell_angle_beta   30.68443902
_cell_angle_gamma   30.68444493
_symmetry_Int_Tables_number   1
_chemical_formula_structural   Fe6SiW6
_chemical_formula_sum   'Fe6 Si1 W6'
_cell_volume   170.29428726
_cell_formula_units_Z   1
loop_
 _symmetry_equiv_pos_site_id
 _symmetry_equiv_pos_as_xyz
  1  'x, y, z'
loop_
 _atom_site_type_symbol
 _atom_site_label
 _atom_site_symmetry_multiplicity
 _atom_site_fract_x
 _atom_site_fract_y
 _atom_site_fract_z
 _atom_site_occupancy
  Fe  Fe0  1  0.587513  0.091515  0.091515  1
  Fe  Fe1  1  0.091515  0.091515  0.587513  1
  Fe  Fe2  1  0.091515  0.587513  0.091515  1
  Fe  Fe3  1  0.908485  0.412487  0.908485  1
  Fe  Fe4  1  0.412487  0.908485  0.908485  1
  Fe  Fe5  1  0.908485  0.908485  0.412487  1
  Si  Si6  1  0.000000  0.000000  0.000000  1
  W  W7  1  0.168043  0.168043  0.168043  1
  W  W8  1  0.831957  0.831957  0.831957  1
  W  W9  1  0.348919  0.348919  0.348919  1
  W  W10  1  0.651081  0.651081  0.651081  1
  W  W11  1  0.450482  0.450482  0.450482  1
  W  W12  1  0.549518  0.549518  0.549518  1
