# generated using pymatgen
data_Dy4Ga20Pt11
_symmetry_space_group_name_H-M   'P 1'
_cell_length_a   4.16254682
_cell_length_b   10.96186155
_cell_length_c   13.73579476
_cell_angle_alpha   82.47896171
_cell_angle_beta   81.28487907
_cell_angle_gamma   79.05510019
_symmetry_Int_Tables_number   1
_chemical_formula_structural   Dy4Ga20Pt11
_chemical_formula_sum   'Dy4 Ga20 Pt11'
_cell_volume   604.87178828
_cell_formula_units_Z   1
loop_
 _symmetry_equiv_pos_site_id
 _symmetry_equiv_pos_as_xyz
  1  'x, y, z'
loop_
 _atom_site_type_symbol
 _atom_site_label
 _atom_site_symmetry_multiplicity
 _atom_site_fract_x
 _atom_site_fract_y
 _atom_site_fract_z
 _atom_site_occupancy
  Dy  Dy0  1  0.123780  0.087445  0.664995  1
  Dy  Dy1  1  0.876220  0.912555  0.335005  1
  Dy  Dy2  1  0.774236  0.630464  0.821063  1
  Dy  Dy3  1  0.225764  0.369536  0.178937  1
  Ga  Ga4  1  0.008680  0.070792  0.911849  1
  Ga  Ga5  1  0.991320  0.929208  0.088151  1
  Ga  Ga6  1  0.065743  0.673551  0.194963  1
  Ga  Ga7  1  0.934257  0.326449  0.805037  1
  Ga  Ga8  1  0.101852  0.342256  0.454039  1
  Ga  Ga9  1  0.898148  0.657744  0.545961  1
  Ga  Ga10  1  0.202626  0.603017  0.991731  1
  Ga  Ga11  1  0.797374  0.396983  0.008269  1
  Ga  Ga12  1  0.258636  0.780942  0.701786  1
  Ga  Ga13  1  0.741364  0.219058  0.298214  1
  Ga  Ga14  1  0.302623  0.899401  0.495352  1
  Ga  Ga15  1  0.697377  0.100599  0.504648  1
  Ga  Ga16  1  0.386983  0.525201  0.700833  1
  Ga  Ga17  1  0.613017  0.474799  0.299167  1
  Ga  Ga18  1  0.396824  0.205027  0.001325  1
  Ga  Ga19  1  0.603176  0.794973  0.998675  1
  Ga  Ga20  1  0.544125  0.282545  0.629206  1
  Ga  Ga21  1  0.455875  0.717455  0.370794  1
  Ga  Ga22  1  0.636402  0.934546  0.792651  1
  Ga  Ga23  1  0.363598  0.065454  0.207349  1
  Pt  Pt24  1  0.500000  0.500000  0.500000  1
  Pt  Pt25  1  0.027408  0.575590  0.369594  1
  Pt  Pt26  1  0.972592  0.424410  0.630406  1
  Pt  Pt27  1  0.138147  0.834429  0.889277  1
  Pt  Pt28  1  0.861853  0.165571  0.110723  1
  Pt  Pt29  1  0.240399  0.127623  0.391578  1
  Pt  Pt30  1  0.759601  0.872377  0.608422  1
  Pt  Pt31  1  0.345428  0.417734  0.891409  1
  Pt  Pt32  1  0.654572  0.582266  0.108591  1
  Pt  Pt33  1  0.505963  0.169156  0.818919  1
  Pt  Pt34  1  0.494037  0.830844  0.181081  1
