# generated using pymatgen
data_Ni3Hg2SbO8
_symmetry_space_group_name_H-M   'P 1'
_cell_length_a   6.34582108
_cell_length_b   6.28275214
_cell_length_c   6.27099614
_cell_angle_alpha   60.15708364
_cell_angle_beta   89.94451679
_cell_angle_gamma   119.66952577
_symmetry_Int_Tables_number   1
_chemical_formula_structural   Ni3Hg2SbO8
_chemical_formula_sum   'Ni3 Hg2 Sb1 O8'
_cell_volume   178.00121725
_cell_formula_units_Z   1
loop_
 _symmetry_equiv_pos_site_id
 _symmetry_equiv_pos_as_xyz
  1  'x, y, z'
loop_
 _atom_site_type_symbol
 _atom_site_label
 _atom_site_symmetry_multiplicity
 _atom_site_fract_x
 _atom_site_fract_y
 _atom_site_fract_z
 _atom_site_occupancy
  Ni  Ni0  1  0.374761  0.249981  0.375003  1
  Ni  Ni1  1  0.375406  0.750072  0.374835  1
  Ni  Ni2  1  0.374493  0.749505  0.875314  1
  Hg  Hg3  1  0.964204  0.975558  0.012429  1
  Hg  Hg4  1  0.785937  0.524609  0.737449  1
  Sb  Sb5  1  0.874930  0.250040  0.375036  1
  O  O6  1  0.129822  0.278376  0.147576  1
  O  O7  1  0.620717  0.221719  0.175259  1
  O  O8  1  0.545006  0.696479  0.153231  1
  O  O9  1  0.128900  0.702925  0.149199  1
  O  O10  1  0.620196  0.221627  0.602482  1
  O  O11  1  0.129377  0.278419  0.574689  1
  O  O12  1  0.205090  0.803563  0.596705  1
  O  O13  1  0.621166  0.797125  0.600793  1
