# generated using pymatgen
data_Ho5IrPdPt
_symmetry_space_group_name_H-M   'P 1'
_cell_length_a   11.05396200
_cell_length_b   11.05396200
_cell_length_c   6.31688900
_cell_angle_alpha   90.00000000
_cell_angle_beta   90.00000000
_cell_angle_gamma   90.00000000
_symmetry_Int_Tables_number   1
_chemical_formula_structural   Ho5IrPdPt
_chemical_formula_sum   'Ho20 Ir4 Pd4 Pt4'
_cell_volume   771.86114635
_cell_formula_units_Z   4
loop_
 _symmetry_equiv_pos_site_id
 _symmetry_equiv_pos_as_xyz
  1  'x, y, z'
loop_
 _atom_site_type_symbol
 _atom_site_label
 _atom_site_symmetry_multiplicity
 _atom_site_fract_x
 _atom_site_fract_y
 _atom_site_fract_z
 _atom_site_occupancy
  Ho  Ho0  1  0.297308  0.088695  0.370674  1
  Ho  Ho1  1  0.297308  0.911305  0.870674  1
  Ho  Ho2  1  0.702692  0.088695  0.870674  1
  Ho  Ho3  1  0.702692  0.911305  0.370674  1
  Ho  Ho4  1  0.585379  0.794133  0.874273  1
  Ho  Ho5  1  0.585379  0.205867  0.374273  1
  Ho  Ho6  1  0.414621  0.794133  0.374273  1
  Ho  Ho7  1  0.414621  0.205867  0.874273  1
  Ho  Ho8  1  0.205867  0.414621  0.625727  1
  Ho  Ho9  1  0.205867  0.585379  0.125727  1
  Ho  Ho10  1  0.794133  0.414621  0.125727  1
  Ho  Ho11  1  0.794133  0.585379  0.625727  1
  Ho  Ho12  1  0.911305  0.702692  0.129326  1
  Ho  Ho13  1  0.911305  0.297308  0.629326  1
  Ho  Ho14  1  0.088695  0.702692  0.629326  1
  Ho  Ho15  1  0.088695  0.297308  0.129326  1
  Ho  Ho16  1  0.000000  0.000000  0.500000  1
  Ho  Ho17  1  0.000000  0.000000  0.000000  1
  Ho  Ho18  1  0.500000  0.500000  0.000000  1
  Ho  Ho19  1  0.500000  0.500000  0.500000  1
  Ir  Ir20  1  0.500000  0.000000  0.119832  1
  Ir  Ir21  1  0.500000  0.000000  0.619832  1
  Ir  Ir22  1  0.000000  0.500000  0.880168  1
  Ir  Ir23  1  0.000000  0.500000  0.380168  1
  Pd  Pd24  1  0.845993  0.154007  0.250000  1
  Pd  Pd25  1  0.845993  0.845993  0.750000  1
  Pd  Pd26  1  0.154007  0.154007  0.750000  1
  Pd  Pd27  1  0.154007  0.845993  0.250000  1
  Pt  Pt28  1  0.653844  0.346156  0.750000  1
  Pt  Pt29  1  0.653844  0.653844  0.250000  1
  Pt  Pt30  1  0.346156  0.346156  0.250000  1
  Pt  Pt31  1  0.346156  0.653844  0.750000  1
