# generated using pymatgen
data_NaYb(NbSe2)8
_symmetry_space_group_name_H-M   'P 1'
_cell_length_a   7.00307700
_cell_length_b   7.00307711
_cell_length_c   15.01780300
_cell_angle_alpha   90.00000000
_cell_angle_beta   90.00000000
_cell_angle_gamma   119.99999477
_symmetry_Int_Tables_number   1
_chemical_formula_structural   NaYb(NbSe2)8
_chemical_formula_sum   'Na1 Yb1 Nb8 Se16'
_cell_volume   637.84457686
_cell_formula_units_Z   1
loop_
 _symmetry_equiv_pos_site_id
 _symmetry_equiv_pos_as_xyz
  1  'x, y, z'
loop_
 _atom_site_type_symbol
 _atom_site_label
 _atom_site_symmetry_multiplicity
 _atom_site_fract_x
 _atom_site_fract_y
 _atom_site_fract_z
 _atom_site_occupancy
  Na  Na0  1  0.000000  0.000000  0.000000  1
  Yb  Yb1  1  0.000000  0.000000  0.500000  1
  Nb  Nb2  1  0.000000  0.000000  0.247748  1
  Nb  Nb3  1  0.000000  0.000000  0.752252  1
  Nb  Nb4  1  0.509772  0.019545  0.248275  1
  Nb  Nb5  1  0.980455  0.490228  0.248275  1
  Nb  Nb6  1  0.509772  0.490228  0.248275  1
  Nb  Nb7  1  0.490228  0.980455  0.751725  1
  Nb  Nb8  1  0.019545  0.509772  0.751725  1
  Nb  Nb9  1  0.490228  0.509772  0.751725  1
  Se  Se10  1  0.333333  0.666667  0.869285  1
  Se  Se11  1  0.666667  0.333333  0.130715  1
  Se  Se12  1  0.666667  0.333333  0.366455  1
  Se  Se13  1  0.333333  0.666667  0.633545  1
  Se  Se14  1  0.168292  0.831708  0.358650  1
  Se  Se15  1  0.168292  0.336583  0.358650  1
  Se  Se16  1  0.663417  0.831708  0.358650  1
  Se  Se17  1  0.831708  0.168292  0.641350  1
  Se  Se18  1  0.831708  0.663417  0.641350  1
  Se  Se19  1  0.336583  0.168292  0.641350  1
  Se  Se20  1  0.830568  0.169432  0.860904  1
  Se  Se21  1  0.830568  0.661137  0.860904  1
  Se  Se22  1  0.338863  0.169432  0.860904  1
  Se  Se23  1  0.169432  0.830568  0.139096  1
  Se  Se24  1  0.169432  0.338863  0.139096  1
  Se  Se25  1  0.661137  0.830568  0.139096  1
