# generated using pymatgen
data_Nb4Cr7Si10W
_symmetry_space_group_name_H-M   'P 1'
_cell_length_a   4.87090284
_cell_length_b   7.57244293
_cell_length_c   9.13498142
_cell_angle_alpha   114.59671552
_cell_angle_beta   105.46247024
_cell_angle_gamma   89.99999980
_symmetry_Int_Tables_number   1
_chemical_formula_structural   Nb4Cr7Si10W
_chemical_formula_sum   'Nb4 Cr7 Si10 W1'
_cell_volume   292.90074830
_cell_formula_units_Z   1
loop_
 _symmetry_equiv_pos_site_id
 _symmetry_equiv_pos_as_xyz
  1  'x, y, z'
loop_
 _atom_site_type_symbol
 _atom_site_label
 _atom_site_symmetry_multiplicity
 _atom_site_fract_x
 _atom_site_fract_y
 _atom_site_fract_z
 _atom_site_occupancy
  Nb  Nb0  1  0.643124  0.022881  0.286247  1
  Nb  Nb1  1  0.142609  0.258980  0.285218  1
  Nb  Nb2  1  0.858415  0.739508  0.716830  1
  Nb  Nb3  1  0.359792  0.981694  0.719585  1
  Cr  Cr4  1  0.060790  0.804724  0.121581  1
  Cr  Cr5  1  0.441408  0.692816  0.384363  1
  Cr  Cr6  1  0.942956  0.692816  0.384363  1
  Cr  Cr7  1  0.056198  0.306289  0.613909  1
  Cr  Cr8  1  0.557710  0.306289  0.613909  1
  Cr  Cr9  1  0.939668  0.194313  0.879334  1
  Cr  Cr10  1  0.437647  0.682540  0.875294  1
  Si  Si11  1  0.246640  0.992203  0.997510  1
  Si  Si12  1  0.750868  0.992203  0.997510  1
  Si  Si13  1  0.064880  0.488528  0.129760  1
  Si  Si14  1  0.564246  0.649799  0.128491  1
  Si  Si15  1  0.212249  0.002622  0.424498  1
  Si  Si16  1  0.716012  0.423931  0.432022  1
  Si  Si17  1  0.288134  0.581438  0.576269  1
  Si  Si18  1  0.788772  0.995822  0.577542  1
  Si  Si19  1  0.432068  0.361981  0.864137  1
  Si  Si20  1  0.934509  0.512065  0.869017  1
  W  W21  1  0.561307  0.316555  0.122612  1
