# generated using pymatgen
data_PrB(PdPt)2
_symmetry_space_group_name_H-M   'P 1'
_cell_length_a   5.52251300
_cell_length_b   5.51639890
_cell_length_c   7.69256300
_cell_angle_alpha   90.00000000
_cell_angle_beta   90.00000000
_cell_angle_gamma   120.03667671
_symmetry_Int_Tables_number   1
_chemical_formula_structural   PrB(PdPt)2
_chemical_formula_sum   'Pr2 B2 Pd4 Pt4'
_cell_volume   202.87731035
_cell_formula_units_Z   2
loop_
 _symmetry_equiv_pos_site_id
 _symmetry_equiv_pos_as_xyz
  1  'x, y, z'
loop_
 _atom_site_type_symbol
 _atom_site_label
 _atom_site_symmetry_multiplicity
 _atom_site_fract_x
 _atom_site_fract_y
 _atom_site_fract_z
 _atom_site_occupancy
  Pr  Pr0  1  0.000000  0.000000  0.500000  1
  Pr  Pr1  1  0.000000  0.000000  0.000000  1
  B  B2  1  0.664812  0.329623  0.500000  1
  B  B3  1  0.335188  0.670377  0.500000  1
  Pd  Pd4  1  0.666503  0.333005  0.000000  1
  Pd  Pd5  1  0.500000  0.500000  0.299885  1
  Pd  Pd6  1  0.000000  0.500000  0.700115  1
  Pd  Pd7  1  0.333497  0.666995  0.000000  1
  Pt  Pt8  1  0.500000  0.000000  0.301464  1
  Pt  Pt9  1  0.500000  0.000000  0.698536  1
  Pt  Pt10  1  0.500000  0.500000  0.694415  1
  Pt  Pt11  1  0.000000  0.500000  0.305585  1
