# generated using pymatgen
data_Ti13Al9(OsRh3)2
_symmetry_space_group_name_H-M   'P 1'
_cell_length_a   8.74542905
_cell_length_b   8.74542851
_cell_length_c   8.74542804
_cell_angle_alpha   59.67124234
_cell_angle_beta   59.67124687
_cell_angle_gamma   59.67124875
_symmetry_Int_Tables_number   1
_chemical_formula_structural   Ti13Al9(OsRh3)2
_chemical_formula_sum   'Ti13 Al9 Os2 Rh6'
_cell_volume   469.43168200
_cell_formula_units_Z   1
loop_
 _symmetry_equiv_pos_site_id
 _symmetry_equiv_pos_as_xyz
  1  'x, y, z'
loop_
 _atom_site_type_symbol
 _atom_site_label
 _atom_site_symmetry_multiplicity
 _atom_site_fract_x
 _atom_site_fract_y
 _atom_site_fract_z
 _atom_site_occupancy
  Ti  Ti0  1  0.212973  0.212973  0.787588  1
  Ti  Ti1  1  0.787588  0.212973  0.212973  1
  Ti  Ti2  1  0.212973  0.787588  0.212973  1
  Ti  Ti3  1  0.797747  0.797747  0.188225  1
  Ti  Ti4  1  0.188225  0.797747  0.797747  1
  Ti  Ti5  1  0.797747  0.188225  0.797747  1
  Ti  Ti6  1  0.378902  0.378902  0.378902  1
  Ti  Ti7  1  0.379762  0.864990  0.379762  1
  Ti  Ti8  1  0.864990  0.379762  0.379762  1
  Ti  Ti9  1  0.379762  0.379762  0.864990  1
  Ti  Ti10  1  0.845841  0.464757  0.845841  1
  Ti  Ti11  1  0.464757  0.845841  0.845841  1
  Ti  Ti12  1  0.845841  0.845841  0.464757  1
  Al  Al13  1  0.153242  0.153242  0.153242  1
  Al  Al14  1  0.157642  0.532043  0.157642  1
  Al  Al15  1  0.532043  0.157642  0.157642  1
  Al  Al16  1  0.157642  0.157642  0.532043  1
  Al  Al17  1  0.619291  0.619291  0.619291  1
  Al  Al18  1  0.620037  0.142564  0.620037  1
  Al  Al19  1  0.142564  0.620037  0.620037  1
  Al  Al20  1  0.620037  0.620037  0.142564  1
  Al  Al21  1  0.829759  0.829759  0.829759  1
  Os  Os22  1  0.500285  0.500285  0.500285  1
  Os  Os23  1  0.003994  0.003994  0.003994  1
  Rh  Rh24  1  0.003544  0.003544  0.498104  1
  Rh  Rh25  1  0.498104  0.003544  0.003544  1
  Rh  Rh26  1  0.003544  0.498104  0.003544  1
  Rh  Rh27  1  0.500049  0.500049  0.001064  1
  Rh  Rh28  1  0.001064  0.500049  0.500049  1
  Rh  Rh29  1  0.500049  0.001064  0.500049  1
