# generated using pymatgen
data_Nd17Ho3Bi7Pb9
_symmetry_space_group_name_H-M   'P 1'
_cell_length_a   8.42714388
_cell_length_b   16.14423324
_cell_length_c   8.50556472
_cell_angle_alpha   90.06717023
_cell_angle_beta   89.88238769
_cell_angle_gamma   90.02684693
_symmetry_Int_Tables_number   1
_chemical_formula_structural   Nd17Ho3Bi7Pb9
_chemical_formula_sum   'Nd17 Ho3 Bi7 Pb9'
_cell_volume   1157.17681871
_cell_formula_units_Z   1
loop_
 _symmetry_equiv_pos_site_id
 _symmetry_equiv_pos_as_xyz
  1  'x, y, z'
loop_
 _atom_site_type_symbol
 _atom_site_label
 _atom_site_symmetry_multiplicity
 _atom_site_fract_x
 _atom_site_fract_y
 _atom_site_fract_z
 _atom_site_occupancy
  Nd  Nd0  1  0.623090  0.620695  0.159018  1
  Nd  Nd1  1  0.123560  0.879137  0.340558  1
  Nd  Nd2  1  0.376523  0.121204  0.842187  1
  Nd  Nd3  1  0.879015  0.378150  0.657692  1
  Nd  Nd4  1  0.375009  0.379211  0.839326  1
  Nd  Nd5  1  0.875891  0.122013  0.658930  1
  Nd  Nd6  1  0.623679  0.878885  0.158887  1
  Nd  Nd7  1  0.123962  0.619990  0.342358  1
  Nd  Nd8  1  0.459224  0.603185  0.673371  1
  Nd  Nd9  1  0.961843  0.896750  0.823563  1
  Nd  Nd10  1  0.539186  0.103682  0.324716  1
  Nd  Nd11  1  0.038761  0.396342  0.176485  1
  Nd  Nd12  1  0.536138  0.396490  0.327031  1
  Nd  Nd13  1  0.038704  0.103285  0.175370  1
  Nd  Nd14  1  0.461377  0.896651  0.675746  1
  Nd  Nd15  1  0.963947  0.602506  0.822275  1
  Nd  Nd16  1  0.794413  0.750261  0.503909  1
  Ho  Ho17  1  0.293087  0.749910  0.997453  1
  Ho  Ho18  1  0.206823  0.251799  0.497297  1
  Ho  Ho19  1  0.706636  0.250303  0.002971  1
  Bi  Bi20  1  0.722394  0.452075  0.973085  1
  Bi  Bi21  1  0.221489  0.047904  0.527276  1
  Bi  Bi22  1  0.278706  0.952318  0.026763  1
  Bi  Bi23  1  0.777525  0.544714  0.471598  1
  Bi  Bi24  1  0.278910  0.547688  0.026762  1
  Bi  Bi25  1  0.777314  0.955203  0.471861  1
  Bi  Bi26  1  0.721957  0.047798  0.973212  1
  Pb  Pb27  1  0.221309  0.453453  0.528550  1
  Pb  Pb28  1  0.426850  0.750259  0.372762  1
  Pb  Pb29  1  0.931100  0.749555  0.123123  1
  Pb  Pb30  1  0.569863  0.249629  0.625785  1
  Pb  Pb31  1  0.070388  0.249605  0.874848  1
  Pb  Pb32  1  0.652074  0.749793  0.853865  1
  Pb  Pb33  1  0.157676  0.750318  0.651822  1
  Pb  Pb34  1  0.345664  0.249611  0.150785  1
  Pb  Pb35  1  0.845914  0.249630  0.348759  1
