# generated using pymatgen
data_Tb2Nb3Si4
_symmetry_space_group_name_H-M   'P 1'
_cell_length_a   6.89387600
_cell_length_b   7.10605500
_cell_length_c   13.45213800
_cell_angle_alpha   90.00000000
_cell_angle_beta   90.00000000
_cell_angle_gamma   90.00000000
_symmetry_Int_Tables_number   1
_chemical_formula_structural   Tb2Nb3Si4
_chemical_formula_sum   'Tb8 Nb12 Si16'
_cell_volume   658.99686106
_cell_formula_units_Z   4
loop_
 _symmetry_equiv_pos_site_id
 _symmetry_equiv_pos_as_xyz
  1  'x, y, z'
loop_
 _atom_site_type_symbol
 _atom_site_label
 _atom_site_symmetry_multiplicity
 _atom_site_fract_x
 _atom_site_fract_y
 _atom_site_fract_z
 _atom_site_occupancy
  Tb  Tb0  1  0.506705  0.671311  0.595767  1
  Tb  Tb1  1  0.006705  0.828689  0.904233  1
  Tb  Tb2  1  0.493295  0.328689  0.095767  1
  Tb  Tb3  1  0.993295  0.171311  0.404233  1
  Tb  Tb4  1  0.493295  0.328689  0.404233  1
  Tb  Tb5  1  0.993295  0.171311  0.095767  1
  Tb  Tb6  1  0.506705  0.671311  0.904233  1
  Tb  Tb7  1  0.006705  0.828689  0.595767  1
  Nb  Nb8  1  0.665860  0.174942  0.625524  1
  Nb  Nb9  1  0.165860  0.325058  0.874476  1
  Nb  Nb10  1  0.334140  0.825058  0.125524  1
  Nb  Nb11  1  0.834140  0.674942  0.374476  1
  Nb  Nb12  1  0.334140  0.825058  0.374476  1
  Nb  Nb13  1  0.834140  0.674942  0.125524  1
  Nb  Nb14  1  0.665860  0.174942  0.874476  1
  Nb  Nb15  1  0.165860  0.325058  0.625524  1
  Nb  Nb16  1  0.840714  0.490846  0.750000  1
  Nb  Nb17  1  0.340714  0.009154  0.750000  1
  Nb  Nb18  1  0.159286  0.509154  0.250000  1
  Nb  Nb19  1  0.659286  0.990846  0.250000  1
  Si  Si20  1  0.660240  0.962811  0.458855  1
  Si  Si21  1  0.160240  0.537189  0.041145  1
  Si  Si22  1  0.339760  0.037189  0.958855  1
  Si  Si23  1  0.839760  0.462811  0.541145  1
  Si  Si24  1  0.339760  0.037189  0.541145  1
  Si  Si25  1  0.839760  0.462811  0.958855  1
  Si  Si26  1  0.660240  0.962811  0.041145  1
  Si  Si27  1  0.160240  0.537189  0.458855  1
  Si  Si28  1  0.462085  0.375329  0.750000  1
  Si  Si29  1  0.962085  0.124671  0.750000  1
  Si  Si30  1  0.537915  0.624671  0.250000  1
  Si  Si31  1  0.037915  0.875329  0.250000  1
  Si  Si32  1  0.708621  0.875698  0.750000  1
  Si  Si33  1  0.208621  0.624302  0.750000  1
  Si  Si34  1  0.291379  0.124302  0.250000  1
  Si  Si35  1  0.791379  0.375698  0.250000  1
