# generated using pymatgen
data_Ho6RuAu7
_symmetry_space_group_name_H-M   'P 1'
_cell_length_a   8.01890385
_cell_length_b   8.01890486
_cell_length_c   8.01890468
_cell_angle_alpha   114.18732147
_cell_angle_beta   114.18732772
_cell_angle_gamma   114.18730334
_symmetry_Int_Tables_number   1
_chemical_formula_structural   Ho6RuAu7
_chemical_formula_sum   'Ho6 Ru1 Au7'
_cell_volume   308.87758527
_cell_formula_units_Z   1
loop_
 _symmetry_equiv_pos_site_id
 _symmetry_equiv_pos_as_xyz
  1  'x, y, z'
loop_
 _atom_site_type_symbol
 _atom_site_label
 _atom_site_symmetry_multiplicity
 _atom_site_fract_x
 _atom_site_fract_y
 _atom_site_fract_z
 _atom_site_occupancy
  Ho  Ho0  1  0.009806  0.378070  0.260203  1
  Ho  Ho1  1  0.378070  0.260203  0.009806  1
  Ho  Ho2  1  0.739797  0.990194  0.621930  1
  Ho  Ho3  1  0.260203  0.009806  0.378070  1
  Ho  Ho4  1  0.621930  0.739797  0.990194  1
  Ho  Ho5  1  0.990194  0.621930  0.739797  1
  Ru  Ru6  1  0.000000  0.000000  0.000000  1
  Au  Au7  1  0.500000  0.500000  0.500000  1
  Au  Au8  1  0.428865  0.922618  0.760641  1
  Au  Au9  1  0.922618  0.760641  0.428865  1
  Au  Au10  1  0.239359  0.571135  0.077382  1
  Au  Au11  1  0.760641  0.428865  0.922618  1
  Au  Au12  1  0.077382  0.239359  0.571135  1
  Au  Au13  1  0.571135  0.077382  0.239359  1
