# generated using pymatgen
data_Er16MgCd3TcPd3
_symmetry_space_group_name_H-M   'P 1'
_cell_length_a   9.67185719
_cell_length_b   9.67185664
_cell_length_c   9.67185693
_cell_angle_alpha   59.03740991
_cell_angle_beta   59.03741237
_cell_angle_gamma   59.03741198
_symmetry_Int_Tables_number   1
_chemical_formula_structural   Er16MgCd3TcPd3
_chemical_formula_sum   'Er16 Mg1 Cd3 Tc1 Pd3'
_cell_volume   625.71221054
_cell_formula_units_Z   1
loop_
 _symmetry_equiv_pos_site_id
 _symmetry_equiv_pos_as_xyz
  1  'x, y, z'
loop_
 _atom_site_type_symbol
 _atom_site_label
 _atom_site_symmetry_multiplicity
 _atom_site_fract_x
 _atom_site_fract_y
 _atom_site_fract_z
 _atom_site_occupancy
  Er  Er0  1  0.353987  0.353987  0.353987  1
  Er  Er1  1  0.349523  0.349523  0.948679  1
  Er  Er2  1  0.349523  0.948679  0.349523  1
  Er  Er3  1  0.948679  0.349523  0.349523  1
  Er  Er4  1  0.816303  0.188235  0.188235  1
  Er  Er5  1  0.187698  0.811109  0.811109  1
  Er  Er6  1  0.188235  0.816303  0.188235  1
  Er  Er7  1  0.811109  0.187698  0.811109  1
  Er  Er8  1  0.188235  0.188235  0.816303  1
  Er  Er9  1  0.811109  0.811109  0.187698  1
  Er  Er10  1  0.934194  0.567170  0.567170  1
  Er  Er11  1  0.558350  0.937201  0.937201  1
  Er  Er12  1  0.567170  0.934194  0.567170  1
  Er  Er13  1  0.937201  0.558350  0.937201  1
  Er  Er14  1  0.567170  0.567170  0.934194  1
  Er  Er15  1  0.937201  0.937201  0.558350  1
  Mg  Mg16  1  0.574973  0.574973  0.574973  1
  Cd  Cd17  1  0.580900  0.580900  0.252345  1
  Cd  Cd18  1  0.580900  0.252345  0.580900  1
  Cd  Cd19  1  0.252345  0.580900  0.580900  1
  Tc  Tc20  1  0.145003  0.145003  0.145003  1
  Pd  Pd21  1  0.145037  0.145037  0.570114  1
  Pd  Pd22  1  0.145037  0.570114  0.145037  1
  Pd  Pd23  1  0.570114  0.145037  0.145037  1
