# generated using pymatgen
data_Er2Tm2Co3Si4Rh
_symmetry_space_group_name_H-M   'P 1'
_cell_length_a   4.15713400
_cell_length_b   6.78926671
_cell_length_c   7.10597498
_cell_angle_alpha   90.15075879
_cell_angle_beta   90.00000000
_cell_angle_gamma   90.00000000
_symmetry_Int_Tables_number   1
_chemical_formula_structural   Er2Tm2Co3Si4Rh
_chemical_formula_sum   'Er2 Tm2 Co3 Si4 Rh1'
_cell_volume   200.55757220
_cell_formula_units_Z   1
loop_
 _symmetry_equiv_pos_site_id
 _symmetry_equiv_pos_as_xyz
  1  'x, y, z'
loop_
 _atom_site_type_symbol
 _atom_site_label
 _atom_site_symmetry_multiplicity
 _atom_site_fract_x
 _atom_site_fract_y
 _atom_site_fract_z
 _atom_site_occupancy
  Er  Er0  1  0.750000  0.506376  0.313211  1
  Er  Er1  1  0.750000  0.006599  0.193488  1
  Tm  Tm2  1  0.250000  0.484694  0.690546  1
  Tm  Tm3  1  0.250000  0.993572  0.803220  1
  Co  Co4  1  0.750000  0.849215  0.571327  1
  Co  Co5  1  0.250000  0.156163  0.434209  1
  Co  Co6  1  0.750000  0.349350  0.931723  1
  Si  Si7  1  0.250000  0.294932  0.099645  1
  Si  Si8  1  0.750000  0.698581  0.884384  1
  Si  Si9  1  0.250000  0.804830  0.408752  1
  Si  Si10  1  0.750000  0.197416  0.602186  1
  Rh  Rh11  1  0.250000  0.658273  0.067310  1
