# generated using pymatgen
data_CaLaAl20Ru3Rh
_symmetry_space_group_name_H-M   'P 1'
_cell_length_a   6.89294721
_cell_length_b   6.89695702
_cell_length_c   9.21558257
_cell_angle_alpha   90.18002419
_cell_angle_beta   90.08951401
_cell_angle_gamma   96.79835056
_symmetry_Int_Tables_number   1
_chemical_formula_structural   CaLaAl20Ru3Rh
_chemical_formula_sum   'Ca1 La1 Al20 Ru3 Rh1'
_cell_volume   435.02874295
_cell_formula_units_Z   1
loop_
 _symmetry_equiv_pos_site_id
 _symmetry_equiv_pos_as_xyz
  1  'x, y, z'
loop_
 _atom_site_type_symbol
 _atom_site_label
 _atom_site_symmetry_multiplicity
 _atom_site_fract_x
 _atom_site_fract_y
 _atom_site_fract_z
 _atom_site_occupancy
  Ca  Ca0  1  0.874800  0.123532  0.749978  1
  La  La1  1  0.124032  0.877716  0.250312  1
  Al  Al2  1  0.620314  0.376506  0.549888  1
  Al  Al3  1  0.380735  0.622387  0.447606  1
  Al  Al4  1  0.378461  0.621888  0.050525  1
  Al  Al5  1  0.622977  0.376536  0.951534  1
  Al  Al6  1  0.226901  0.226969  0.501068  1
  Al  Al7  1  0.771590  0.775407  0.503044  1
  Al  Al8  1  0.772247  0.774823  0.997475  1
  Al  Al9  1  0.225842  0.226876  0.998645  1
  Al  Al10  1  0.840290  0.160312  0.098921  1
  Al  Al11  1  0.160565  0.838248  0.898759  1
  Al  Al12  1  0.162168  0.839955  0.602911  1
  Al  Al13  1  0.838532  0.159619  0.398970  1
  Al  Al14  1  0.859289  0.587034  0.751057  1
  Al  Al15  1  0.139154  0.409553  0.249178  1
  Al  Al16  1  0.413037  0.139795  0.750482  1
  Al  Al17  1  0.590980  0.861614  0.249586  1
  Al  Al18  1  0.221323  0.478852  0.752615  1
  Al  Al19  1  0.776666  0.517035  0.247190  1
  Al  Al20  1  0.521093  0.780663  0.749438  1
  Al  Al21  1  0.483109  0.221742  0.250445  1
  Ru  Ru22  1  0.999617  0.501246  0.999352  1
  Ru  Ru23  1  0.498386  0.000039  0.999333  1
  Ru  Ru24  1  0.498598  0.000201  0.500846  1
  Rh  Rh25  1  0.999291  0.501450  0.500843  1
