# generated using pymatgen
data_Dy2Tm10ZnCo4Bi
_symmetry_space_group_name_H-M   'P 1'
_cell_length_a   8.27460552
_cell_length_b   8.21626495
_cell_length_c   8.21626617
_cell_angle_alpha   111.86863982
_cell_angle_beta   108.91173169
_cell_angle_gamma   107.39661790
_symmetry_Int_Tables_number   1
_chemical_formula_structural   Dy2Tm10ZnCo4Bi
_chemical_formula_sum   'Dy2 Tm10 Zn1 Co4 Bi1'
_cell_volume   430.74413981
_cell_formula_units_Z   1
loop_
 _symmetry_equiv_pos_site_id
 _symmetry_equiv_pos_as_xyz
  1  'x, y, z'
loop_
 _atom_site_type_symbol
 _atom_site_label
 _atom_site_symmetry_multiplicity
 _atom_site_fract_x
 _atom_site_fract_y
 _atom_site_fract_z
 _atom_site_occupancy
  Dy  Dy0  1  0.429844  0.226477  0.203367  1
  Dy  Dy1  1  0.570156  0.773523  0.796633  1
  Tm  Tm2  1  0.025612  0.228092  0.797520  1
  Tm  Tm3  1  0.974388  0.771908  0.202480  1
  Tm  Tm4  1  0.177512  0.280359  0.459896  1
  Tm  Tm5  1  0.822488  0.719641  0.540104  1
  Tm  Tm6  1  0.177512  0.717616  0.897152  1
  Tm  Tm7  1  0.822488  0.282384  0.102848  1
  Tm  Tm8  1  0.320988  0.638345  0.311890  1
  Tm  Tm9  1  0.679012  0.361655  0.688110  1
  Tm  Tm10  1  0.320988  0.009098  0.682645  1
  Tm  Tm11  1  0.679012  0.990902  0.317355  1
  Zn  Zn12  1  0.000000  0.000000  0.000000  1
  Co  Co13  1  0.344343  0.998710  0.345633  1
  Co  Co14  1  0.655657  0.001290  0.654367  1
  Co  Co15  1  0.112437  0.614832  0.497604  1
  Co  Co16  1  0.887563  0.385168  0.502396  1
  Bi  Bi17  1  0.500000  0.500000  0.000000  1
