# generated using pymatgen
data_YbU2TaSb5
_symmetry_space_group_name_H-M   'P 1'
_cell_length_a   9.27914400
_cell_length_b   9.20259864
_cell_length_c   6.13878200
_cell_angle_alpha   90.00000000
_cell_angle_beta   90.00000000
_cell_angle_gamma   120.27554135
_symmetry_Int_Tables_number   1
_chemical_formula_structural   YbU2TaSb5
_chemical_formula_sum   'Yb2 U4 Ta2 Sb10'
_cell_volume   452.70854793
_cell_formula_units_Z   2
loop_
 _symmetry_equiv_pos_site_id
 _symmetry_equiv_pos_as_xyz
  1  'x, y, z'
loop_
 _atom_site_type_symbol
 _atom_site_label
 _atom_site_symmetry_multiplicity
 _atom_site_fract_x
 _atom_site_fract_y
 _atom_site_fract_z
 _atom_site_occupancy
  Yb  Yb0  1  0.616122  0.000000  0.750000  1
  Yb  Yb1  1  0.383878  0.000000  0.250000  1
  U  U2  1  0.007023  0.618494  0.750000  1
  U  U3  1  0.992977  0.381506  0.250000  1
  U  U4  1  0.388528  0.381506  0.750000  1
  U  U5  1  0.611472  0.618494  0.250000  1
  Ta  Ta6  1  0.000000  0.000000  0.500000  1
  Ta  Ta7  1  0.000000  0.000000  0.000000  1
  Sb  Sb8  1  0.262385  0.000000  0.750000  1
  Sb  Sb9  1  0.737615  0.000000  0.250000  1
  Sb  Sb10  1  0.004533  0.268417  0.750000  1
  Sb  Sb11  1  0.995467  0.731583  0.250000  1
  Sb  Sb12  1  0.736117  0.731583  0.750000  1
  Sb  Sb13  1  0.263883  0.268417  0.250000  1
  Sb  Sb14  1  0.327911  0.655824  0.500000  1
  Sb  Sb15  1  0.672089  0.344176  0.500000  1
  Sb  Sb16  1  0.672089  0.344176  0.000000  1
  Sb  Sb17  1  0.327911  0.655824  0.000000  1
