# generated using pymatgen
data_YbMoW3C4
_symmetry_space_group_name_H-M   'P 1'
_cell_length_a   6.17624591
_cell_length_b   6.17624724
_cell_length_c   6.16979445
_cell_angle_alpha   93.96949658
_cell_angle_beta   93.85865455
_cell_angle_gamma   149.72571848
_symmetry_Int_Tables_number   1
_chemical_formula_structural   YbMoW3C4
_chemical_formula_sum   'Yb1 Mo1 W3 C4'
_cell_volume   114.52532598
_cell_formula_units_Z   1
loop_
 _symmetry_equiv_pos_site_id
 _symmetry_equiv_pos_as_xyz
  1  'x, y, z'
loop_
 _atom_site_type_symbol
 _atom_site_label
 _atom_site_symmetry_multiplicity
 _atom_site_fract_x
 _atom_site_fract_y
 _atom_site_fract_z
 _atom_site_occupancy
  Yb  Yb0  1  0.999158  0.000563  0.999721  1
  Mo  Mo1  1  0.181075  0.624755  0.805829  1
  W  W2  1  0.817791  0.373854  0.191643  1
  W  W3  1  0.626414  0.818430  0.444843  1
  W  W4  1  0.375591  0.180814  0.556406  1
  C  C5  1  0.400475  0.731152  0.131627  1
  C  C6  1  0.729718  0.599865  0.329582  1
  C  C7  1  0.270139  0.399242  0.669381  1
  C  C8  1  0.599643  0.271328  0.870970  1
