# generated using pymatgen
data_Hf6Ga5Sn(IrRh2)2
_symmetry_space_group_name_H-M   'P 1'
_cell_length_a   7.22440168
_cell_length_b   7.22440113
_cell_length_c   6.91634100
_cell_angle_alpha   90.02007580
_cell_angle_beta   89.97992529
_cell_angle_gamma   119.90428667
_symmetry_Int_Tables_number   1
_chemical_formula_structural   Hf6Ga5Sn(IrRh2)2
_chemical_formula_sum   'Hf6 Ga5 Sn1 Ir2 Rh4'
_cell_volume   312.91673273
_cell_formula_units_Z   1
loop_
 _symmetry_equiv_pos_site_id
 _symmetry_equiv_pos_as_xyz
  1  'x, y, z'
loop_
 _atom_site_type_symbol
 _atom_site_label
 _atom_site_symmetry_multiplicity
 _atom_site_fract_x
 _atom_site_fract_y
 _atom_site_fract_z
 _atom_site_occupancy
  Hf  Hf0  1  0.999458  0.401741  0.747155  1
  Hf  Hf1  1  0.606779  0.612025  0.745798  1
  Hf  Hf2  1  0.396245  0.987931  0.747749  1
  Hf  Hf3  1  0.987931  0.396245  0.252251  1
  Hf  Hf4  1  0.612025  0.606779  0.254202  1
  Hf  Hf5  1  0.401741  0.999458  0.252845  1
  Ga  Ga6  1  0.274956  0.274956  0.500000  1
  Ga  Ga7  1  0.003095  0.723546  0.499824  1
  Ga  Ga8  1  0.000152  0.741381  0.999819  1
  Ga  Ga9  1  0.723546  0.003095  0.500176  1
  Ga  Ga10  1  0.741381  0.000152  0.000181  1
  Sn  Sn11  1  0.255586  0.255586  0.000000  1
  Ir  Ir12  1  0.335296  0.666334  0.492318  1
  Ir  Ir13  1  0.666334  0.335296  0.507682  1
  Rh  Rh14  1  0.335512  0.671854  0.008798  1
  Rh  Rh15  1  0.994171  0.993938  0.723501  1
  Rh  Rh16  1  0.993938  0.994171  0.276499  1
  Rh  Rh17  1  0.671854  0.335512  0.991202  1
