# generated using pymatgen
data_PrDy3(B2Ir5)2
_symmetry_space_group_name_H-M   'P 1'
_cell_length_a   11.07564089
_cell_length_b   11.07564033
_cell_length_c   11.07564106
_cell_angle_alpha   28.75658314
_cell_angle_beta   28.75658806
_cell_angle_gamma   28.75659616
_symmetry_Int_Tables_number   1
_chemical_formula_structural   PrDy3(B2Ir5)2
_chemical_formula_sum   'Pr1 Dy3 B4 Ir10'
_cell_volume   278.03560062
_cell_formula_units_Z   1
loop_
 _symmetry_equiv_pos_site_id
 _symmetry_equiv_pos_as_xyz
  1  'x, y, z'
loop_
 _atom_site_type_symbol
 _atom_site_label
 _atom_site_symmetry_multiplicity
 _atom_site_fract_x
 _atom_site_fract_y
 _atom_site_fract_z
 _atom_site_occupancy
  Pr  Pr0  1  0.151402  0.151402  0.151402  1
  Dy  Dy1  1  0.950345  0.950345  0.950345  1
  Dy  Dy2  1  0.848433  0.848433  0.848433  1
  Dy  Dy3  1  0.049485  0.049485  0.049485  1
  B  B4  1  0.617964  0.617964  0.617964  1
  B  B5  1  0.716083  0.716083  0.716083  1
  B  B6  1  0.382128  0.382128  0.382128  1
  B  B7  1  0.283765  0.283765  0.283765  1
  Ir  Ir8  1  0.407780  0.898426  0.407780  1
  Ir  Ir9  1  0.898426  0.407780  0.407780  1
  Ir  Ir10  1  0.499951  0.499951  0.000163  1
  Ir  Ir11  1  0.499951  0.000163  0.499951  1
  Ir  Ir12  1  0.000163  0.499951  0.499951  1
  Ir  Ir13  1  0.500190  0.500190  0.500190  1
  Ir  Ir14  1  0.592931  0.100292  0.592931  1
  Ir  Ir15  1  0.592931  0.592931  0.100292  1
  Ir  Ir16  1  0.100292  0.592931  0.592931  1
  Ir  Ir17  1  0.407780  0.407780  0.898426  1
