# generated using pymatgen
data_Nd2URu2
_symmetry_space_group_name_H-M   'P 1'
_cell_length_a   6.12339142
_cell_length_b   6.12339003
_cell_length_c   6.12339120
_cell_angle_alpha   140.39609115
_cell_angle_beta   122.35480060
_cell_angle_gamma   72.20390596
_symmetry_Int_Tables_number   1
_chemical_formula_structural   Nd2URu2
_chemical_formula_sum   'Nd2 U1 Ru2'
_cell_volume   121.19160024
_cell_formula_units_Z   1
loop_
 _symmetry_equiv_pos_site_id
 _symmetry_equiv_pos_as_xyz
  1  'x, y, z'
loop_
 _atom_site_type_symbol
 _atom_site_label
 _atom_site_symmetry_multiplicity
 _atom_site_fract_x
 _atom_site_fract_y
 _atom_site_fract_z
 _atom_site_occupancy
  Nd  Nd0  1  0.695103  0.195103  0.500000  1
  Nd  Nd1  1  0.304897  0.804896  0.500000  1
  U  U2  1  0.000000  0.000000  0.000000  1
  Ru  Ru3  1  0.760873  0.500000  0.260873  1
  Ru  Ru4  1  0.239127  0.500000  0.739126  1
