# generated using pymatgen
data_Hf8IrPd3N2
_symmetry_space_group_name_H-M   'P 1'
_cell_length_a   8.75523620
_cell_length_b   8.75523583
_cell_length_c   8.75578900
_cell_angle_alpha   59.99790618
_cell_angle_beta   59.99790756
_cell_angle_gamma   60.01281579
_symmetry_Int_Tables_number   1
_chemical_formula_structural   Hf8IrPd3N2
_chemical_formula_sum   'Hf16 Ir2 Pd6 N4'
_cell_volume   474.61811238
_cell_formula_units_Z   2
loop_
 _symmetry_equiv_pos_site_id
 _symmetry_equiv_pos_as_xyz
  1  'x, y, z'
loop_
 _atom_site_type_symbol
 _atom_site_label
 _atom_site_symmetry_multiplicity
 _atom_site_fract_x
 _atom_site_fract_y
 _atom_site_fract_z
 _atom_site_occupancy
  Hf  Hf0  1  0.129288  0.625544  0.622584  1
  Hf  Hf1  1  0.625544  0.129288  0.622584  1
  Hf  Hf2  1  0.623427  0.623427  0.131288  1
  Hf  Hf3  1  0.623427  0.623427  0.621857  1
  Hf  Hf4  1  0.816265  0.816265  0.183735  1
  Hf  Hf5  1  0.180964  0.180964  0.819036  1
  Hf  Hf6  1  0.817819  0.181662  0.817783  1
  Hf  Hf7  1  0.181662  0.817819  0.182736  1
  Hf  Hf8  1  0.181662  0.817819  0.817783  1
  Hf  Hf9  1  0.817819  0.181662  0.182736  1
  Hf  Hf10  1  0.431145  0.431145  0.068855  1
  Hf  Hf11  1  0.067644  0.067644  0.432356  1
  Hf  Hf12  1  0.431022  0.065370  0.431919  1
  Hf  Hf13  1  0.065370  0.431022  0.071689  1
  Hf  Hf14  1  0.065370  0.431022  0.431919  1
  Hf  Hf15  1  0.431022  0.065370  0.071689  1
  Ir  Ir16  1  0.783305  0.406844  0.404926  1
  Ir  Ir17  1  0.406844  0.783305  0.404926  1
  Pd  Pd18  1  0.408809  0.408809  0.773765  1
  Pd  Pd19  1  0.408809  0.408809  0.408618  1
  Pd  Pd20  1  0.476446  0.842058  0.840747  1
  Pd  Pd21  1  0.842058  0.476446  0.840747  1
  Pd  Pd22  1  0.840943  0.840943  0.477948  1
  Pd  Pd23  1  0.840943  0.840943  0.840166  1
  N  N24  1  0.627243  0.124725  0.124016  1
  N  N25  1  0.124725  0.627243  0.124016  1
  N  N26  1  0.125213  0.125213  0.625194  1
  N  N27  1  0.125213  0.125213  0.124381  1
