# generated using pymatgen
data_LaPr5PtAu7
_symmetry_space_group_name_H-M   'P 1'
_cell_length_a   8.31649524
_cell_length_b   8.31919112
_cell_length_c   8.31527668
_cell_angle_alpha   113.69731244
_cell_angle_beta   113.80748446
_cell_angle_gamma   113.86049926
_symmetry_Int_Tables_number   1
_chemical_formula_structural   LaPr5PtAu7
_chemical_formula_sum   'La1 Pr5 Pt1 Au7'
_cell_volume   354.94328571
_cell_formula_units_Z   1
loop_
 _symmetry_equiv_pos_site_id
 _symmetry_equiv_pos_as_xyz
  1  'x, y, z'
loop_
 _atom_site_type_symbol
 _atom_site_label
 _atom_site_symmetry_multiplicity
 _atom_site_fract_x
 _atom_site_fract_y
 _atom_site_fract_z
 _atom_site_occupancy
  La  La0  1  0.731874  0.612846  0.980532  1
  Pr  Pr1  1  0.390427  0.018835  0.269451  1
  Pr  Pr2  1  0.018305  0.269336  0.389315  1
  Pr  Pr3  1  0.268139  0.388112  0.018142  1
  Pr  Pr4  1  0.610198  0.980971  0.731138  1
  Pr  Pr5  1  0.982185  0.731403  0.612020  1
  Pt  Pt6  1  0.000582  0.000013  0.001233  1
  Au  Au7  1  0.498567  0.499035  0.496740  1
  Au  Au8  1  0.234641  0.072473  0.571513  1
  Au  Au9  1  0.072437  0.570386  0.234410  1
  Au  Au10  1  0.571374  0.235242  0.073453  1
  Au  Au11  1  0.765654  0.927911  0.430227  1
  Au  Au12  1  0.927499  0.428069  0.764511  1
  Au  Au13  1  0.428118  0.765369  0.927313  1
