# generated using pymatgen
data_Sc6Al6CuSi3Au2
_symmetry_space_group_name_H-M   'P 1'
_cell_length_a   6.69933200
_cell_length_b   6.69933313
_cell_length_c   8.14023300
_cell_angle_alpha   90.00000000
_cell_angle_beta   90.00000000
_cell_angle_gamma   119.99999444
_symmetry_Int_Tables_number   1
_chemical_formula_structural   Sc6Al6CuSi3Au2
_chemical_formula_sum   'Sc6 Al6 Cu1 Si3 Au2'
_cell_volume   316.39569554
_cell_formula_units_Z   1
loop_
 _symmetry_equiv_pos_site_id
 _symmetry_equiv_pos_as_xyz
  1  'x, y, z'
loop_
 _atom_site_type_symbol
 _atom_site_label
 _atom_site_symmetry_multiplicity
 _atom_site_fract_x
 _atom_site_fract_y
 _atom_site_fract_z
 _atom_site_occupancy
  Sc  Sc0  1  0.587204  0.001548  0.742885  1
  Sc  Sc1  1  0.998452  0.585654  0.742885  1
  Sc  Sc2  1  0.414346  0.412796  0.742885  1
  Sc  Sc3  1  0.999259  0.576791  0.257867  1
  Sc  Sc4  1  0.577531  0.000741  0.257867  1
  Sc  Sc5  1  0.423209  0.422469  0.257867  1
  Al  Al6  1  0.750356  0.754011  0.991568  1
  Al  Al7  1  0.245989  0.996344  0.991568  1
  Al  Al8  1  0.003656  0.249644  0.991568  1
  Al  Al9  1  0.756749  0.756914  0.507800  1
  Al  Al10  1  0.243086  0.999836  0.507800  1
  Al  Al11  1  0.000164  0.243251  0.507800  1
  Cu  Cu12  1  0.000000  0.000000  0.750628  1
  Si  Si13  1  0.666667  0.333333  0.998777  1
  Si  Si14  1  0.666667  0.333333  0.501244  1
  Si  Si15  1  0.333333  0.666667  0.501442  1
  Au  Au16  1  0.000000  0.000000  0.247429  1
  Au  Au17  1  0.333333  0.666667  0.000120  1
