# generated using pymatgen
data_Er5Mg3(P3Ir4)4
_symmetry_space_group_name_H-M   'P 1'
_cell_length_a   12.69128900
_cell_length_b   12.69128816
_cell_length_c   3.96264400
_cell_angle_alpha   90.00000000
_cell_angle_beta   90.00000000
_cell_angle_gamma   119.99999958
_symmetry_Int_Tables_number   1
_chemical_formula_structural   Er5Mg3(P3Ir4)4
_chemical_formula_sum   'Er5 Mg3 P12 Ir16'
_cell_volume   552.74793634
_cell_formula_units_Z   1
loop_
 _symmetry_equiv_pos_site_id
 _symmetry_equiv_pos_as_xyz
  1  'x, y, z'
loop_
 _atom_site_type_symbol
 _atom_site_label
 _atom_site_symmetry_multiplicity
 _atom_site_fract_x
 _atom_site_fract_y
 _atom_site_fract_z
 _atom_site_occupancy
  Er  Er0  1  0.333333  0.666667  0.000000  1
  Er  Er1  1  0.666667  0.333333  0.000000  1
  Er  Er2  1  0.807951  0.000000  0.500000  1
  Er  Er3  1  0.000000  0.807951  0.500000  1
  Er  Er4  1  0.192049  0.192049  0.500000  1
  Mg  Mg5  1  0.442310  0.000000  0.000000  1
  Mg  Mg6  1  0.000000  0.442310  0.000000  1
  Mg  Mg7  1  0.557690  0.557690  0.000000  1
  P  P8  1  0.176549  0.000000  0.000000  1
  P  P9  1  0.000000  0.176549  0.000000  1
  P  P10  1  0.823451  0.823451  0.000000  1
  P  P11  1  0.173070  0.484178  0.500000  1
  P  P12  1  0.515822  0.688891  0.500000  1
  P  P13  1  0.311109  0.826930  0.500000  1
  P  P14  1  0.688891  0.515822  0.500000  1
  P  P15  1  0.826930  0.311109  0.500000  1
  P  P16  1  0.484178  0.173070  0.500000  1
  P  P17  1  0.639647  0.000000  0.000000  1
  P  P18  1  0.000000  0.639647  0.000000  1
  P  P19  1  0.360353  0.360353  0.000000  1
  Ir  Ir20  1  0.360269  0.491732  0.500000  1
  Ir  Ir21  1  0.508268  0.868537  0.500000  1
  Ir  Ir22  1  0.131463  0.639731  0.500000  1
  Ir  Ir23  1  0.868537  0.508268  0.500000  1
  Ir  Ir24  1  0.639731  0.131463  0.500000  1
  Ir  Ir25  1  0.491732  0.360269  0.500000  1
  Ir  Ir26  1  0.179277  0.372166  0.000000  1
  Ir  Ir27  1  0.627834  0.807112  0.000000  1
  Ir  Ir28  1  0.192888  0.820723  0.000000  1
  Ir  Ir29  1  0.807112  0.627834  0.000000  1
  Ir  Ir30  1  0.820723  0.192888  0.000000  1
  Ir  Ir31  1  0.372166  0.179277  0.000000  1
  Ir  Ir32  1  0.278296  0.000000  0.500000  1
  Ir  Ir33  1  0.000000  0.278296  0.500000  1
  Ir  Ir34  1  0.721704  0.721704  0.500000  1
  Ir  Ir35  1  0.000000  0.000000  0.000000  1
