# generated using pymatgen
data_Dy8Si(PdPt5)4
_symmetry_space_group_name_H-M   'P 1'
_cell_length_a   8.32501878
_cell_length_b   8.29911600
_cell_length_c   8.34972900
_cell_angle_alpha   90.00000000
_cell_angle_beta   90.02481091
_cell_angle_gamma   90.00000000
_symmetry_Int_Tables_number   1
_chemical_formula_structural   Dy8Si(PdPt5)4
_chemical_formula_sum   'Dy8 Si1 Pd4 Pt20'
_cell_volume   576.88519873
_cell_formula_units_Z   1
loop_
 _symmetry_equiv_pos_site_id
 _symmetry_equiv_pos_as_xyz
  1  'x, y, z'
loop_
 _atom_site_type_symbol
 _atom_site_label
 _atom_site_symmetry_multiplicity
 _atom_site_fract_x
 _atom_site_fract_y
 _atom_site_fract_z
 _atom_site_occupancy
  Dy  Dy0  1  0.252543  0.252555  0.252846  1
  Dy  Dy1  1  0.747125  0.746757  0.746709  1
  Dy  Dy2  1  0.747401  0.747192  0.252932  1
  Dy  Dy3  1  0.747125  0.253243  0.746709  1
  Dy  Dy4  1  0.252848  0.252863  0.746647  1
  Dy  Dy5  1  0.252543  0.747445  0.252846  1
  Dy  Dy6  1  0.252848  0.747137  0.746647  1
  Dy  Dy7  1  0.747401  0.252808  0.252932  1
  Si  Si8  1  0.000410  0.000000  0.003411  1
  Pd  Pd9  1  0.742645  0.000000  0.500098  1
  Pd  Pd10  1  0.999907  0.500000  0.257525  1
  Pd  Pd11  1  0.999948  0.500000  0.741499  1
  Pd  Pd12  1  0.999634  0.000000  0.720228  1
  Pt  Pt13  1  0.257192  0.500000  0.999914  1
  Pt  Pt14  1  0.742921  0.500000  0.999965  1
  Pt  Pt15  1  0.000237  0.257977  0.499915  1
  Pt  Pt16  1  0.500021  0.257854  0.999946  1
  Pt  Pt17  1  0.000237  0.742023  0.499915  1
  Pt  Pt18  1  0.500021  0.742146  0.999946  1
  Pt  Pt19  1  0.500043  0.000000  0.257411  1
  Pt  Pt20  1  0.257226  0.000000  0.499971  1
  Pt  Pt21  1  0.500075  0.000000  0.741639  1
  Pt  Pt22  1  0.251501  0.500000  0.499921  1
  Pt  Pt23  1  0.748444  0.500000  0.499920  1
  Pt  Pt24  1  0.499866  0.252157  0.499897  1
  Pt  Pt25  1  0.499866  0.747843  0.499897  1
  Pt  Pt26  1  0.500032  0.500000  0.252259  1
  Pt  Pt27  1  0.500063  0.500000  0.747838  1
  Pt  Pt28  1  0.280996  0.000000  0.999041  1
  Pt  Pt29  1  0.719262  0.000000  0.999197  1
  Pt  Pt30  1  0.000038  0.281977  0.999103  1
  Pt  Pt31  1  0.000038  0.718023  0.999103  1
  Pt  Pt32  1  0.999541  0.000000  0.284175  1
