# generated using pymatgen
data_ZnCr21IrC6
_symmetry_space_group_name_H-M   'P 1'
_cell_length_a   7.48735110
_cell_length_b   7.48735083
_cell_length_c   7.48735000
_cell_angle_alpha   59.99999484
_cell_angle_beta   59.99999602
_cell_angle_gamma   59.99999616
_symmetry_Int_Tables_number   1
_chemical_formula_structural   ZnCr21IrC6
_chemical_formula_sum   'Zn1 Cr21 Ir1 C6'
_cell_volume   296.80381331
_cell_formula_units_Z   1
loop_
 _symmetry_equiv_pos_site_id
 _symmetry_equiv_pos_as_xyz
  1  'x, y, z'
loop_
 _atom_site_type_symbol
 _atom_site_label
 _atom_site_symmetry_multiplicity
 _atom_site_fract_x
 _atom_site_fract_y
 _atom_site_fract_z
 _atom_site_occupancy
  Zn  Zn0  1  0.000000  0.000000  0.000000  1
  Cr  Cr1  1  0.250000  0.250000  0.250000  1
  Cr  Cr2  1  0.612776  0.612776  0.161673  1
  Cr  Cr3  1  0.612776  0.161673  0.612776  1
  Cr  Cr4  1  0.161673  0.612776  0.612776  1
  Cr  Cr5  1  0.612776  0.612776  0.612776  1
  Cr  Cr6  1  0.379014  0.379014  0.862958  1
  Cr  Cr7  1  0.379014  0.862958  0.379014  1
  Cr  Cr8  1  0.862958  0.379014  0.379014  1
  Cr  Cr9  1  0.379014  0.379014  0.379014  1
  Cr  Cr10  1  0.999788  0.999788  0.342956  1
  Cr  Cr11  1  0.657468  0.999788  0.342956  1
  Cr  Cr12  1  0.999788  0.657468  0.342956  1
  Cr  Cr13  1  0.657468  0.342956  0.999788  1
  Cr  Cr14  1  0.999788  0.342956  0.999788  1
  Cr  Cr15  1  0.999788  0.342956  0.657468  1
  Cr  Cr16  1  0.342956  0.657468  0.999788  1
  Cr  Cr17  1  0.342956  0.999788  0.657468  1
  Cr  Cr18  1  0.342956  0.999788  0.999788  1
  Cr  Cr19  1  0.999788  0.999788  0.657468  1
  Cr  Cr20  1  0.999788  0.657468  0.999788  1
  Cr  Cr21  1  0.657468  0.999788  0.999788  1
  Ir  Ir22  1  0.750000  0.750000  0.750000  1
  C  C23  1  0.722596  0.722596  0.277404  1
  C  C24  1  0.277404  0.722596  0.277404  1
  C  C25  1  0.722596  0.277404  0.277404  1
  C  C26  1  0.277404  0.277404  0.722596  1
  C  C27  1  0.722596  0.277404  0.722596  1
  C  C28  1  0.277404  0.722596  0.722596  1
