# generated using pymatgen
data_Dy3TmRh4F28
_symmetry_space_group_name_H-M   'P 1'
_cell_length_a   5.51589860
_cell_length_b   8.84069728
_cell_length_c   11.88832486
_cell_angle_alpha   62.61692552
_cell_angle_beta   90.07953286
_cell_angle_gamma   90.00537464
_symmetry_Int_Tables_number   1
_chemical_formula_structural   Dy3TmRh4F28
_chemical_formula_sum   'Dy3 Tm1 Rh4 F28'
_cell_volume   514.76866291
_cell_formula_units_Z   1
loop_
 _symmetry_equiv_pos_site_id
 _symmetry_equiv_pos_as_xyz
  1  'x, y, z'
loop_
 _atom_site_type_symbol
 _atom_site_label
 _atom_site_symmetry_multiplicity
 _atom_site_fract_x
 _atom_site_fract_y
 _atom_site_fract_z
 _atom_site_occupancy
  Dy  Dy0  1  0.260697  0.184588  0.734839  1
  Dy  Dy1  1  0.238948  0.187090  0.234450  1
  Dy  Dy2  1  0.739133  0.812565  0.265657  1
  Tm  Tm3  1  0.761508  0.812410  0.765459  1
  Rh  Rh4  1  0.757850  0.274827  0.955368  1
  Rh  Rh5  1  0.258203  0.726928  0.545360  1
  Rh  Rh6  1  0.242148  0.727059  0.042386  1
  Rh  Rh7  1  0.742752  0.272333  0.456892  1
  F  F8  1  0.440380  0.705835  0.914969  1
  F  F9  1  0.938571  0.294414  0.584614  1
  F  F10  1  0.562211  0.295735  0.083570  1
  F  F11  1  0.061305  0.705257  0.417339  1
  F  F12  1  0.442918  0.277848  0.543408  1
  F  F13  1  0.941864  0.723015  0.954247  1
  F  F14  1  0.556597  0.721327  0.457698  1
  F  F15  1  0.057708  0.279447  0.042144  1
  F  F16  1  0.771942  0.520969  0.859115  1
  F  F17  1  0.272711  0.481517  0.641148  1
  F  F18  1  0.226629  0.481741  0.139207  1
  F  F19  1  0.727483  0.517754  0.360282  1
  F  F20  1  0.755954  0.029598  0.048828  1
  F  F21  1  0.256226  0.971932  0.451366  1
  F  F22  1  0.244612  0.972432  0.949702  1
  F  F23  1  0.744211  0.027182  0.550657  1
  F  F24  1  0.966482  0.728764  0.638266  1
  F  F25  1  0.465880  0.273031  0.863333  1
  F  F26  1  0.034900  0.272326  0.364573  1
  F  F27  1  0.533849  0.727163  0.135548  1
  F  F28  1  0.049646  0.746185  0.173439  1
  F  F29  1  0.551474  0.253410  0.325645  1
  F  F30  1  0.949233  0.254928  0.824737  1
  F  F31  1  0.453481  0.747425  0.675583  1
  F  F32  1  0.412474  0.969173  0.230951  1
  F  F33  1  0.912363  0.030596  0.269084  1
  F  F34  1  0.586604  0.025442  0.768581  1
  F  F35  1  0.081053  0.967753  0.731558  1
