# generated using pymatgen
data_La4Pr12MgCd3Ni4
_symmetry_space_group_name_H-M   'P 1'
_cell_length_a   9.95482517
_cell_length_b   9.95522262
_cell_length_c   9.95523690
_cell_angle_alpha   60.16353873
_cell_angle_beta   60.16165326
_cell_angle_gamma   60.16167324
_symmetry_Int_Tables_number   1
_chemical_formula_structural   La4Pr12MgCd3Ni4
_chemical_formula_sum   'La4 Pr12 Mg1 Cd3 Ni4'
_cell_volume   700.18793727
_cell_formula_units_Z   1
loop_
 _symmetry_equiv_pos_site_id
 _symmetry_equiv_pos_as_xyz
  1  'x, y, z'
loop_
 _atom_site_type_symbol
 _atom_site_label
 _atom_site_symmetry_multiplicity
 _atom_site_fract_x
 _atom_site_fract_y
 _atom_site_fract_z
 _atom_site_occupancy
  La  La0  1  0.346972  0.346910  0.346869  1
  La  La1  1  0.347150  0.347116  0.957905  1
  La  La2  1  0.347179  0.957858  0.347107  1
  La  La3  1  0.957955  0.347095  0.347060  1
  Pr  Pr4  1  0.811480  0.190679  0.190653  1
  Pr  Pr5  1  0.188513  0.810551  0.810564  1
  Pr  Pr6  1  0.190588  0.811538  0.190673  1
  Pr  Pr7  1  0.810556  0.188556  0.810587  1
  Pr  Pr8  1  0.190611  0.190659  0.811580  1
  Pr  Pr9  1  0.810577  0.810568  0.188595  1
  Pr  Pr10  1  0.938924  0.563571  0.563544  1
  Pr  Pr11  1  0.560645  0.937039  0.937019  1
  Pr  Pr12  1  0.563568  0.938926  0.563630  1
  Pr  Pr13  1  0.936986  0.560701  0.936993  1
  Pr  Pr14  1  0.563558  0.563635  0.938937  1
  Pr  Pr15  1  0.936959  0.937005  0.560691  1
  Mg  Mg16  1  0.575143  0.575193  0.575245  1
  Cd  Cd17  1  0.581164  0.581167  0.258134  1
  Cd  Cd18  1  0.581168  0.258128  0.581161  1
  Cd  Cd19  1  0.258067  0.581204  0.581191  1
  Ni  Ni20  1  0.143188  0.143099  0.143164  1
  Ni  Ni21  1  0.143392  0.143289  0.572192  1
  Ni  Ni22  1  0.143384  0.572231  0.143258  1
  Ni  Ni23  1  0.572275  0.143279  0.143243  1
