# generated using pymatgen
data_Yb7PrZn2CdSi12Pd
_symmetry_space_group_name_H-M   'P 1'
_cell_length_a   8.29488700
_cell_length_b   8.29488873
_cell_length_c   8.40047700
_cell_angle_alpha   90.00000000
_cell_angle_beta   90.00000000
_cell_angle_gamma   120.00000505
_symmetry_Int_Tables_number   1
_chemical_formula_structural   Yb7PrZn2CdSi12Pd
_chemical_formula_sum   'Yb7 Pr1 Zn2 Cd1 Si12 Pd1'
_cell_volume   500.55937030
_cell_formula_units_Z   1
loop_
 _symmetry_equiv_pos_site_id
 _symmetry_equiv_pos_as_xyz
  1  'x, y, z'
loop_
 _atom_site_type_symbol
 _atom_site_label
 _atom_site_symmetry_multiplicity
 _atom_site_fract_x
 _atom_site_fract_y
 _atom_site_fract_z
 _atom_site_occupancy
  Yb  Yb0  1  0.500094  0.499906  0.743100  1
  Yb  Yb1  1  0.500284  0.499716  0.257503  1
  Yb  Yb2  1  0.999812  0.499906  0.743100  1
  Yb  Yb3  1  0.999433  0.499716  0.257503  1
  Yb  Yb4  1  0.500094  0.000188  0.743100  1
  Yb  Yb5  1  0.500284  0.000567  0.257503  1
  Yb  Yb6  1  0.000000  0.000000  0.746865  1
  Pr  Pr7  1  0.000000  0.000000  0.252137  1
  Zn  Zn8  1  0.333333  0.666667  0.002701  1
  Zn  Zn9  1  0.333333  0.666667  0.497380  1
  Cd  Cd10  1  0.666667  0.333333  0.003371  1
  Si  Si11  1  0.841134  0.158866  0.994787  1
  Si  Si12  1  0.166077  0.833923  0.996577  1
  Si  Si13  1  0.317732  0.158866  0.994787  1
  Si  Si14  1  0.161977  0.838023  0.504241  1
  Si  Si15  1  0.667844  0.833923  0.996577  1
  Si  Si16  1  0.833348  0.166652  0.502649  1
  Si  Si17  1  0.841134  0.682268  0.994787  1
  Si  Si18  1  0.676046  0.838023  0.504241  1
  Si  Si19  1  0.166077  0.332156  0.996577  1
  Si  Si20  1  0.333304  0.166652  0.502649  1
  Si  Si21  1  0.161977  0.323954  0.504241  1
  Si  Si22  1  0.833348  0.666696  0.502649  1
  Pd  Pd23  1  0.666667  0.333333  0.500977  1
