# generated using pymatgen
data_Ho3ThAl6(Ga2Ir)6
_symmetry_space_group_name_H-M   'P 1'
_cell_length_a   7.58493632
_cell_length_b   7.59754697
_cell_length_c   9.50227198
_cell_angle_alpha   90.14814989
_cell_angle_beta   89.93656995
_cell_angle_gamma   119.67797770
_symmetry_Int_Tables_number   1
_chemical_formula_structural   Ho3ThAl6(Ga2Ir)6
_chemical_formula_sum   'Ho3 Th1 Al6 Ga12 Ir6'
_cell_volume   475.75359835
_cell_formula_units_Z   1
loop_
 _symmetry_equiv_pos_site_id
 _symmetry_equiv_pos_as_xyz
  1  'x, y, z'
loop_
 _atom_site_type_symbol
 _atom_site_label
 _atom_site_symmetry_multiplicity
 _atom_site_fract_x
 _atom_site_fract_y
 _atom_site_fract_z
 _atom_site_occupancy
  Ho  Ho0  1  0.999448  0.331777  0.748629  1
  Ho  Ho1  1  0.674120  0.999631  0.254707  1
  Ho  Ho2  1  0.327055  0.998772  0.744843  1
  Th  Th3  1  0.998256  0.668541  0.251919  1
  Al  Al4  1  0.663644  0.998786  0.926416  1
  Al  Al5  1  0.340763  0.006322  0.070104  1
  Al  Al6  1  0.330951  0.331036  0.557489  1
  Al  Al7  1  0.663350  0.667321  0.452759  1
  Al  Al8  1  0.663872  0.666612  0.049604  1
  Al  Al9  1  0.330425  0.330860  0.940359  1
  Ga  Ga10  1  0.131788  0.131555  0.249640  1
  Ga  Ga11  1  0.872301  0.878251  0.750915  1
  Ga  Ga12  1  0.999400  0.328947  0.075421  1
  Ga  Ga13  1  0.001016  0.666263  0.914944  1
  Ga  Ga14  1  0.998432  0.664384  0.586542  1
  Ga  Ga15  1  0.341769  0.005529  0.420363  1
  Ga  Ga16  1  0.001887  0.329793  0.423250  1
  Ga  Ga17  1  0.664270  0.001355  0.582981  1
  Ga  Ga18  1  0.352530  0.552709  0.249799  1
  Ga  Ga19  1  0.651199  0.446264  0.750344  1
  Ga  Ga20  1  0.544200  0.341219  0.249194  1
  Ga  Ga21  1  0.449474  0.656052  0.750363  1
  Ir  Ir22  1  0.669356  0.327708  0.999359  1
  Ir  Ir23  1  0.330520  0.673699  0.001393  1
  Ir  Ir24  1  0.327622  0.668538  0.499933  1
  Ir  Ir25  1  0.672103  0.333395  0.498846  1
  Ir  Ir26  1  0.000136  0.997501  0.001021  1
  Ir  Ir27  1  0.000112  0.997178  0.498865  1
