# generated using pymatgen
data_DyErLu2CdPt
_symmetry_space_group_name_H-M   'P 1'
_cell_length_a   9.55663073
_cell_length_b   9.54291136
_cell_length_c   9.54291101
_cell_angle_alpha   60.09513912
_cell_angle_beta   59.95243291
_cell_angle_gamma   59.95244026
_symmetry_Int_Tables_number   1
_chemical_formula_structural   DyErLu2CdPt
_chemical_formula_sum   'Dy4 Er4 Lu8 Cd4 Pt4'
_cell_volume   615.38911973
_cell_formula_units_Z   4
loop_
 _symmetry_equiv_pos_site_id
 _symmetry_equiv_pos_as_xyz
  1  'x, y, z'
loop_
 _atom_site_type_symbol
 _atom_site_label
 _atom_site_symmetry_multiplicity
 _atom_site_fract_x
 _atom_site_fract_y
 _atom_site_fract_z
 _atom_site_occupancy
  Dy  Dy0  1  0.565304  0.934696  0.565304  1
  Dy  Dy1  1  0.934696  0.565303  0.934696  1
  Dy  Dy2  1  0.565304  0.565304  0.934696  1
  Dy  Dy3  1  0.934696  0.934696  0.565303  1
  Er  Er4  1  0.353403  0.352659  0.352659  1
  Er  Er5  1  0.352659  0.353403  0.941280  1
  Er  Er6  1  0.352659  0.941280  0.353403  1
  Er  Er7  1  0.941280  0.352659  0.352659  1
  Lu  Lu8  1  0.811759  0.188241  0.188241  1
  Lu  Lu9  1  0.188241  0.811759  0.811759  1
  Lu  Lu10  1  0.188119  0.811881  0.188119  1
  Lu  Lu11  1  0.811881  0.188119  0.811881  1
  Lu  Lu12  1  0.188119  0.188119  0.811881  1
  Lu  Lu13  1  0.811881  0.811881  0.188119  1
  Lu  Lu14  1  0.938498  0.561502  0.561502  1
  Lu  Lu15  1  0.561502  0.938498  0.938498  1
  Cd  Cd16  1  0.583316  0.581197  0.581197  1
  Cd  Cd17  1  0.581197  0.583316  0.254291  1
  Cd  Cd18  1  0.581197  0.254291  0.583316  1
  Cd  Cd19  1  0.254291  0.581197  0.581197  1
  Pt  Pt20  1  0.143772  0.141891  0.141891  1
  Pt  Pt21  1  0.141891  0.143772  0.572447  1
  Pt  Pt22  1  0.141891  0.572447  0.143772  1
  Pt  Pt23  1  0.572447  0.141891  0.141891  1
