# generated using pymatgen
data_Tb16TlCd(Ni2Ag)2
_symmetry_space_group_name_H-M   'P 1'
_cell_length_a   9.55126607
_cell_length_b   9.53810663
_cell_length_c   9.53810690
_cell_angle_alpha   60.08109862
_cell_angle_beta   59.91256580
_cell_angle_gamma   59.91255977
_symmetry_Int_Tables_number   1
_chemical_formula_structural   Tb16TlCd(Ni2Ag)2
_chemical_formula_sum   'Tb16 Tl1 Cd1 Ni4 Ag2'
_cell_volume   613.98793195
_cell_formula_units_Z   1
loop_
 _symmetry_equiv_pos_site_id
 _symmetry_equiv_pos_as_xyz
  1  'x, y, z'
loop_
 _atom_site_type_symbol
 _atom_site_label
 _atom_site_symmetry_multiplicity
 _atom_site_fract_x
 _atom_site_fract_y
 _atom_site_fract_z
 _atom_site_occupancy
  Tb  Tb0  1  0.348404  0.348482  0.348482  1
  Tb  Tb1  1  0.349842  0.351176  0.949136  1
  Tb  Tb2  1  0.349842  0.949136  0.351176  1
  Tb  Tb3  1  0.952397  0.349501  0.349501  1
  Tb  Tb4  1  0.809834  0.189753  0.189753  1
  Tb  Tb5  1  0.189564  0.810628  0.810628  1
  Tb  Tb6  1  0.188134  0.812530  0.188525  1
  Tb  Tb7  1  0.808971  0.190019  0.811079  1
  Tb  Tb8  1  0.188134  0.188525  0.812530  1
  Tb  Tb9  1  0.808971  0.811079  0.190019  1
  Tb  Tb10  1  0.938215  0.564651  0.564651  1
  Tb  Tb11  1  0.562452  0.937569  0.937569  1
  Tb  Tb12  1  0.563270  0.942666  0.563633  1
  Tb  Tb13  1  0.934009  0.563240  0.939725  1
  Tb  Tb14  1  0.563270  0.563633  0.942666  1
  Tb  Tb15  1  0.934009  0.939725  0.563240  1
  Tl  Tl16  1  0.584903  0.580562  0.580562  1
  Cd  Cd17  1  0.261443  0.576730  0.576730  1
  Ni  Ni18  1  0.144139  0.143084  0.143084  1
  Ni  Ni19  1  0.142314  0.142104  0.572553  1
  Ni  Ni20  1  0.142314  0.572553  0.142104  1
  Ni  Ni21  1  0.569535  0.143134  0.143134  1
  Ag  Ag22  1  0.583017  0.581234  0.248283  1
  Ag  Ag23  1  0.583017  0.248283  0.581234  1
