# generated using pymatgen
data_Yb3Ga24RePd8
_symmetry_space_group_name_H-M   'P 1'
_cell_length_a   8.48144192
_cell_length_b   8.50106988
_cell_length_c   8.48228058
_cell_angle_alpha   90.26667683
_cell_angle_beta   90.22598934
_cell_angle_gamma   90.33629910
_symmetry_Int_Tables_number   1
_chemical_formula_structural   Yb3Ga24RePd8
_chemical_formula_sum   'Yb3 Ga24 Re1 Pd8'
_cell_volume   611.56173211
_cell_formula_units_Z   1
loop_
 _symmetry_equiv_pos_site_id
 _symmetry_equiv_pos_as_xyz
  1  'x, y, z'
loop_
 _atom_site_type_symbol
 _atom_site_label
 _atom_site_symmetry_multiplicity
 _atom_site_fract_x
 _atom_site_fract_y
 _atom_site_fract_z
 _atom_site_occupancy
  Yb  Yb0  1  0.000000  0.500000  0.000000  1
  Yb  Yb1  1  0.500000  0.000000  0.000000  1
  Yb  Yb2  1  0.000000  0.000000  0.500000  1
  Ga  Ga3  1  0.990008  0.642831  0.642819  1
  Ga  Ga4  1  0.642893  0.642855  0.989979  1
  Ga  Ga5  1  0.642848  0.989955  0.642786  1
  Ga  Ga6  1  0.009992  0.357169  0.357181  1
  Ga  Ga7  1  0.357107  0.357145  0.010021  1
  Ga  Ga8  1  0.357152  0.010045  0.357214  1
  Ga  Ga9  1  0.736879  0.499932  0.263210  1
  Ga  Ga10  1  0.263121  0.500068  0.736790  1
  Ga  Ga11  1  0.500002  0.263031  0.736968  1
  Ga  Ga12  1  0.499998  0.736969  0.263032  1
  Ga  Ga13  1  0.263138  0.736787  0.500072  1
  Ga  Ga14  1  0.736862  0.263213  0.499928  1
  Ga  Ga15  1  0.840034  0.142156  0.840107  1
  Ga  Ga16  1  0.142321  0.840050  0.840082  1
  Ga  Ga17  1  0.840077  0.840112  0.142044  1
  Ga  Ga18  1  0.159966  0.857844  0.159893  1
  Ga  Ga19  1  0.857679  0.159950  0.159918  1
  Ga  Ga20  1  0.159923  0.159888  0.857956  1
  Ga  Ga21  1  0.729353  0.487921  0.729412  1
  Ga  Ga22  1  0.487812  0.729393  0.729431  1
  Ga  Ga23  1  0.729356  0.729379  0.487959  1
  Ga  Ga24  1  0.270647  0.512079  0.270588  1
  Ga  Ga25  1  0.512188  0.270607  0.270569  1
  Ga  Ga26  1  0.270644  0.270621  0.512041  1
  Re  Re27  1  0.500000  0.500000  0.500000  1
  Pd  Pd28  1  0.834119  0.834118  0.834157  1
  Pd  Pd29  1  0.165881  0.165882  0.165843  1
  Pd  Pd30  1  0.664087  0.335963  0.999924  1
  Pd  Pd31  1  0.999961  0.335754  0.664104  1
  Pd  Pd32  1  0.335846  0.000045  0.664011  1
  Pd  Pd33  1  0.335913  0.664037  0.000076  1
  Pd  Pd34  1  0.000039  0.664246  0.335896  1
  Pd  Pd35  1  0.664154  0.999955  0.335989  1
