# generated using pymatgen
data_Dy6CrB14Ru
_symmetry_space_group_name_H-M   'P 1'
_cell_length_a   8.06381017
_cell_length_b   8.06381000
_cell_length_c   9.32846200
_cell_angle_alpha   90.00000000
_cell_angle_beta   90.00000000
_cell_angle_gamma   155.07899416
_symmetry_Int_Tables_number   1
_chemical_formula_structural   Dy6CrB14Ru
_chemical_formula_sum   'Dy6 Cr1 B14 Ru1'
_cell_volume   255.59509568
_cell_formula_units_Z   1
loop_
 _symmetry_equiv_pos_site_id
 _symmetry_equiv_pos_as_xyz
  1  'x, y, z'
loop_
 _atom_site_type_symbol
 _atom_site_label
 _atom_site_symmetry_multiplicity
 _atom_site_fract_x
 _atom_site_fract_y
 _atom_site_fract_z
 _atom_site_occupancy
  Dy  Dy0  1  0.756386  0.243614  0.250000  1
  Dy  Dy1  1  0.241962  0.758038  0.750000  1
  Dy  Dy2  1  0.894543  0.105457  0.561695  1
  Dy  Dy3  1  0.105432  0.894568  0.440786  1
  Dy  Dy4  1  0.105432  0.894568  0.059214  1
  Dy  Dy5  1  0.894543  0.105457  0.938305  1
  Cr  Cr6  1  0.052856  0.947144  0.750000  1
  B  B7  1  0.541777  0.458223  0.250000  1
  B  B8  1  0.459044  0.540956  0.750000  1
  B  B9  1  0.521363  0.478637  0.903527  1
  B  B10  1  0.479140  0.520860  0.095750  1
  B  B11  1  0.479140  0.520860  0.404250  1
  B  B12  1  0.521363  0.478637  0.596473  1
  B  B13  1  0.631275  0.368725  0.848190  1
  B  B14  1  0.368507  0.631493  0.150487  1
  B  B15  1  0.727693  0.272307  0.966787  1
  B  B16  1  0.273207  0.726793  0.033859  1
  B  B17  1  0.273207  0.726793  0.466141  1
  B  B18  1  0.727693  0.272307  0.533213  1
  B  B19  1  0.631275  0.368725  0.651810  1
  B  B20  1  0.368507  0.631493  0.349513  1
  Ru  Ru21  1  0.945654  0.054346  0.250000  1
