# generated using pymatgen
data_Zr10ZnSn4GeBi2
_symmetry_space_group_name_H-M   'P 1'
_cell_length_a   8.77487477
_cell_length_b   8.77487342
_cell_length_c   5.92810149
_cell_angle_alpha   90.04304537
_cell_angle_beta   90.04304442
_cell_angle_gamma   120.06551448
_symmetry_Int_Tables_number   1
_chemical_formula_structural   Zr10ZnSn4GeBi2
_chemical_formula_sum   'Zr10 Zn1 Sn4 Ge1 Bi2'
_cell_volume   395.03945412
_cell_formula_units_Z   1
loop_
 _symmetry_equiv_pos_site_id
 _symmetry_equiv_pos_as_xyz
  1  'x, y, z'
loop_
 _atom_site_type_symbol
 _atom_site_label
 _atom_site_symmetry_multiplicity
 _atom_site_fract_x
 _atom_site_fract_y
 _atom_site_fract_z
 _atom_site_occupancy
  Zr  Zr0  1  0.666162  0.335283  0.996819  1
  Zr  Zr1  1  0.335283  0.666162  0.996819  1
  Zr  Zr2  1  0.335198  0.666128  0.502957  1
  Zr  Zr3  1  0.666128  0.335198  0.502957  1
  Zr  Zr4  1  0.733184  0.733184  0.749349  1
  Zr  Zr5  1  0.265922  0.000585  0.749448  1
  Zr  Zr6  1  0.000585  0.265922  0.749448  1
  Zr  Zr7  1  0.264865  0.264865  0.250619  1
  Zr  Zr8  1  0.736002  0.995283  0.251074  1
  Zr  Zr9  1  0.995283  0.736002  0.251074  1
  Zn  Zn10  1  0.999794  0.999794  0.995513  1
  Sn  Sn11  1  0.388879  0.388879  0.752522  1
  Sn  Sn12  1  0.613075  0.000380  0.752323  1
  Sn  Sn13  1  0.000380  0.613075  0.752323  1
  Sn  Sn14  1  0.608952  0.608952  0.247698  1
  Ge  Ge15  1  0.000342  0.000342  0.503909  1
  Bi  Bi16  1  0.390417  0.999548  0.247574  1
  Bi  Bi17  1  0.999548  0.390417  0.247574  1
