# generated using pymatgen
data_Ca10Cu3Hg2Ru
_symmetry_space_group_name_H-M   'P 1'
_cell_length_a   9.19766052
_cell_length_b   9.19765983
_cell_length_c   9.26763381
_cell_angle_alpha   129.91925518
_cell_angle_beta   129.91925249
_cell_angle_gamma   72.95164991
_symmetry_Int_Tables_number   1
_chemical_formula_structural   Ca10Cu3Hg2Ru
_chemical_formula_sum   'Ca10 Cu3 Hg2 Ru1'
_cell_volume   451.69296052
_cell_formula_units_Z   1
loop_
 _symmetry_equiv_pos_site_id
 _symmetry_equiv_pos_as_xyz
  1  'x, y, z'
loop_
 _atom_site_type_symbol
 _atom_site_label
 _atom_site_symmetry_multiplicity
 _atom_site_fract_x
 _atom_site_fract_y
 _atom_site_fract_z
 _atom_site_occupancy
  Ca  Ca0  1  0.533224  0.023128  0.830957  1
  Ca  Ca1  1  0.202267  0.692170  0.169043  1
  Ca  Ca2  1  0.031964  0.190763  0.500000  1
  Ca  Ca3  1  0.683977  0.545867  0.500000  1
  Ca  Ca4  1  0.476872  0.966776  0.169043  1
  Ca  Ca5  1  0.807830  0.297733  0.830957  1
  Ca  Ca6  1  0.954133  0.816023  0.500000  1
  Ca  Ca7  1  0.309237  0.468036  0.500000  1
  Ca  Ca8  1  0.501912  0.505817  0.007730  1
  Ca  Ca9  1  0.994183  0.998088  0.992270  1
  Cu  Cu10  1  0.382008  0.117992  0.500000  1
  Cu  Cu11  1  0.112165  0.612456  0.724622  1
  Cu  Cu12  1  0.887544  0.387835  0.275378  1
  Hg  Hg13  1  0.254633  0.245367  0.000000  1
  Hg  Hg14  1  0.754633  0.745367  0.000000  1
  Ru  Ru15  1  0.613420  0.886580  0.500000  1
