# generated using pymatgen
data_Dy3Al3SiAu2
_symmetry_space_group_name_H-M   'P 1'
_cell_length_a   7.02549700
_cell_length_b   7.02549772
_cell_length_c   4.31326600
_cell_angle_alpha   90.00000000
_cell_angle_beta   90.00000000
_cell_angle_gamma   119.99999189
_symmetry_Int_Tables_number   1
_chemical_formula_structural   Dy3Al3SiAu2
_chemical_formula_sum   'Dy3 Al3 Si1 Au2'
_cell_volume   184.37034113
_cell_formula_units_Z   1
loop_
 _symmetry_equiv_pos_site_id
 _symmetry_equiv_pos_as_xyz
  1  'x, y, z'
loop_
 _atom_site_type_symbol
 _atom_site_label
 _atom_site_symmetry_multiplicity
 _atom_site_fract_x
 _atom_site_fract_y
 _atom_site_fract_z
 _atom_site_occupancy
  Dy  Dy0  1  0.423918  0.420629  0.500000  1
  Dy  Dy1  1  0.579371  0.003290  0.500000  1
  Dy  Dy2  1  0.996710  0.576082  0.500000  1
  Al  Al3  1  0.751646  0.759608  0.000000  1
  Al  Al4  1  0.240392  0.992038  0.000000  1
  Al  Al5  1  0.007962  0.248354  0.000000  1
  Si  Si6  1  0.666667  0.333333  0.000000  1
  Au  Au7  1  0.333333  0.666667  0.000000  1
  Au  Au8  1  0.000000  0.000000  0.500000  1
