# generated using pymatgen
data_Sc2MoH6
_symmetry_space_group_name_H-M   'P 1'
_cell_length_a   4.79753955
_cell_length_b   4.79753932
_cell_length_c   4.79753900
_cell_angle_alpha   59.99999532
_cell_angle_beta   59.99999692
_cell_angle_gamma   59.99998838
_symmetry_Int_Tables_number   1
_chemical_formula_structural   Sc2MoH6
_chemical_formula_sum   'Sc2 Mo1 H6'
_cell_volume   78.08013568
_cell_formula_units_Z   1
loop_
 _symmetry_equiv_pos_site_id
 _symmetry_equiv_pos_as_xyz
  1  'x, y, z'
loop_
 _atom_site_type_symbol
 _atom_site_label
 _atom_site_symmetry_multiplicity
 _atom_site_fract_x
 _atom_site_fract_y
 _atom_site_fract_z
 _atom_site_occupancy
  Sc  Sc0  1  0.250001  0.250001  0.250001  1
  Sc  Sc1  1  0.750000  0.750000  0.750000  1
  Mo  Mo2  1  0.000000  0.000000  0.000000  1
  H  H3  1  0.268217  0.731783  0.268217  1
  H  H4  1  0.731783  0.268217  0.268217  1
  H  H5  1  0.731783  0.731783  0.268217  1
  H  H6  1  0.268217  0.268217  0.731783  1
  H  H7  1  0.731783  0.268217  0.731783  1
  H  H8  1  0.268217  0.731783  0.731783  1
