# generated using pymatgen
data_HoLu3Ga17SiIr6
_symmetry_space_group_name_H-M   'P 1'
_cell_length_a   7.55948893
_cell_length_b   7.53934569
_cell_length_c   9.44143903
_cell_angle_alpha   90.07974337
_cell_angle_beta   89.76914828
_cell_angle_gamma   119.87753787
_symmetry_Int_Tables_number   1
_chemical_formula_structural   HoLu3Ga17SiIr6
_chemical_formula_sum   'Ho1 Lu3 Ga17 Si1 Ir6'
_cell_volume   466.57974786
_cell_formula_units_Z   1
loop_
 _symmetry_equiv_pos_site_id
 _symmetry_equiv_pos_as_xyz
  1  'x, y, z'
loop_
 _atom_site_type_symbol
 _atom_site_label
 _atom_site_symmetry_multiplicity
 _atom_site_fract_x
 _atom_site_fract_y
 _atom_site_fract_z
 _atom_site_occupancy
  Ho  Ho0  1  0.329047  0.001760  0.749128  1
  Lu  Lu1  1  0.997522  0.664121  0.247907  1
  Lu  Lu2  1  0.001988  0.330317  0.751661  1
  Lu  Lu3  1  0.676430  0.004656  0.248039  1
  Ga  Ga4  1  0.130080  0.128872  0.250776  1
  Ga  Ga5  1  0.871765  0.874312  0.750851  1
  Ga  Ga6  1  0.998558  0.670384  0.917023  1
  Ga  Ga7  1  0.000113  0.664809  0.580683  1
  Ga  Ga8  1  0.334153  0.996949  0.417819  1
  Ga  Ga9  1  0.999869  0.335047  0.419932  1
  Ga  Ga10  1  0.665427  0.000682  0.580750  1
  Ga  Ga11  1  0.657879  0.994966  0.917131  1
  Ga  Ga12  1  0.333597  0.996897  0.082482  1
  Ga  Ga13  1  0.331877  0.331377  0.565389  1
  Ga  Ga14  1  0.669949  0.670378  0.433157  1
  Ga  Ga15  1  0.668893  0.670639  0.069619  1
  Ga  Ga16  1  0.337827  0.332255  0.933094  1
  Ga  Ga17  1  0.342088  0.548381  0.251663  1
  Ga  Ga18  1  0.661326  0.451271  0.751189  1
  Ga  Ga19  1  0.548177  0.339635  0.250793  1
  Ga  Ga20  1  0.450533  0.657830  0.750608  1
  Si  Si21  1  0.999250  0.334611  0.073046  1
  Ir  Ir22  1  0.684230  0.329418  0.003855  1
  Ir  Ir23  1  0.312302  0.656461  0.001727  1
  Ir  Ir24  1  0.327895  0.671239  0.500633  1
  Ir  Ir25  1  0.672054  0.328198  0.499865  1
  Ir  Ir26  1  0.997637  0.014420  0.001500  1
  Ir  Ir27  1  0.999540  0.000113  0.499679  1
