# generated using pymatgen
data_Sc3CSe
_symmetry_space_group_name_H-M   'P 1'
_cell_length_a   5.89537939
_cell_length_b   5.89537855
_cell_length_c   8.75007100
_cell_angle_alpha   90.00000000
_cell_angle_beta   90.00000000
_cell_angle_gamma   145.24129923
_symmetry_Int_Tables_number   1
_chemical_formula_structural   Sc3CSe
_chemical_formula_sum   'Sc6 C2 Se2'
_cell_volume   173.38138722
_cell_formula_units_Z   2
loop_
 _symmetry_equiv_pos_site_id
 _symmetry_equiv_pos_as_xyz
  1  'x, y, z'
loop_
 _atom_site_type_symbol
 _atom_site_label
 _atom_site_symmetry_multiplicity
 _atom_site_fract_x
 _atom_site_fract_y
 _atom_site_fract_z
 _atom_site_occupancy
  Sc  Sc0  1  0.374774  0.625229  0.049459  1
  Sc  Sc1  1  0.056739  0.943263  0.250000  1
  Sc  Sc2  1  0.374774  0.625229  0.450541  1
  Sc  Sc3  1  0.625229  0.374774  0.549459  1
  Sc  Sc4  1  0.943263  0.056739  0.750001  1
  Sc  Sc5  1  0.625229  0.374774  0.950541  1
  C  C6  1  0.000000  0.000000  0.000000  1
  C  C7  1  0.000000  0.000000  0.500000  1
  Se  Se8  1  0.747661  0.252342  0.250000  1
  Se  Se9  1  0.252342  0.747661  0.750001  1
