# generated using pymatgen
data_Tb4Ru7W
_symmetry_space_group_name_H-M   'P 1'
_cell_length_a   5.21267928
_cell_length_b   5.21267822
_cell_length_c   9.07053600
_cell_angle_alpha   90.00000000
_cell_angle_beta   90.00000000
_cell_angle_gamma   116.22899843
_symmetry_Int_Tables_number   1
_chemical_formula_structural   Tb4Ru7W
_chemical_formula_sum   'Tb4 Ru7 W1'
_cell_volume   221.08748809
_cell_formula_units_Z   1
loop_
 _symmetry_equiv_pos_site_id
 _symmetry_equiv_pos_as_xyz
  1  'x, y, z'
loop_
 _atom_site_type_symbol
 _atom_site_label
 _atom_site_symmetry_multiplicity
 _atom_site_fract_x
 _atom_site_fract_y
 _atom_site_fract_z
 _atom_site_occupancy
  Tb  Tb0  1  0.327236  0.672764  0.437266  1
  Tb  Tb1  1  0.664537  0.335463  0.568547  1
  Tb  Tb2  1  0.664537  0.335463  0.931453  1
  Tb  Tb3  1  0.327236  0.672764  0.062734  1
  Ru  Ru4  1  0.989628  0.010372  0.501508  1
  Ru  Ru5  1  0.989628  0.010372  0.998492  1
  Ru  Ru6  1  0.828698  0.646886  0.250000  1
  Ru  Ru7  1  0.353114  0.171302  0.250000  1
  Ru  Ru8  1  0.176728  0.823272  0.750000  1
  Ru  Ru9  1  0.167866  0.332375  0.750000  1
  Ru  Ru10  1  0.667625  0.832134  0.750000  1
  W  W11  1  0.843166  0.156834  0.250000  1
