# generated using pymatgen
data_Tm14Lu6BiSb11
_symmetry_space_group_name_H-M   'P 1'
_cell_length_a   8.00067507
_cell_length_b   9.21982530
_cell_length_c   11.68697555
_cell_angle_alpha   90.04695028
_cell_angle_beta   89.91969854
_cell_angle_gamma   90.00599079
_symmetry_Int_Tables_number   1
_chemical_formula_structural   Tm14Lu6BiSb11
_chemical_formula_sum   'Tm14 Lu6 Bi1 Sb11'
_cell_volume   862.08658143
_cell_formula_units_Z   1
loop_
 _symmetry_equiv_pos_site_id
 _symmetry_equiv_pos_as_xyz
  1  'x, y, z'
loop_
 _atom_site_type_symbol
 _atom_site_label
 _atom_site_symmetry_multiplicity
 _atom_site_fract_x
 _atom_site_fract_y
 _atom_site_fract_z
 _atom_site_occupancy
  Tm  Tm0  1  0.528196  0.247956  0.989999  1
  Tm  Tm1  1  0.354859  0.249947  0.284679  1
  Tm  Tm2  1  0.647421  0.753089  0.714511  1
  Tm  Tm3  1  0.142736  0.752455  0.784068  1
  Tm  Tm4  1  0.855516  0.249922  0.215457  1
  Tm  Tm5  1  0.184362  0.246948  0.781037  1
  Tm  Tm6  1  0.813168  0.750175  0.218468  1
  Tm  Tm7  1  0.313418  0.750274  0.281757  1
  Tm  Tm8  1  0.688389  0.248162  0.717673  1
  Tm  Tm9  1  0.809292  0.563404  0.940788  1
  Tm  Tm10  1  0.693574  0.062544  0.439925  1
  Tm  Tm11  1  0.191449  0.436861  0.061407  1
  Tm  Tm12  1  0.692829  0.437091  0.440154  1
  Tm  Tm13  1  0.305902  0.563098  0.558001  1
  Lu  Lu14  1  0.027525  0.250079  0.510868  1
  Lu  Lu15  1  0.972634  0.750183  0.489018  1
  Lu  Lu16  1  0.473252  0.752164  0.012476  1
  Lu  Lu17  1  0.192782  0.063246  0.060227  1
  Lu  Lu18  1  0.807244  0.936476  0.940084  1
  Lu  Lu19  1  0.306821  0.936513  0.559985  1
  Bi  Bi20  1  0.432653  0.504081  0.825507  1
  Sb  Sb21  1  0.407621  0.248911  0.542064  1
  Sb  Sb22  1  0.591820  0.750227  0.458257  1
  Sb  Sb23  1  0.092779  0.751341  0.041831  1
  Sb  Sb24  1  0.908208  0.248608  0.958235  1
  Sb  Sb25  1  0.066236  0.003957  0.326992  1
  Sb  Sb26  1  0.933794  0.996179  0.672804  1
  Sb  Sb27  1  0.433304  0.995570  0.826711  1
  Sb  Sb28  1  0.933754  0.504145  0.673066  1
  Sb  Sb29  1  0.565983  0.003710  0.173712  1
  Sb  Sb30  1  0.066292  0.496198  0.327083  1
  Sb  Sb31  1  0.566188  0.496484  0.173155  1
