# generated using pymatgen
data_Ca2Ge2Ru2C
_symmetry_space_group_name_H-M   'P 1'
_cell_length_a   5.93359984
_cell_length_b   5.93360014
_cell_length_c   7.18937774
_cell_angle_alpha   126.14113363
_cell_angle_beta   126.14113226
_cell_angle_gamma   41.21880736
_symmetry_Int_Tables_number   1
_chemical_formula_structural   Ca2Ge2Ru2C
_chemical_formula_sum   'Ca2 Ge2 Ru2 C1'
_cell_volume   129.51494214
_cell_formula_units_Z   1
loop_
 _symmetry_equiv_pos_site_id
 _symmetry_equiv_pos_as_xyz
  1  'x, y, z'
loop_
 _atom_site_type_symbol
 _atom_site_label
 _atom_site_symmetry_multiplicity
 _atom_site_fract_x
 _atom_site_fract_y
 _atom_site_fract_z
 _atom_site_occupancy
  Ca  Ca0  1  0.562790  0.562790  0.293288  1
  Ca  Ca1  1  0.437210  0.437210  0.706713  1
  Ge  Ge2  1  0.840625  0.840625  0.292393  1
  Ge  Ge3  1  0.159375  0.159375  0.707608  1
  Ru  Ru4  1  0.197626  0.197626  0.088543  1
  Ru  Ru5  1  0.802374  0.802374  0.911458  1
  C  C6  1  0.000000  0.000000  0.000000  1
