# generated using pymatgen
data_HfScSi(PRu2)6
_symmetry_space_group_name_H-M   'P 1'
_cell_length_a   9.36645800
_cell_length_b   9.36645787
_cell_length_c   3.91718700
_cell_angle_alpha   90.00000000
_cell_angle_beta   90.00000000
_cell_angle_gamma   119.99999339
_symmetry_Int_Tables_number   1
_chemical_formula_structural   HfScSi(PRu2)6
_chemical_formula_sum   'Hf1 Sc1 Si1 P6 Ru12'
_cell_volume   297.61563259
_cell_formula_units_Z   1
loop_
 _symmetry_equiv_pos_site_id
 _symmetry_equiv_pos_as_xyz
  1  'x, y, z'
loop_
 _atom_site_type_symbol
 _atom_site_label
 _atom_site_symmetry_multiplicity
 _atom_site_fract_x
 _atom_site_fract_y
 _atom_site_fract_z
 _atom_site_occupancy
  Hf  Hf0  1  0.666667  0.333333  0.500000  1
  Sc  Sc1  1  0.333333  0.666667  0.000000  1
  Si  Si2  1  0.000000  0.000000  0.000000  1
  P  P3  1  0.598678  0.721204  0.500000  1
  P  P4  1  0.278796  0.877476  0.500000  1
  P  P5  1  0.122524  0.401322  0.500000  1
  P  P6  1  0.885535  0.573935  0.000000  1
  P  P7  1  0.426065  0.311601  0.000000  1
  P  P8  1  0.688399  0.114465  0.000000  1
  Ru  Ru9  1  0.552507  0.950572  0.500000  1
  Ru  Ru10  1  0.398065  0.447493  0.500000  1
  Ru  Ru11  1  0.911727  0.121637  0.500000  1
  Ru  Ru12  1  0.209910  0.088273  0.500000  1
  Ru  Ru13  1  0.878363  0.790090  0.500000  1
  Ru  Ru14  1  0.718135  0.884931  0.000000  1
  Ru  Ru15  1  0.115069  0.833202  0.000000  1
  Ru  Ru16  1  0.166798  0.281865  0.000000  1
  Ru  Ru17  1  0.429347  0.074085  0.000000  1
  Ru  Ru18  1  0.925915  0.355263  0.000000  1
  Ru  Ru19  1  0.644737  0.570653  0.000000  1
  Ru  Ru20  1  0.049428  0.601935  0.500000  1
