# generated using pymatgen
data_Nd4Er4Tc3B24Ru
_symmetry_space_group_name_H-M   'P 1'
_cell_length_a   3.72049600
_cell_length_b   9.21043852
_cell_length_c   11.66404511
_cell_angle_alpha   89.93459447
_cell_angle_beta   90.00000000
_cell_angle_gamma   90.00000000
_symmetry_Int_Tables_number   1
_chemical_formula_structural   Nd4Er4Tc3B24Ru
_chemical_formula_sum   'Nd4 Er4 Tc3 B24 Ru1'
_cell_volume   399.69623524
_cell_formula_units_Z   1
loop_
 _symmetry_equiv_pos_site_id
 _symmetry_equiv_pos_as_xyz
  1  'x, y, z'
loop_
 _atom_site_type_symbol
 _atom_site_label
 _atom_site_symmetry_multiplicity
 _atom_site_fract_x
 _atom_site_fract_y
 _atom_site_fract_z
 _atom_site_occupancy
  Nd  Nd0  1  0.000000  0.322903  0.414152  1
  Nd  Nd1  1  0.000000  0.675788  0.584206  1
  Nd  Nd2  1  0.000000  0.822847  0.086809  1
  Nd  Nd3  1  0.000000  0.178008  0.914993  1
  Er  Er4  1  0.000000  0.942659  0.369322  1
  Er  Er5  1  0.000000  0.057938  0.631333  1
  Er  Er6  1  0.000000  0.443056  0.130955  1
  Er  Er7  1  0.000000  0.557594  0.868457  1
  Tc  Tc8  1  0.000000  0.639720  0.318832  1
  Tc  Tc9  1  0.000000  0.360392  0.681647  1
  Tc  Tc10  1  0.000000  0.139029  0.180300  1
  B  B11  1  0.500000  0.554927  0.430311  1
  B  B12  1  0.500000  0.444775  0.569290  1
  B  B13  1  0.500000  0.055114  0.069491  1
  B  B14  1  0.500000  0.944300  0.930297  1
  B  B15  1  0.500000  0.749930  0.416108  1
  B  B16  1  0.500000  0.249470  0.584072  1
  B  B17  1  0.500000  0.250648  0.083865  1
  B  B18  1  0.500000  0.750230  0.915745  1
  B  B19  1  0.500000  0.791398  0.266131  1
  B  B20  1  0.500000  0.208909  0.734465  1
  B  B21  1  0.500000  0.291272  0.233949  1
  B  B22  1  0.500000  0.709565  0.765800  1
  B  B23  1  0.500000  0.629716  0.185990  1
  B  B24  1  0.500000  0.370415  0.814471  1
  B  B25  1  0.500000  0.129303  0.313666  1
  B  B26  1  0.500000  0.870236  0.686249  1
  B  B27  1  0.500000  0.983540  0.213240  1
  B  B28  1  0.500000  0.015076  0.787111  1
  B  B29  1  0.500000  0.483959  0.286463  1
  B  B30  1  0.500000  0.515925  0.713055  1
  B  B31  1  0.500000  0.597524  0.026509  1
  B  B32  1  0.500000  0.403828  0.973133  1
  B  B33  1  0.500000  0.096761  0.473721  1
  B  B34  1  0.500000  0.903015  0.527105  1
  Ru  Ru35  1  0.000000  0.860228  0.818756  1
