# generated using pymatgen
data_RbFe2(Sb6Os)2
_symmetry_space_group_name_H-M   'P 1'
_cell_length_a   8.14557684
_cell_length_b   8.11018723
_cell_length_c   8.14557806
_cell_angle_alpha   109.52125910
_cell_angle_beta   109.48169995
_cell_angle_gamma   109.58750572
_symmetry_Int_Tables_number   1
_chemical_formula_structural   RbFe2(Sb6Os)2
_chemical_formula_sum   'Rb1 Fe2 Sb12 Os2'
_cell_volume   413.33407116
_cell_formula_units_Z   1
loop_
 _symmetry_equiv_pos_site_id
 _symmetry_equiv_pos_as_xyz
  1  'x, y, z'
loop_
 _atom_site_type_symbol
 _atom_site_label
 _atom_site_symmetry_multiplicity
 _atom_site_fract_x
 _atom_site_fract_y
 _atom_site_fract_z
 _atom_site_occupancy
  Rb  Rb0  1  0.000000  0.000000  0.000000  1
  Fe  Fe1  1  0.000000  0.000000  0.500000  1
  Fe  Fe2  1  0.500000  0.000000  0.000000  1
  Sb  Sb3  1  0.339186  0.178174  0.838987  1
  Sb  Sb4  1  0.660814  0.821826  0.161013  1
  Sb  Sb5  1  0.658014  0.499789  0.841776  1
  Sb  Sb6  1  0.341986  0.500211  0.158224  1
  Sb  Sb7  1  0.180442  0.844149  0.344437  1
  Sb  Sb8  1  0.819558  0.155851  0.655563  1
  Sb  Sb9  1  0.499711  0.844149  0.663707  1
  Sb  Sb10  1  0.500289  0.155851  0.336293  1
  Sb  Sb11  1  0.836179  0.336375  0.179988  1
  Sb  Sb12  1  0.163821  0.663625  0.820012  1
  Sb  Sb13  1  0.843612  0.663625  0.499803  1
  Sb  Sb14  1  0.156388  0.336375  0.500197  1
  Os  Os15  1  0.000000  0.500000  0.000000  1
  Os  Os16  1  0.500000  0.500000  0.500000  1
