# generated using pymatgen
data_Ti8Al10Si5Os4Rh3
_symmetry_space_group_name_H-M   'P 1'
_cell_length_a   8.57391840
_cell_length_b   8.58212564
_cell_length_c   8.58240803
_cell_angle_alpha   120.30122029
_cell_angle_beta   119.63477447
_cell_angle_gamma   90.01482096
_symmetry_Int_Tables_number   1
_chemical_formula_structural   Ti8Al10Si5Os4Rh3
_chemical_formula_sum   'Ti8 Al10 Si5 Os4 Rh3'
_cell_volume   446.90715774
_cell_formula_units_Z   1
loop_
 _symmetry_equiv_pos_site_id
 _symmetry_equiv_pos_as_xyz
  1  'x, y, z'
loop_
 _atom_site_type_symbol
 _atom_site_label
 _atom_site_symmetry_multiplicity
 _atom_site_fract_x
 _atom_site_fract_y
 _atom_site_fract_z
 _atom_site_occupancy
  Ti  Ti0  1  0.795773  0.296777  0.091542  1
  Ti  Ti1  1  0.209046  0.300352  0.501644  1
  Ti  Ti2  1  0.204356  0.703337  0.505141  1
  Ti  Ti3  1  0.211511  0.709564  0.909318  1
  Ti  Ti4  1  0.799441  0.708664  0.498904  1
  Ti  Ti5  1  0.789236  0.289967  0.492776  1
  Ti  Ti6  1  0.374855  0.124304  0.748899  1
  Ti  Ti7  1  0.378489  0.626954  0.252691  1
  Al  Al8  1  0.842997  0.657856  0.816323  1
  Al  Al9  1  0.841971  0.022040  0.181664  1
  Al  Al10  1  0.840827  0.658557  0.179332  1
  Al  Al11  1  0.483776  0.660690  0.822443  1
  Al  Al12  1  0.378070  0.120804  0.258222  1
  Al  Al13  1  0.862032  0.122078  0.742423  1
  Al  Al14  1  0.621289  0.878618  0.258491  1
  Al  Al15  1  0.618603  0.360841  0.739434  1
  Al  Al16  1  0.616963  0.877368  0.738950  1
  Al  Al17  1  0.139322  0.880261  0.262527  1
  Si  Si18  1  0.998050  0.498420  0.500380  1
  Si  Si19  1  0.151723  0.347679  0.194820  1
  Si  Si20  1  0.153645  0.961382  0.808400  1
  Si  Si21  1  0.149601  0.349456  0.800831  1
  Si  Si22  1  0.543560  0.347755  0.195919  1
  Os  Os23  1  0.005703  0.006298  0.513903  1
  Os  Os24  1  0.493786  0.006409  0.000298  1
  Os  Os25  1  0.493695  0.493337  0.999973  1
  Os  Os26  1  0.493138  0.493022  0.486474  1
  Rh  Rh27  1  0.005579  0.493887  0.999528  1
  Rh  Rh28  1  0.005631  0.006506  0.999370  1
  Rh  Rh29  1  0.497328  0.996815  0.499380  1
