# generated using pymatgen
data_ErTm3V4(WO6)4
_symmetry_space_group_name_H-M   'P 1'
_cell_length_a   5.18483203
_cell_length_b   7.39934617
_cell_length_c   11.16187730
_cell_angle_alpha   90.02373353
_cell_angle_beta   90.01158136
_cell_angle_gamma   89.99411685
_symmetry_Int_Tables_number   1
_chemical_formula_structural   ErTm3V4(WO6)4
_chemical_formula_sum   'Er1 Tm3 V4 W4 O24'
_cell_volume   428.21830971
_cell_formula_units_Z   1
loop_
 _symmetry_equiv_pos_site_id
 _symmetry_equiv_pos_as_xyz
  1  'x, y, z'
loop_
 _atom_site_type_symbol
 _atom_site_label
 _atom_site_symmetry_multiplicity
 _atom_site_fract_x
 _atom_site_fract_y
 _atom_site_fract_z
 _atom_site_occupancy
  Er  Er0  1  0.543637  0.253808  0.045331  1
  Tm  Tm1  1  0.044427  0.753668  0.454562  1
  Tm  Tm2  1  0.955698  0.253647  0.545454  1
  Tm  Tm3  1  0.455472  0.753698  0.954496  1
  V  V4  1  0.050631  0.507150  0.133945  1
  V  V5  1  0.550790  0.006807  0.366247  1
  V  V6  1  0.449122  0.506931  0.633862  1
  V  V7  1  0.949143  0.006642  0.865971  1
  W  W8  1  0.056494  0.997816  0.143786  1
  W  W9  1  0.556857  0.498248  0.356526  1
  W  W10  1  0.443228  0.998232  0.643640  1
  W  W11  1  0.943183  0.498505  0.856110  1
  O  O12  1  0.753476  0.546756  0.019929  1
  O  O13  1  0.762320  0.955559  0.029900  1
  O  O14  1  0.186523  0.754833  0.114339  1
  O  O15  1  0.930681  0.246355  0.143307  1
  O  O16  1  0.377730  0.073382  0.205793  1
  O  O17  1  0.395072  0.434332  0.212900  1
  O  O18  1  0.895426  0.933713  0.287549  1
  O  O19  1  0.878019  0.574122  0.294682  1
  O  O20  1  0.428775  0.746336  0.357058  1
  O  O21  1  0.686225  0.254973  0.385724  1
  O  O22  1  0.262181  0.456039  0.470202  1
  O  O23  1  0.253103  0.046073  0.480035  1
  O  O24  1  0.746903  0.546117  0.520115  1
  O  O25  1  0.737766  0.956007  0.529838  1
  O  O26  1  0.313817  0.754970  0.614258  1
  O  O27  1  0.571261  0.246291  0.643058  1
  O  O28  1  0.121995  0.074125  0.705314  1
  O  O29  1  0.104613  0.433981  0.712359  1
  O  O30  1  0.604308  0.933847  0.787458  1
  O  O31  1  0.621496  0.574188  0.794667  1
  O  O32  1  0.071290  0.746354  0.856698  1
  O  O33  1  0.815191  0.255019  0.885032  1
  O  O34  1  0.237102  0.456821  0.970070  1
  O  O35  1  0.246041  0.045060  0.979783  1
