# generated using pymatgen
data_CdIn2SnP4
_symmetry_space_group_name_H-M   'P 1'
_cell_length_a   7.27153975
_cell_length_b   7.27153942
_cell_length_c   7.27154013
_cell_angle_alpha   131.60112679
_cell_angle_beta   131.60112183
_cell_angle_gamma   70.85974278
_symmetry_Int_Tables_number   1
_chemical_formula_structural   CdIn2SnP4
_chemical_formula_sum   'Cd1 In2 Sn1 P4'
_cell_volume   210.56662135
_cell_formula_units_Z   1
loop_
 _symmetry_equiv_pos_site_id
 _symmetry_equiv_pos_as_xyz
  1  'x, y, z'
loop_
 _atom_site_type_symbol
 _atom_site_label
 _atom_site_symmetry_multiplicity
 _atom_site_fract_x
 _atom_site_fract_y
 _atom_site_fract_z
 _atom_site_occupancy
  Cd  Cd0  1  0.000000  0.000000  0.000000  1
  In  In1  1  0.750000  0.250000  0.500000  1
  In  In2  1  0.250000  0.750000  0.500000  1
  Sn  Sn3  1  0.500000  0.500000  0.000000  1
  P  P4  1  0.129055  0.129055  0.507260  1
  P  P5  1  0.870945  0.378205  0.000000  1
  P  P6  1  0.621795  0.621795  0.492740  1
  P  P7  1  0.378205  0.870945  0.000000  1
