# generated using pymatgen
data_LaBPd3Au
_symmetry_space_group_name_H-M   'P 1'
_cell_length_a   5.61441900
_cell_length_b   5.61441970
_cell_length_c   7.68452300
_cell_angle_alpha   90.00000000
_cell_angle_beta   90.00000000
_cell_angle_gamma   120.00000177
_symmetry_Int_Tables_number   1
_chemical_formula_structural   LaBPd3Au
_chemical_formula_sum   'La2 B2 Pd6 Au2'
_cell_volume   209.77669263
_cell_formula_units_Z   2
loop_
 _symmetry_equiv_pos_site_id
 _symmetry_equiv_pos_as_xyz
  1  'x, y, z'
loop_
 _atom_site_type_symbol
 _atom_site_label
 _atom_site_symmetry_multiplicity
 _atom_site_fract_x
 _atom_site_fract_y
 _atom_site_fract_z
 _atom_site_occupancy
  La  La0  1  0.000000  0.000000  0.500000  1
  La  La1  1  0.000000  0.000000  0.000000  1
  B  B2  1  0.333333  0.666667  0.000000  1
  B  B3  1  0.666667  0.333333  0.000000  1
  Pd  Pd4  1  0.500000  0.000000  0.192883  1
  Pd  Pd5  1  0.500000  0.000000  0.807117  1
  Pd  Pd6  1  0.000000  0.500000  0.192883  1
  Pd  Pd7  1  0.000000  0.500000  0.807117  1
  Pd  Pd8  1  0.500000  0.500000  0.192883  1
  Pd  Pd9  1  0.500000  0.500000  0.807117  1
  Au  Au10  1  0.333333  0.666667  0.500000  1
  Au  Au11  1  0.666667  0.333333  0.500000  1
