# generated using pymatgen
data_TbTmAl3Tc
_symmetry_space_group_name_H-M   'P 1'
_cell_length_a   5.41109800
_cell_length_b   5.41109771
_cell_length_c   8.87808800
_cell_angle_alpha   90.00000000
_cell_angle_beta   90.00000000
_cell_angle_gamma   120.00000175
_symmetry_Int_Tables_number   1
_chemical_formula_structural   TbTmAl3Tc
_chemical_formula_sum   'Tb2 Tm2 Al6 Tc2'
_cell_volume   225.12350693
_cell_formula_units_Z   2
loop_
 _symmetry_equiv_pos_site_id
 _symmetry_equiv_pos_as_xyz
  1  'x, y, z'
loop_
 _atom_site_type_symbol
 _atom_site_label
 _atom_site_symmetry_multiplicity
 _atom_site_fract_x
 _atom_site_fract_y
 _atom_site_fract_z
 _atom_site_occupancy
  Tb  Tb0  1  0.666667  0.333333  0.443641  1
  Tb  Tb1  1  0.333333  0.666667  0.556359  1
  Tm  Tm2  1  0.333333  0.666667  0.950774  1
  Tm  Tm3  1  0.666667  0.333333  0.049226  1
  Al  Al4  1  0.672968  0.836484  0.248420  1
  Al  Al5  1  0.163516  0.836484  0.248420  1
  Al  Al6  1  0.163516  0.327032  0.248420  1
  Al  Al7  1  0.327032  0.163516  0.751580  1
  Al  Al8  1  0.836484  0.163516  0.751580  1
  Al  Al9  1  0.836484  0.672968  0.751580  1
  Tc  Tc10  1  0.000000  0.000000  0.500000  1
  Tc  Tc11  1  0.000000  0.000000  0.000000  1
