# generated using pymatgen
data_V12FeIr2Pt
_symmetry_space_group_name_H-M   'P 1'
_cell_length_a   4.76696500
_cell_length_b   4.76486800
_cell_length_c   9.51743100
_cell_angle_alpha   90.00000000
_cell_angle_beta   90.00000000
_cell_angle_gamma   90.00000000
_symmetry_Int_Tables_number   1
_chemical_formula_structural   V12FeIr2Pt
_chemical_formula_sum   'V12 Fe1 Ir2 Pt1'
_cell_volume   216.17853738
_cell_formula_units_Z   1
loop_
 _symmetry_equiv_pos_site_id
 _symmetry_equiv_pos_as_xyz
  1  'x, y, z'
loop_
 _atom_site_type_symbol
 _atom_site_label
 _atom_site_symmetry_multiplicity
 _atom_site_fract_x
 _atom_site_fract_y
 _atom_site_fract_z
 _atom_site_occupancy
  V  V0  1  0.500000  0.000000  0.622171  1
  V  V1  1  0.500000  0.000000  0.126965  1
  V  V2  1  0.747769  0.500000  0.257747  1
  V  V3  1  0.747769  0.500000  0.742253  1
  V  V4  1  0.000000  0.746632  0.500000  1
  V  V5  1  0.000000  0.752294  0.000000  1
  V  V6  1  0.500000  0.000000  0.377829  1
  V  V7  1  0.500000  0.000000  0.873035  1
  V  V8  1  0.252231  0.500000  0.257747  1
  V  V9  1  0.252231  0.500000  0.742253  1
  V  V10  1  0.000000  0.253368  0.500000  1
  V  V11  1  0.000000  0.247706  0.000000  1
  Fe  Fe12  1  0.500000  0.500000  0.500000  1
  Ir  Ir13  1  0.000000  0.000000  0.250621  1
  Ir  Ir14  1  0.000000  0.000000  0.749379  1
  Pt  Pt15  1  0.500000  0.500000  0.000000  1
