# generated using pymatgen
data_Th8Si15Ni
_symmetry_space_group_name_H-M   'P 1'
_cell_length_a   8.18635100
_cell_length_b   8.18634944
_cell_length_c   8.54381600
_cell_angle_alpha   90.00000000
_cell_angle_beta   90.00000000
_cell_angle_gamma   119.99999416
_symmetry_Int_Tables_number   1
_chemical_formula_structural   Th8Si15Ni
_chemical_formula_sum   'Th8 Si15 Ni1'
_cell_volume   495.86469116
_cell_formula_units_Z   1
loop_
 _symmetry_equiv_pos_site_id
 _symmetry_equiv_pos_as_xyz
  1  'x, y, z'
loop_
 _atom_site_type_symbol
 _atom_site_label
 _atom_site_symmetry_multiplicity
 _atom_site_fract_x
 _atom_site_fract_y
 _atom_site_fract_z
 _atom_site_occupancy
  Th  Th0  1  0.501707  0.003413  0.253441  1
  Th  Th1  1  0.501768  0.003536  0.746579  1
  Th  Th2  1  0.996587  0.498293  0.253441  1
  Th  Th3  1  0.996464  0.498232  0.746579  1
  Th  Th4  1  0.501707  0.498293  0.253441  1
  Th  Th5  1  0.501768  0.498232  0.746579  1
  Th  Th6  1  0.000000  0.000000  0.252852  1
  Th  Th7  1  0.000000  0.000000  0.747207  1
  Si  Si8  1  0.171832  0.343664  0.000218  1
  Si  Si9  1  0.833574  0.667147  0.999872  1
  Si  Si10  1  0.656336  0.828168  0.000218  1
  Si  Si11  1  0.832747  0.665495  0.499777  1
  Si  Si12  1  0.332853  0.166426  0.999872  1
  Si  Si13  1  0.166164  0.332328  0.500254  1
  Si  Si14  1  0.171832  0.828168  0.000218  1
  Si  Si15  1  0.334505  0.167253  0.499777  1
  Si  Si16  1  0.833574  0.166426  0.999872  1
  Si  Si17  1  0.667672  0.833836  0.500254  1
  Si  Si18  1  0.832747  0.167253  0.499777  1
  Si  Si19  1  0.166164  0.833836  0.500254  1
  Si  Si20  1  0.666667  0.333333  0.000044  1
  Si  Si21  1  0.666667  0.333333  0.500033  1
  Si  Si22  1  0.333333  0.666667  0.500011  1
  Ni  Ni23  1  0.333333  0.666667  0.999429  1
