# generated using pymatgen
data_La11PrOs2I17
_symmetry_space_group_name_H-M   'P 1'
_cell_length_a   10.22755491
_cell_length_b   12.24173315
_cell_length_c   12.32241792
_cell_angle_alpha   93.41665874
_cell_angle_beta   104.84010147
_cell_angle_gamma   114.37324141
_symmetry_Int_Tables_number   1
_chemical_formula_structural   La11PrOs2I17
_chemical_formula_sum   'La11 Pr1 Os2 I17'
_cell_volume   1334.27746850
_cell_formula_units_Z   1
loop_
 _symmetry_equiv_pos_site_id
 _symmetry_equiv_pos_as_xyz
  1  'x, y, z'
loop_
 _atom_site_type_symbol
 _atom_site_label
 _atom_site_symmetry_multiplicity
 _atom_site_fract_x
 _atom_site_fract_y
 _atom_site_fract_z
 _atom_site_occupancy
  La  La0  1  0.059989  0.514830  0.323199  1
  La  La1  1  0.987455  0.809767  0.581944  1
  La  La2  1  0.646269  0.239997  0.283607  1
  La  La3  1  0.013666  0.189085  0.421430  1
  La  La4  1  0.224332  0.670191  0.990086  1
  La  La5  1  0.259263  0.986770  0.892459  1
  La  La6  1  0.360181  0.760345  0.714669  1
  La  La7  1  0.941894  0.489157  0.677867  1
  La  La8  1  0.738230  0.009349  0.106175  1
  La  La9  1  0.148903  0.286760  0.150309  1
  La  La10  1  0.774072  0.330742  0.007051  1
  Pr  Pr11  1  0.846356  0.712293  0.850454  1
  Os  Os12  1  0.105297  0.738792  0.785500  1
  Os  Os13  1  0.895779  0.261391  0.214410  1
  I  I14  1  0.786577  0.528504  0.417945  1
  I  I15  1  0.641642  0.420846  0.760541  1
  I  I16  1  0.843343  0.894560  0.325750  1
  I  I17  1  0.326019  0.212019  0.369032  1
  I  I18  1  0.156709  0.105434  0.674827  1
  I  I19  1  0.587618  0.052608  0.843950  1
  I  I20  1  0.756962  0.184609  0.537988  1
  I  I21  1  0.549914  0.707396  0.953381  1
  I  I22  1  0.357885  0.581349  0.240082  1
  I  I23  1  0.214045  0.471669  0.581437  1
  I  I24  1  0.053860  0.367679  0.897658  1
  I  I25  1  0.449576  0.291564  0.046613  1
  I  I26  1  0.998428  0.998661  0.999485  1
  I  I27  1  0.243725  0.816091  0.461912  1
  I  I28  1  0.412977  0.947697  0.156034  1
  I  I29  1  0.675022  0.787385  0.632843  1
  I  I30  1  0.944014  0.632459  0.101363  1
