# generated using pymatgen
data_La18Dy2Si15Pd
_symmetry_space_group_name_H-M   'P 1'
_cell_length_a   8.03268861
_cell_length_b   8.04762271
_cell_length_c   15.30335100
_cell_angle_alpha   90.30810889
_cell_angle_beta   89.38641535
_cell_angle_gamma   89.98637007
_symmetry_Int_Tables_number   1
_chemical_formula_structural   La18Dy2Si15Pd
_chemical_formula_sum   'La18 Dy2 Si15 Pd1'
_cell_volume   989.19947290
_cell_formula_units_Z   1
loop_
 _symmetry_equiv_pos_site_id
 _symmetry_equiv_pos_as_xyz
  1  'x, y, z'
loop_
 _atom_site_type_symbol
 _atom_site_label
 _atom_site_symmetry_multiplicity
 _atom_site_fract_x
 _atom_site_fract_y
 _atom_site_fract_z
 _atom_site_occupancy
  La  La0  1  0.979501  0.131322  0.130156  1
  La  La1  1  0.027683  0.870548  0.617867  1
  La  La2  1  0.627686  0.519260  0.873901  1
  La  La3  1  0.486061  0.376773  0.622285  1
  La  La4  1  0.512456  0.624917  0.130634  1
  La  La5  1  0.126347  0.979141  0.876721  1
  La  La6  1  0.989659  0.621201  0.057195  1
  La  La7  1  0.019573  0.363453  0.540362  1
  La  La8  1  0.622119  0.987313  0.949968  1
  La  La9  1  0.121693  0.507317  0.801890  1
  La  La10  1  0.865231  0.480059  0.297397  1
  La  La11  1  0.505305  0.122434  0.202673  1
  La  La12  1  0.495339  0.878207  0.694839  1
  La  La13  1  0.384751  0.023590  0.451708  1
  La  La14  1  0.704320  0.694053  0.496126  1
  La  La15  1  0.813813  0.190330  0.747129  1
  La  La16  1  0.182040  0.802676  0.263440  1
  La  La17  1  0.301717  0.305800  0.001885  1
  Dy  Dy18  1  0.378197  0.480516  0.375013  1
  Dy  Dy19  1  0.857948  0.022745  0.370369  1
  Si  Si20  1  0.918515  0.288660  0.941336  1
  Si  Si21  1  0.716725  0.082985  0.554157  1
  Si  Si22  1  0.213916  0.418118  0.198947  1
  Si  Si23  1  0.796223  0.577488  0.687712  1
  Si  Si24  1  0.423648  0.209106  0.808026  1
  Si  Si25  1  0.572206  0.790456  0.312263  1
  Si  Si26  1  0.286423  0.921727  0.063794  1
  Si  Si27  1  0.833052  0.803869  0.795167  1
  Si  Si28  1  0.158879  0.205087  0.313242  1
  Si  Si29  1  0.796777  0.836026  0.203709  1
  Si  Si30  1  0.314273  0.667762  0.538208  1
  Si  Si31  1  0.694678  0.332181  0.049580  1
  Si  Si32  1  0.667034  0.303306  0.444291  1
  Si  Si33  1  0.329644  0.695444  0.956436  1
  Si  Si34  1  0.202929  0.166705  0.697637  1
  Pd  Pd35  1  0.073640  0.719428  0.433936  1
