# generated using pymatgen
data_Zr6InBiP
_symmetry_space_group_name_H-M   'P 1'
_cell_length_a   7.72522600
_cell_length_b   7.72522516
_cell_length_c   3.84359900
_cell_angle_alpha   90.00000000
_cell_angle_beta   90.00000000
_cell_angle_gamma   120.00000358
_symmetry_Int_Tables_number   1
_chemical_formula_structural   Zr6InBiP
_chemical_formula_sum   'Zr6 In1 Bi1 P1'
_cell_volume   198.65112444
_cell_formula_units_Z   1
loop_
 _symmetry_equiv_pos_site_id
 _symmetry_equiv_pos_as_xyz
  1  'x, y, z'
loop_
 _atom_site_type_symbol
 _atom_site_label
 _atom_site_symmetry_multiplicity
 _atom_site_fract_x
 _atom_site_fract_y
 _atom_site_fract_z
 _atom_site_occupancy
  Zr  Zr0  1  0.377195  0.379084  0.500000  1
  Zr  Zr1  1  0.620916  0.998111  0.500000  1
  Zr  Zr2  1  0.001889  0.622805  0.500000  1
  Zr  Zr3  1  0.762790  0.757404  0.000000  1
  Zr  Zr4  1  0.242596  0.005385  0.000000  1
  Zr  Zr5  1  0.994615  0.237210  0.000000  1
  In  In6  1  0.666667  0.333333  0.000000  1
  Bi  Bi7  1  0.333333  0.666667  0.000000  1
  P  P8  1  0.000000  0.000000  0.500000  1
