# generated using pymatgen
data_Zr2MnZnCo8
_symmetry_space_group_name_H-M   'P 1'
_cell_length_a   4.79887034
_cell_length_b   4.79887041
_cell_length_c   8.32697325
_cell_angle_alpha   106.74736796
_cell_angle_beta   73.25262765
_cell_angle_gamma   120.00000519
_symmetry_Int_Tables_number   1
_chemical_formula_structural   Zr2MnZnCo8
_chemical_formula_sum   'Zr2 Mn1 Zn1 Co8'
_cell_volume   156.60937817
_cell_formula_units_Z   1
loop_
 _symmetry_equiv_pos_site_id
 _symmetry_equiv_pos_as_xyz
  1  'x, y, z'
loop_
 _atom_site_type_symbol
 _atom_site_label
 _atom_site_symmetry_multiplicity
 _atom_site_fract_x
 _atom_site_fract_y
 _atom_site_fract_z
 _atom_site_occupancy
  Zr  Zr0  1  0.000137  0.999863  0.999587  1
  Zr  Zr1  1  0.499930  0.500070  0.500208  1
  Mn  Mn2  1  0.874546  0.125454  0.376363  1
  Zn  Zn3  1  0.374990  0.625010  0.875029  1
  Co  Co4  1  0.436257  0.563743  0.188382  1
  Co  Co5  1  0.936831  0.063169  0.686712  1
  Co  Co6  1  0.436257  0.060897  0.188382  1
  Co  Co7  1  0.936831  0.560375  0.686712  1
  Co  Co8  1  0.187839  0.812161  0.436482  1
  Co  Co9  1  0.687650  0.312350  0.937051  1
  Co  Co10  1  0.939103  0.563743  0.188382  1
  Co  Co11  1  0.439625  0.063169  0.686712  1
