# generated using pymatgen
data_Er2VOs3
_symmetry_space_group_name_H-M   'P 1'
_cell_length_a   5.45142906
_cell_length_b   5.45142949
_cell_length_c   8.29061100
_cell_angle_alpha   90.00000000
_cell_angle_beta   90.00000000
_cell_angle_gamma   120.03354788
_symmetry_Int_Tables_number   1
_chemical_formula_structural   Er2VOs3
_chemical_formula_sum   'Er4 V2 Os6'
_cell_volume   213.30008130
_cell_formula_units_Z   2
loop_
 _symmetry_equiv_pos_site_id
 _symmetry_equiv_pos_as_xyz
  1  'x, y, z'
loop_
 _atom_site_type_symbol
 _atom_site_label
 _atom_site_symmetry_multiplicity
 _atom_site_fract_x
 _atom_site_fract_y
 _atom_site_fract_z
 _atom_site_occupancy
  Er  Er0  1  0.666679  0.333321  0.564922  1
  Er  Er1  1  0.333321  0.666679  0.435078  1
  Er  Er2  1  0.333321  0.666679  0.064922  1
  Er  Er3  1  0.666679  0.333321  0.935078  1
  V  V4  1  0.000000  0.000000  0.500000  1
  V  V5  1  0.000000  0.000000  0.000000  1
  Os  Os6  1  0.169993  0.339917  0.750000  1
  Os  Os7  1  0.169878  0.830122  0.750000  1
  Os  Os8  1  0.660083  0.830007  0.750000  1
  Os  Os9  1  0.830007  0.660083  0.250000  1
  Os  Os10  1  0.830122  0.169878  0.250000  1
  Os  Os11  1  0.339917  0.169993  0.250000  1
