# generated using pymatgen
data_Y5Bi3C
_symmetry_space_group_name_H-M   'P 1'
_cell_length_a   9.16402943
_cell_length_b   9.16403019
_cell_length_c   6.52562000
_cell_angle_alpha   90.00007325
_cell_angle_beta   90.00007257
_cell_angle_gamma   119.99633841
_symmetry_Int_Tables_number   1
_chemical_formula_structural   Y5Bi3C
_chemical_formula_sum   'Y10 Bi6 C2'
_cell_volume   474.61495783
_cell_formula_units_Z   2
loop_
 _symmetry_equiv_pos_site_id
 _symmetry_equiv_pos_as_xyz
  1  'x, y, z'
loop_
 _atom_site_type_symbol
 _atom_site_label
 _atom_site_symmetry_multiplicity
 _atom_site_fract_x
 _atom_site_fract_y
 _atom_site_fract_z
 _atom_site_occupancy
  Y  Y0  1  0.666597  0.333403  0.500001  1
  Y  Y1  1  0.333403  0.666597  0.500001  1
  Y  Y2  1  0.333403  0.666597  0.000001  1
  Y  Y3  1  0.666597  0.333403  0.000001  1
  Y  Y4  1  0.791472  0.791472  0.249998  1
  Y  Y5  1  0.208324  0.999903  0.250000  1
  Y  Y6  1  0.999903  0.208324  0.250000  1
  Y  Y7  1  0.208529  0.208529  0.749998  1
  Y  Y8  1  0.791676  0.000098  0.749999  1
  Y  Y9  1  0.000098  0.791676  0.749999  1
  Bi  Bi10  1  0.402147  0.402147  0.250000  1
  Bi  Bi11  1  0.597545  0.000058  0.250003  1
  Bi  Bi12  1  0.000058  0.597545  0.250003  1
  Bi  Bi13  1  0.597854  0.597854  0.750000  1
  Bi  Bi14  1  0.402455  0.999942  0.750003  1
  Bi  Bi15  1  0.999942  0.402455  0.750003  1
  C  C16  1  0.000000  0.000000  0.499996  1
  C  C17  1  0.999999  0.999999  0.999992  1
