# generated using pymatgen
data_Li2ZnPb3O8
_symmetry_space_group_name_H-M   'P 1'
_cell_length_a   10.97520700
_cell_length_b   10.97520695
_cell_length_c   10.32504000
_cell_angle_alpha   90.00000000
_cell_angle_beta   90.00000000
_cell_angle_gamma   120.11077083
_symmetry_Int_Tables_number   1
_chemical_formula_structural   Li2ZnPb3O8
_chemical_formula_sum   'Li12 Zn6 Pb18 O48'
_cell_volume   1075.87538130
_cell_formula_units_Z   6
loop_
 _symmetry_equiv_pos_site_id
 _symmetry_equiv_pos_as_xyz
  1  'x, y, z'
loop_
 _atom_site_type_symbol
 _atom_site_label
 _atom_site_symmetry_multiplicity
 _atom_site_fract_x
 _atom_site_fract_y
 _atom_site_fract_z
 _atom_site_occupancy
  Li  Li0  1  0.334485  0.832791  0.009173  1
  Li  Li1  1  0.692283  0.333281  0.781896  1
  Li  Li2  1  0.307718  0.666720  0.281895  1
  Li  Li3  1  0.333281  0.692283  0.781896  1
  Li  Li4  1  0.666720  0.307718  0.281895  1
  Li  Li5  1  0.979974  0.979974  0.783752  1
  Li  Li6  1  0.020025  0.020025  0.283753  1
  Li  Li7  1  0.165385  0.165385  0.508943  1
  Li  Li8  1  0.834615  0.834615  0.008944  1
  Li  Li9  1  0.167210  0.665516  0.509173  1
  Li  Li10  1  0.832791  0.334485  0.009173  1
  Li  Li11  1  0.665516  0.167210  0.509173  1
  Zn  Zn12  1  0.666875  0.666875  0.690622  1
  Zn  Zn13  1  0.333126  0.333126  0.190622  1
  Zn  Zn14  1  0.334295  0.000088  0.696812  1
  Zn  Zn15  1  0.665706  0.999913  0.196811  1
  Zn  Zn16  1  0.000088  0.334295  0.696812  1
  Zn  Zn17  1  0.999913  0.665706  0.196811  1
  Pb  Pb18  1  0.019732  0.843543  0.504845  1
  Pb  Pb19  1  0.980267  0.156457  0.004846  1
  Pb  Pb20  1  0.843543  0.019732  0.504845  1
  Pb  Pb21  1  0.156457  0.980267  0.004846  1
  Pb  Pb22  1  0.840851  0.492342  0.504396  1
  Pb  Pb23  1  0.159150  0.507659  0.004397  1
  Pb  Pb24  1  0.492342  0.840851  0.504396  1
  Pb  Pb25  1  0.507659  0.159150  0.004397  1
  Pb  Pb26  1  0.490154  0.315199  0.503456  1
  Pb  Pb27  1  0.509846  0.684801  0.003456  1
  Pb  Pb28  1  0.315199  0.490154  0.503456  1
  Pb  Pb29  1  0.684801  0.509846  0.003456  1
  Pb  Pb30  1  0.005681  0.667220  0.785090  1
  Pb  Pb31  1  0.994320  0.332781  0.285089  1
  Pb  Pb32  1  0.667220  0.005681  0.785090  1
  Pb  Pb33  1  0.332781  0.994320  0.285089  1
  Pb  Pb34  1  0.327967  0.327967  0.785444  1
  Pb  Pb35  1  0.672033  0.672033  0.285446  1
  O  O36  1  0.844883  0.667908  0.630732  1
  O  O37  1  0.155115  0.332091  0.130731  1
  O  O38  1  0.667908  0.844883  0.630732  1
  O  O39  1  0.332091  0.155115  0.130731  1
  O  O40  1  0.330113  0.174369  0.641568  1
  O  O41  1  0.669886  0.825630  0.141568  1
  O  O42  1  0.174369  0.330113  0.641568  1
  O  O43  1  0.825630  0.669886  0.141568  1
  O  O44  1  0.160829  0.823418  0.640198  1
  O  O45  1  0.839171  0.176582  0.140198  1
  O  O46  1  0.823418  0.160829  0.640198  1
  O  O47  1  0.176582  0.839171  0.140198  1
  O  O48  1  0.001752  0.509856  0.640255  1
  O  O49  1  0.998249  0.490144  0.140255  1
  O  O50  1  0.509856  0.001752  0.640255  1
  O  O51  1  0.490144  0.998249  0.140255  1
  O  O52  1  0.665672  0.328394  0.606256  1
  O  O53  1  0.334327  0.671605  0.106256  1
  O  O54  1  0.328394  0.665672  0.606256  1
  O  O55  1  0.671605  0.334327  0.106256  1
  O  O56  1  0.848911  0.848911  0.384588  1
  O  O57  1  0.151089  0.151089  0.884589  1
  O  O58  1  0.167640  0.010479  0.382212  1
  O  O59  1  0.832360  0.989521  0.882211  1
  O  O60  1  0.010479  0.167640  0.382212  1
  O  O61  1  0.989521  0.832360  0.882211  1
  O  O62  1  0.331122  0.331122  0.387217  1
  O  O63  1  0.668877  0.668877  0.887215  1
  O  O64  1  0.665503  0.489392  0.383888  1
  O  O65  1  0.334497  0.510608  0.883888  1
  O  O66  1  0.489392  0.665503  0.383888  1
  O  O67  1  0.510608  0.334497  0.883888  1
  O  O68  1  0.819715  0.322810  0.385416  1
  O  O69  1  0.180285  0.677191  0.885415  1
  O  O70  1  0.322810  0.819715  0.385416  1
  O  O71  1  0.677191  0.180285  0.885415  1
  O  O72  1  0.508160  0.166680  0.381983  1
  O  O73  1  0.491841  0.833321  0.881982  1
  O  O74  1  0.166680  0.508160  0.381983  1
  O  O75  1  0.833321  0.491841  0.881982  1
  O  O76  1  0.002912  0.666851  0.392643  1
  O  O77  1  0.997089  0.333150  0.892643  1
  O  O78  1  0.666851  0.002912  0.392643  1
  O  O79  1  0.333150  0.997089  0.892643  1
  O  O80  1  0.005678  0.005678  0.607516  1
  O  O81  1  0.994322  0.994322  0.107518  1
  O  O82  1  0.487009  0.487009  0.632277  1
  O  O83  1  0.512992  0.512992  0.132276  1
