# generated using pymatgen
data_La8SiAsBr12
_symmetry_space_group_name_H-M   'P 1'
_cell_length_a   4.32342400
_cell_length_b   13.95627411
_cell_length_c   14.78941867
_cell_angle_alpha   90.01861280
_cell_angle_beta   90.00000000
_cell_angle_gamma   90.00000000
_symmetry_Int_Tables_number   1
_chemical_formula_structural   La8SiAsBr12
_chemical_formula_sum   'La8 Si1 As1 Br12'
_cell_volume   892.37706567
_cell_formula_units_Z   1
loop_
 _symmetry_equiv_pos_site_id
 _symmetry_equiv_pos_as_xyz
  1  'x, y, z'
loop_
 _atom_site_type_symbol
 _atom_site_label
 _atom_site_symmetry_multiplicity
 _atom_site_fract_x
 _atom_site_fract_y
 _atom_site_fract_z
 _atom_site_occupancy
  La  La0  1  0.500000  0.119706  0.339173  1
  La  La1  1  0.500000  0.880294  0.660827  1
  La  La2  1  0.500000  0.619760  0.160822  1
  La  La3  1  0.500000  0.380240  0.839178  1
  La  La4  1  0.000000  0.118717  0.578703  1
  La  La5  1  0.000000  0.881283  0.421297  1
  La  La6  1  0.000000  0.620246  0.920262  1
  La  La7  1  0.000000  0.379754  0.079738  1
  Si  Si8  1  0.500000  0.500000  0.000000  1
  As  As9  1  0.500000  0.000000  0.500000  1
  Br  Br10  1  0.500000  0.243568  0.163079  1
  Br  Br11  1  0.500000  0.756432  0.836921  1
  Br  Br12  1  0.500000  0.744540  0.337843  1
  Br  Br13  1  0.500000  0.255460  0.662157  1
  Br  Br14  1  0.000000  0.253721  0.411586  1
  Br  Br15  1  0.000000  0.746279  0.588414  1
  Br  Br16  1  0.000000  0.753642  0.088749  1
  Br  Br17  1  0.000000  0.246358  0.911251  1
  Br  Br18  1  0.000000  0.001817  0.244880  1
  Br  Br19  1  0.000000  0.998183  0.755120  1
  Br  Br20  1  0.000000  0.502216  0.255215  1
  Br  Br21  1  0.000000  0.497784  0.744785  1
