# generated using pymatgen
data_Tb2Ni5Sn(BIr)2
_symmetry_space_group_name_H-M   'P 1'
_cell_length_a   5.35229465
_cell_length_b   5.35229359
_cell_length_c   7.11308800
_cell_angle_alpha   90.00000000
_cell_angle_beta   90.00000000
_cell_angle_gamma   123.11923738
_symmetry_Int_Tables_number   1
_chemical_formula_structural   Tb2Ni5Sn(BIr)2
_chemical_formula_sum   'Tb2 Ni5 Sn1 B2 Ir2'
_cell_volume   170.66373674
_cell_formula_units_Z   1
loop_
 _symmetry_equiv_pos_site_id
 _symmetry_equiv_pos_as_xyz
  1  'x, y, z'
loop_
 _atom_site_type_symbol
 _atom_site_label
 _atom_site_symmetry_multiplicity
 _atom_site_fract_x
 _atom_site_fract_y
 _atom_site_fract_z
 _atom_site_occupancy
  Tb  Tb0  1  0.002068  0.997932  0.500000  1
  Tb  Tb1  1  0.988926  0.011074  0.000000  1
  Ni  Ni2  1  0.683075  0.316925  0.000000  1
  Ni  Ni3  1  0.505013  0.002081  0.309431  1
  Ni  Ni4  1  0.997919  0.494987  0.309431  1
  Ni  Ni5  1  0.505013  0.002081  0.690569  1
  Ni  Ni6  1  0.997919  0.494987  0.690569  1
  Sn  Sn7  1  0.307845  0.692155  0.000000  1
  B  B8  1  0.664972  0.335028  0.500000  1
  B  B9  1  0.339836  0.660164  0.500000  1
  Ir  Ir10  1  0.503707  0.496293  0.286245  1
  Ir  Ir11  1  0.503707  0.496293  0.713755  1
