# generated using pymatgen
data_Li7Er8ZnSn8
_symmetry_space_group_name_H-M   'P 1'
_cell_length_a   9.35179301
_cell_length_b   9.33976221
_cell_length_c   7.18266018
_cell_angle_alpha   90.05821215
_cell_angle_beta   89.99624343
_cell_angle_gamma   120.03994353
_symmetry_Int_Tables_number   1
_chemical_formula_structural   Li7Er8ZnSn8
_chemical_formula_sum   'Li7 Er8 Zn1 Sn8'
_cell_volume   543.08953195
_cell_formula_units_Z   1
loop_
 _symmetry_equiv_pos_site_id
 _symmetry_equiv_pos_as_xyz
  1  'x, y, z'
loop_
 _atom_site_type_symbol
 _atom_site_label
 _atom_site_symmetry_multiplicity
 _atom_site_fract_x
 _atom_site_fract_y
 _atom_site_fract_z
 _atom_site_occupancy
  Li  Li0  1  0.165141  0.832381  0.211646  1
  Li  Li1  1  0.667196  0.832385  0.211621  1
  Li  Li2  1  0.667559  0.335132  0.326646  1
  Li  Li3  1  0.833314  0.666643  0.711654  1
  Li  Li4  1  0.334173  0.166628  0.711815  1
  Li  Li5  1  0.832474  0.166587  0.711795  1
  Li  Li6  1  0.334012  0.667989  0.824674  1
  Er  Er7  1  0.999849  0.999616  0.000545  1
  Er  Er8  1  0.511771  0.023557  0.002353  1
  Er  Er9  1  0.511086  0.488156  0.006671  1
  Er  Er10  1  0.977158  0.488212  0.006682  1
  Er  Er11  1  0.000803  0.001564  0.501108  1
  Er  Er12  1  0.488244  0.976592  0.510014  1
  Er  Er13  1  0.023584  0.510947  0.507101  1
  Er  Er14  1  0.487302  0.510906  0.507037  1
  Zn  Zn15  1  0.166336  0.332749  0.204632  1
  Sn  Sn16  1  0.334656  0.669324  0.241758  1
  Sn  Sn17  1  0.833020  0.666150  0.268971  1
  Sn  Sn18  1  0.334893  0.165686  0.271574  1
  Sn  Sn19  1  0.830745  0.165637  0.271347  1
  Sn  Sn20  1  0.666935  0.333725  0.740215  1
  Sn  Sn21  1  0.166633  0.333260  0.767968  1
  Sn  Sn22  1  0.166478  0.833073  0.770062  1
  Sn  Sn23  1  0.666637  0.833102  0.770094  1
