# generated using pymatgen
data_Ca10SnWN10
_symmetry_space_group_name_H-M   'P 1'
_cell_length_a   6.98695755
_cell_length_b   6.98695681
_cell_length_c   8.87265369
_cell_angle_alpha   80.68427026
_cell_angle_beta   80.68427011
_cell_angle_gamma   59.94542344
_symmetry_Int_Tables_number   1
_chemical_formula_structural   Ca10SnWN10
_chemical_formula_sum   'Ca10 Sn1 W1 N10'
_cell_volume   368.30123088
_cell_formula_units_Z   1
loop_
 _symmetry_equiv_pos_site_id
 _symmetry_equiv_pos_as_xyz
  1  'x, y, z'
loop_
 _atom_site_type_symbol
 _atom_site_label
 _atom_site_symmetry_multiplicity
 _atom_site_fract_x
 _atom_site_fract_y
 _atom_site_fract_z
 _atom_site_occupancy
  Ca  Ca0  1  0.876402  0.359809  0.834294  1
  Ca  Ca1  1  0.872439  0.872439  0.821126  1
  Ca  Ca2  1  0.735090  0.735090  0.533863  1
  Ca  Ca3  1  0.746329  0.257154  0.515498  1
  Ca  Ca4  1  0.621466  0.141484  0.148171  1
  Ca  Ca5  1  0.359809  0.876402  0.834294  1
  Ca  Ca6  1  0.257154  0.746329  0.515498  1
  Ca  Ca7  1  0.240596  0.240596  0.500658  1
  Ca  Ca8  1  0.143298  0.143298  0.161818  1
  Ca  Ca9  1  0.141484  0.621466  0.148171  1
  Sn  Sn10  1  0.369913  0.369913  0.772558  1
  W  W11  1  0.632450  0.632450  0.224493  1
  N  N12  1  0.908768  0.471300  0.316476  1
  N  N13  1  0.992965  0.992965  0.031232  1
  N  N14  1  0.677409  0.677409  0.011270  1
  N  N15  1  0.547761  0.547761  0.685282  1
  N  N16  1  0.471300  0.908768  0.316476  1
  N  N17  1  0.552133  0.067272  0.662742  1
  N  N18  1  0.472855  0.472855  0.296471  1
  N  N19  1  0.315863  0.315863  0.003566  1
  N  N20  1  0.059530  0.059530  0.649105  1
  N  N21  1  0.067272  0.552133  0.662742  1
