# generated using pymatgen
data_Ce3BiF15
_symmetry_space_group_name_H-M   'P 1'
_cell_length_a   8.69054497
_cell_length_b   8.69054552
_cell_length_c   8.68306105
_cell_angle_alpha   79.75795296
_cell_angle_beta   79.75795585
_cell_angle_gamma   100.27968749
_symmetry_Int_Tables_number   1
_chemical_formula_structural   Ce3BiF15
_chemical_formula_sum   'Ce6 Bi2 F30'
_cell_volume   619.93794455
_cell_formula_units_Z   2
loop_
 _symmetry_equiv_pos_site_id
 _symmetry_equiv_pos_as_xyz
  1  'x, y, z'
loop_
 _atom_site_type_symbol
 _atom_site_label
 _atom_site_symmetry_multiplicity
 _atom_site_fract_x
 _atom_site_fract_y
 _atom_site_fract_z
 _atom_site_occupancy
  Ce  Ce0  1  0.750823  0.249177  0.250000  1
  Ce  Ce1  1  0.249177  0.750823  0.750000  1
  Ce  Ce2  1  0.750908  0.678025  0.675219  1
  Ce  Ce3  1  0.321975  0.249092  0.824781  1
  Ce  Ce4  1  0.249092  0.321975  0.324781  1
  Ce  Ce5  1  0.678025  0.750908  0.175219  1
  Bi  Bi6  1  0.178869  0.821131  0.250000  1
  Bi  Bi7  1  0.821131  0.178869  0.750000  1
  F  F8  1  0.465645  0.534355  0.250000  1
  F  F9  1  0.748171  0.957934  0.968311  1
  F  F10  1  0.042066  0.251829  0.531689  1
  F  F11  1  0.251829  0.042066  0.031689  1
  F  F12  1  0.957934  0.748171  0.468311  1
  F  F13  1  0.534355  0.465645  0.750000  1
  F  F14  1  0.223678  0.492357  0.775776  1
  F  F15  1  0.226502  0.721881  0.006528  1
  F  F16  1  0.990240  0.725227  0.780447  1
  F  F17  1  0.725227  0.990240  0.280447  1
  F  F18  1  0.721881  0.226502  0.506528  1
  F  F19  1  0.492357  0.223678  0.275776  1
  F  F20  1  0.776323  0.507643  0.224224  1
  F  F21  1  0.773498  0.278119  0.993472  1
  F  F22  1  0.009760  0.274773  0.219553  1
  F  F23  1  0.274773  0.009760  0.719553  1
  F  F24  1  0.278119  0.773498  0.493472  1
  F  F25  1  0.507643  0.776322  0.724224  1
  F  F26  1  0.544008  0.154725  0.816463  1
  F  F27  1  0.189010  0.059927  0.347851  1
  F  F28  1  0.650505  0.683598  0.446517  1
  F  F29  1  0.683598  0.650505  0.946517  1
  F  F30  1  0.059927  0.189010  0.847851  1
  F  F31  1  0.154725  0.544008  0.316463  1
  F  F32  1  0.455992  0.845275  0.183537  1
  F  F33  1  0.810990  0.940073  0.652149  1
  F  F34  1  0.349495  0.316402  0.553483  1
  F  F35  1  0.316402  0.349495  0.053483  1
  F  F36  1  0.940073  0.810990  0.152149  1
  F  F37  1  0.845275  0.455992  0.683537  1
