# generated using pymatgen
data_Sc3Pa(MnB6)2
_symmetry_space_group_name_H-M   'P 1'
_cell_length_a   3.44899300
_cell_length_b   8.87909200
_cell_length_c   11.20391502
_cell_angle_alpha   90.19662566
_cell_angle_beta   90.00000000
_cell_angle_gamma   90.00000000
_symmetry_Int_Tables_number   1
_chemical_formula_structural   Sc3Pa(MnB6)2
_chemical_formula_sum   'Sc6 Pa2 Mn4 B24'
_cell_volume   343.10584578
_cell_formula_units_Z   2
loop_
 _symmetry_equiv_pos_site_id
 _symmetry_equiv_pos_as_xyz
  1  'x, y, z'
loop_
 _atom_site_type_symbol
 _atom_site_label
 _atom_site_symmetry_multiplicity
 _atom_site_fract_x
 _atom_site_fract_y
 _atom_site_fract_z
 _atom_site_occupancy
  Sc  Sc0  1  0.000000  0.823283  0.084268  1
  Sc  Sc1  1  0.000000  0.176717  0.915732  1
  Sc  Sc2  1  0.000000  0.943959  0.368990  1
  Sc  Sc3  1  0.000000  0.056041  0.631010  1
  Sc  Sc4  1  0.000000  0.443203  0.126799  1
  Sc  Sc5  1  0.000000  0.556797  0.873201  1
  Pa  Pa6  1  0.000000  0.321231  0.413054  1
  Pa  Pa7  1  0.000000  0.678769  0.586946  1
  Mn  Mn8  1  0.000000  0.639178  0.319482  1
  Mn  Mn9  1  0.000000  0.360822  0.680518  1
  Mn  Mn10  1  0.000000  0.140784  0.180607  1
  Mn  Mn11  1  0.000000  0.859216  0.819393  1
  B  B12  1  0.500000  0.555852  0.430229  1
  B  B13  1  0.500000  0.444148  0.569771  1
  B  B14  1  0.500000  0.054079  0.065560  1
  B  B15  1  0.500000  0.945921  0.934440  1
  B  B16  1  0.500000  0.752386  0.415641  1
  B  B17  1  0.500000  0.247614  0.584359  1
  B  B18  1  0.500000  0.249649  0.078419  1
  B  B19  1  0.500000  0.750351  0.921581  1
  B  B20  1  0.500000  0.793620  0.262132  1
  B  B21  1  0.500000  0.206380  0.737868  1
  B  B22  1  0.500000  0.291816  0.231288  1
  B  B23  1  0.500000  0.708184  0.768712  1
  B  B24  1  0.500000  0.631508  0.181908  1
  B  B25  1  0.500000  0.368492  0.818092  1
  B  B26  1  0.500000  0.128615  0.313302  1
  B  B27  1  0.500000  0.871385  0.686698  1
  B  B28  1  0.500000  0.981367  0.209789  1
  B  B29  1  0.500000  0.018633  0.790211  1
  B  B30  1  0.500000  0.484637  0.284186  1
  B  B31  1  0.500000  0.515363  0.715814  1
  B  B32  1  0.500000  0.601362  0.027722  1
  B  B33  1  0.500000  0.398638  0.972278  1
  B  B34  1  0.500000  0.099416  0.472758  1
  B  B35  1  0.500000  0.900584  0.527242  1
