# generated using pymatgen
data_La4Fe(Sb4Pd)2
_symmetry_space_group_name_H-M   'P 1'
_cell_length_a   11.10917518
_cell_length_b   11.10917546
_cell_length_c   11.10917480
_cell_angle_alpha   146.82802603
_cell_angle_beta   146.82803334
_cell_angle_gamma   47.61847893
_symmetry_Int_Tables_number   1
_chemical_formula_structural   La4Fe(Sb4Pd)2
_chemical_formula_sum   'La4 Fe1 Sb8 Pd2'
_cell_volume   408.83549746
_cell_formula_units_Z   1
loop_
 _symmetry_equiv_pos_site_id
 _symmetry_equiv_pos_as_xyz
  1  'x, y, z'
loop_
 _atom_site_type_symbol
 _atom_site_label
 _atom_site_symmetry_multiplicity
 _atom_site_fract_x
 _atom_site_fract_y
 _atom_site_fract_z
 _atom_site_occupancy
  La  La0  1  0.628624  0.130176  0.000000  1
  La  La1  1  0.130176  0.628624  0.000000  1
  La  La2  1  0.869824  0.869824  0.498448  1
  La  La3  1  0.371376  0.371376  0.501552  1
  Fe  Fe4  1  0.000000  0.000000  0.000000  1
  Sb  Sb5  1  0.249638  0.249638  0.000000  1
  Sb  Sb6  1  0.750362  0.750362  0.000000  1
  Sb  Sb7  1  0.250000  0.750000  0.500000  1
  Sb  Sb8  1  0.750000  0.250000  0.500000  1
  Sb  Sb9  1  0.318978  0.823157  0.000000  1
  Sb  Sb10  1  0.823157  0.318978  0.000000  1
  Sb  Sb11  1  0.176843  0.176843  0.495820  1
  Sb  Sb12  1  0.681022  0.681022  0.504180  1
  Pd  Pd13  1  0.500000  0.000000  0.500000  1
  Pd  Pd14  1  0.000000  0.500000  0.500000  1
