# generated using pymatgen
data_Sc3In(HgPt)2
_symmetry_space_group_name_H-M   'P 1'
_cell_length_a   7.53838802
_cell_length_b   7.53838775
_cell_length_c   3.31767900
_cell_angle_alpha   90.00000000
_cell_angle_beta   90.00000000
_cell_angle_gamma   120.00822040
_symmetry_Int_Tables_number   1
_chemical_formula_structural   Sc3In(HgPt)2
_chemical_formula_sum   'Sc3 In1 Hg2 Pt2'
_cell_volume   163.26232440
_cell_formula_units_Z   1
loop_
 _symmetry_equiv_pos_site_id
 _symmetry_equiv_pos_as_xyz
  1  'x, y, z'
loop_
 _atom_site_type_symbol
 _atom_site_label
 _atom_site_symmetry_multiplicity
 _atom_site_fract_x
 _atom_site_fract_y
 _atom_site_fract_z
 _atom_site_occupancy
  Sc  Sc0  1  0.579027  0.998782  0.500001  1
  Sc  Sc1  1  0.420329  0.420329  0.500001  1
  Sc  Sc2  1  0.998782  0.579027  0.500001  1
  In  In3  1  0.767997  0.767997  0.000000  1
  Hg  Hg4  1  0.232334  0.999928  0.000000  1
  Hg  Hg5  1  0.999928  0.232334  0.000000  1
  Pt  Pt6  1  0.666865  0.334739  0.000000  1
  Pt  Pt7  1  0.334739  0.666865  0.000000  1
