# generated using pymatgen
data_SmGa3NiHg
_symmetry_space_group_name_H-M   'P 1'
_cell_length_a   4.21696528
_cell_length_b   6.60950100
_cell_length_c   8.25048745
_cell_angle_alpha   90.00000000
_cell_angle_beta   104.80668206
_cell_angle_gamma   90.00000000
_symmetry_Int_Tables_number   1
_chemical_formula_structural   SmGa3NiHg
_chemical_formula_sum   'Sm2 Ga6 Ni2 Hg2'
_cell_volume   222.32180979
_cell_formula_units_Z   2
loop_
 _symmetry_equiv_pos_site_id
 _symmetry_equiv_pos_as_xyz
  1  'x, y, z'
loop_
 _atom_site_type_symbol
 _atom_site_label
 _atom_site_symmetry_multiplicity
 _atom_site_fract_x
 _atom_site_fract_y
 _atom_site_fract_z
 _atom_site_occupancy
  Sm  Sm0  1  0.876790  0.750000  0.753579  1
  Sm  Sm1  1  0.123210  0.250000  0.246421  1
  Ga  Ga2  1  0.074172  0.750000  0.148345  1
  Ga  Ga3  1  0.925828  0.250000  0.851655  1
  Ga  Ga4  1  0.689566  0.550404  0.379133  1
  Ga  Ga5  1  0.310434  0.449596  0.620867  1
  Ga  Ga6  1  0.689566  0.949596  0.379133  1
  Ga  Ga7  1  0.310434  0.050404  0.620867  1
  Ni  Ni8  1  0.221730  0.750000  0.443460  1
  Ni  Ni9  1  0.778270  0.250000  0.556540  1
  Hg  Hg10  1  0.500000  0.500000  0.000000  1
  Hg  Hg11  1  0.500000  0.000000  0.000000  1
