# generated using pymatgen
data_Dy16AgHg3Ir4
_symmetry_space_group_name_H-M   'P 1'
_cell_length_a   9.60751317
_cell_length_b   9.58564885
_cell_length_c   9.58564900
_cell_angle_alpha   59.99999602
_cell_angle_beta   60.07524882
_cell_angle_gamma   60.07525644
_symmetry_Int_Tables_number   1
_chemical_formula_structural   Dy16AgHg3Ir4
_chemical_formula_sum   'Dy16 Ag1 Hg3 Ir4'
_cell_volume   624.93099504
_cell_formula_units_Z   1
loop_
 _symmetry_equiv_pos_site_id
 _symmetry_equiv_pos_as_xyz
  1  'x, y, z'
loop_
 _atom_site_type_symbol
 _atom_site_label
 _atom_site_symmetry_multiplicity
 _atom_site_fract_x
 _atom_site_fract_y
 _atom_site_fract_z
 _atom_site_occupancy
  Dy  Dy0  1  0.601096  0.600251  0.600251  1
  Dy  Dy1  1  0.601096  0.600251  0.198403  1
  Dy  Dy2  1  0.601096  0.198403  0.600251  1
  Dy  Dy3  1  0.196716  0.601094  0.601094  1
  Dy  Dy4  1  0.060227  0.439479  0.439479  1
  Dy  Dy5  1  0.438032  0.061367  0.061367  1
  Dy  Dy6  1  0.438032  0.061367  0.439234  1
  Dy  Dy7  1  0.060227  0.439479  0.060815  1
  Dy  Dy8  1  0.438032  0.439234  0.061367  1
  Dy  Dy9  1  0.060227  0.060815  0.439479  1
  Dy  Dy10  1  0.188704  0.813339  0.813339  1
  Dy  Dy11  1  0.813720  0.186476  0.186476  1
  Dy  Dy12  1  0.813720  0.186476  0.813328  1
  Dy  Dy13  1  0.188704  0.813339  0.184619  1
  Dy  Dy14  1  0.813720  0.813328  0.186476  1
  Dy  Dy15  1  0.188704  0.184619  0.813339  1
  Ag  Ag16  1  0.503744  0.832085  0.832085  1
  Hg  Hg17  1  0.832013  0.834583  0.834583  1
  Hg  Hg18  1  0.832013  0.834583  0.498821  1
  Hg  Hg19  1  0.832013  0.498821  0.834583  1
  Ir  Ir20  1  0.391501  0.392640  0.392640  1
  Ir  Ir21  1  0.391501  0.392640  0.823218  1
  Ir  Ir22  1  0.391501  0.823218  0.392640  1
  Ir  Ir23  1  0.823662  0.392113  0.392113  1
