# generated using pymatgen
data_TmNp3(GeRu)4
_symmetry_space_group_name_H-M   'P 1'
_cell_length_a   4.51029700
_cell_length_b   7.08140258
_cell_length_c   7.03327574
_cell_angle_alpha   89.32652970
_cell_angle_beta   90.00000000
_cell_angle_gamma   90.00000000
_symmetry_Int_Tables_number   1
_chemical_formula_structural   TmNp3(GeRu)4
_chemical_formula_sum   'Tm1 Np3 Ge4 Ru4'
_cell_volume   224.62188504
_cell_formula_units_Z   1
loop_
 _symmetry_equiv_pos_site_id
 _symmetry_equiv_pos_as_xyz
  1  'x, y, z'
loop_
 _atom_site_type_symbol
 _atom_site_label
 _atom_site_symmetry_multiplicity
 _atom_site_fract_x
 _atom_site_fract_y
 _atom_site_fract_z
 _atom_site_occupancy
  Tm  Tm0  1  0.750000  0.517867  0.313422  1
  Np  Np1  1  0.250000  0.977778  0.813134  1
  Np  Np2  1  0.750000  0.023360  0.186949  1
  Np  Np3  1  0.250000  0.475656  0.693418  1
  Ge  Ge4  1  0.250000  0.298576  0.112264  1
  Ge  Ge5  1  0.750000  0.703191  0.891176  1
  Ge  Ge6  1  0.250000  0.789762  0.389660  1
  Ge  Ge7  1  0.750000  0.207759  0.608747  1
  Ru  Ru8  1  0.750000  0.856126  0.558396  1
  Ru  Ru9  1  0.250000  0.150705  0.442781  1
  Ru  Ru10  1  0.750000  0.344045  0.939708  1
  Ru  Ru11  1  0.250000  0.655177  0.050345  1
