# generated using pymatgen
data_TiV3(SiPt)4
_symmetry_space_group_name_H-M   'P 1'
_cell_length_a   3.83421900
_cell_length_b   6.21601878
_cell_length_c   7.29826138
_cell_angle_alpha   89.87398055
_cell_angle_beta   90.00000000
_cell_angle_gamma   90.00000000
_symmetry_Int_Tables_number   1
_chemical_formula_structural   TiV3(SiPt)4
_chemical_formula_sum   'Ti1 V3 Si4 Pt4'
_cell_volume   173.94325630
_cell_formula_units_Z   1
loop_
 _symmetry_equiv_pos_site_id
 _symmetry_equiv_pos_as_xyz
  1  'x, y, z'
loop_
 _atom_site_type_symbol
 _atom_site_label
 _atom_site_symmetry_multiplicity
 _atom_site_fract_x
 _atom_site_fract_y
 _atom_site_fract_z
 _atom_site_occupancy
  Ti  Ti0  1  0.750000  0.471440  0.825963  1
  V  V1  1  0.250000  0.028774  0.325706  1
  V  V2  1  0.250000  0.529791  0.171900  1
  V  V3  1  0.750000  0.970412  0.672159  1
  Si  Si4  1  0.250000  0.244763  0.617356  1
  Si  Si5  1  0.250000  0.759478  0.877535  1
  Si  Si6  1  0.750000  0.750418  0.379323  1
  Si  Si7  1  0.750000  0.243755  0.127791  1
  Pt  Pt8  1  0.250000  0.151052  0.934521  1
  Pt  Pt9  1  0.250000  0.649867  0.565116  1
  Pt  Pt10  1  0.750000  0.849293  0.066179  1
  Pt  Pt11  1  0.750000  0.350957  0.436450  1
