# generated using pymatgen
data_Dy3Y13Cd4Ir3Ru
_symmetry_space_group_name_H-M   'P 1'
_cell_length_a   9.68316736
_cell_length_b   9.69372818
_cell_length_c   9.69372848
_cell_angle_alpha   59.74950785
_cell_angle_beta   59.71472220
_cell_angle_gamma   59.71472551
_symmetry_Int_Tables_number   1
_chemical_formula_structural   Dy3Y13Cd4Ir3Ru
_chemical_formula_sum   'Dy3 Y13 Cd4 Ir3 Ru1'
_cell_volume   639.40522379
_cell_formula_units_Z   1
loop_
 _symmetry_equiv_pos_site_id
 _symmetry_equiv_pos_as_xyz
  1  'x, y, z'
loop_
 _atom_site_type_symbol
 _atom_site_label
 _atom_site_symmetry_multiplicity
 _atom_site_fract_x
 _atom_site_fract_y
 _atom_site_fract_z
 _atom_site_occupancy
  Dy  Dy0  1  0.348885  0.348998  0.348998  1
  Dy  Dy1  1  0.348187  0.348265  0.957260  1
  Dy  Dy2  1  0.348187  0.957260  0.348265  1
  Y  Y3  1  0.955543  0.348769  0.348769  1
  Y  Y4  1  0.811248  0.189076  0.189076  1
  Y  Y5  1  0.188151  0.809551  0.809551  1
  Y  Y6  1  0.189150  0.811258  0.189141  1
  Y  Y7  1  0.809620  0.188068  0.809713  1
  Y  Y8  1  0.189150  0.189141  0.811258  1
  Y  Y9  1  0.809620  0.809713  0.188068  1
  Y  Y10  1  0.939174  0.561147  0.561147  1
  Y  Y11  1  0.559585  0.938159  0.938159  1
  Y  Y12  1  0.560724  0.939244  0.560996  1
  Y  Y13  1  0.938065  0.559990  0.937578  1
  Y  Y14  1  0.560724  0.560996  0.939244  1
  Y  Y15  1  0.938065  0.937578  0.559990  1
  Cd  Cd16  1  0.579589  0.579656  0.579656  1
  Cd  Cd17  1  0.580678  0.580744  0.257031  1
  Cd  Cd18  1  0.580678  0.257031  0.580744  1
  Cd  Cd19  1  0.257154  0.580654  0.580654  1
  Ir  Ir20  1  0.144849  0.143416  0.576108  1
  Ir  Ir21  1  0.144849  0.576108  0.143416  1
  Ir  Ir22  1  0.575435  0.144116  0.144116  1
  Ru  Ru23  1  0.142693  0.141070  0.141070  1
