# generated using pymatgen
data_HgPtF6
_symmetry_space_group_name_H-M   'P 1'
_cell_length_a   5.85633531
_cell_length_b   5.85633526
_cell_length_c   5.85633509
_cell_angle_alpha   54.05169707
_cell_angle_beta   54.05170488
_cell_angle_gamma   54.05171788
_symmetry_Int_Tables_number   1
_chemical_formula_structural   HgPtF6
_chemical_formula_sum   'Hg1 Pt1 F6'
_cell_volume   122.29559808
_cell_formula_units_Z   1
loop_
 _symmetry_equiv_pos_site_id
 _symmetry_equiv_pos_as_xyz
  1  'x, y, z'
loop_
 _atom_site_type_symbol
 _atom_site_label
 _atom_site_symmetry_multiplicity
 _atom_site_fract_x
 _atom_site_fract_y
 _atom_site_fract_z
 _atom_site_occupancy
  Hg  Hg0  1  0.500000  0.500000  0.500000  1
  Pt  Pt1  1  0.000000  0.000000  0.000000  1
  F  F2  1  0.059381  0.386836  0.784243  1
  F  F3  1  0.784243  0.059381  0.386836  1
  F  F4  1  0.613164  0.215757  0.940619  1
  F  F5  1  0.215757  0.940619  0.613164  1
  F  F6  1  0.940619  0.613164  0.215757  1
  F  F7  1  0.386836  0.784243  0.059381  1
