# generated using pymatgen
data_La11In9Au4
_symmetry_space_group_name_H-M   'P 1'
_cell_length_a   13.92984371
_cell_length_b   13.92984306
_cell_length_c   3.88942400
_cell_angle_alpha   90.00000000
_cell_angle_beta   90.00000000
_cell_angle_gamma   67.99452996
_symmetry_Int_Tables_number   1
_chemical_formula_structural   La11In9Au4
_chemical_formula_sum   'La11 In9 Au4'
_cell_volume   699.72414995
_cell_formula_units_Z   1
loop_
 _symmetry_equiv_pos_site_id
 _symmetry_equiv_pos_as_xyz
  1  'x, y, z'
loop_
 _atom_site_type_symbol
 _atom_site_label
 _atom_site_symmetry_multiplicity
 _atom_site_fract_x
 _atom_site_fract_y
 _atom_site_fract_z
 _atom_site_occupancy
  La  La0  1  0.304358  0.695643  0.000000  1
  La  La1  1  0.695643  0.304358  0.000000  1
  La  La2  1  0.000000  0.000000  0.000000  1
  La  La3  1  0.413030  0.937886  0.000000  1
  La  La4  1  0.586970  0.062114  0.000000  1
  La  La5  1  0.062114  0.586970  0.000000  1
  La  La6  1  0.937886  0.413030  0.000000  1
  La  La7  1  0.162768  0.162768  0.000000  1
  La  La8  1  0.837231  0.837231  0.000000  1
  La  La9  1  0.370637  0.370637  0.000000  1
  La  La10  1  0.629363  0.629363  0.000000  1
  In  In11  1  0.367339  0.161020  0.500002  1
  In  In12  1  0.632661  0.838980  0.500002  1
  In  In13  1  0.838980  0.632661  0.500002  1
  In  In14  1  0.161020  0.367339  0.500002  1
  In  In15  1  0.217495  0.924908  0.500002  1
  In  In16  1  0.782505  0.075092  0.500002  1
  In  In17  1  0.075092  0.782505  0.500002  1
  In  In18  1  0.924908  0.217495  0.500002  1
  In  In19  1  0.500000  0.500000  0.500002  1
  Au  Au20  1  0.450270  0.752244  0.500002  1
  Au  Au21  1  0.549730  0.247756  0.500002  1
  Au  Au22  1  0.247756  0.549730  0.500002  1
  Au  Au23  1  0.752244  0.450270  0.500002  1
