# generated using pymatgen
data_Tb4Y(Tl2Pt)2
_symmetry_space_group_name_H-M   'P 1'
_cell_length_a   3.65499700
_cell_length_b   8.18994100
_cell_length_c   18.32866100
_cell_angle_alpha   90.00000000
_cell_angle_beta   90.00000000
_cell_angle_gamma   90.00000000
_symmetry_Int_Tables_number   1
_chemical_formula_structural   Tb4Y(Tl2Pt)2
_chemical_formula_sum   'Tb8 Y2 Tl8 Pt4'
_cell_volume   548.65398346
_cell_formula_units_Z   2
loop_
 _symmetry_equiv_pos_site_id
 _symmetry_equiv_pos_as_xyz
  1  'x, y, z'
loop_
 _atom_site_type_symbol
 _atom_site_label
 _atom_site_symmetry_multiplicity
 _atom_site_fract_x
 _atom_site_fract_y
 _atom_site_fract_z
 _atom_site_occupancy
  Tb  Tb0  1  0.000000  0.115475  0.414158  1
  Tb  Tb1  1  0.000000  0.884525  0.585842  1
  Tb  Tb2  1  0.000000  0.384525  0.914158  1
  Tb  Tb3  1  0.000000  0.615475  0.085842  1
  Tb  Tb4  1  0.000000  0.243231  0.220225  1
  Tb  Tb5  1  0.000000  0.756769  0.779775  1
  Tb  Tb6  1  0.000000  0.256769  0.720225  1
  Tb  Tb7  1  0.000000  0.743231  0.279775  1
  Y  Y8  1  0.000000  0.000000  0.000000  1
  Y  Y9  1  0.000000  0.500000  0.500000  1
  Tl  Tl10  1  0.500000  0.422599  0.352471  1
  Tl  Tl11  1  0.500000  0.577401  0.647529  1
  Tl  Tl12  1  0.500000  0.077401  0.852471  1
  Tl  Tl13  1  0.500000  0.922599  0.147529  1
  Tl  Tl14  1  0.500000  0.291710  0.065966  1
  Tl  Tl15  1  0.500000  0.708290  0.934034  1
  Tl  Tl16  1  0.500000  0.208290  0.565966  1
  Tl  Tl17  1  0.500000  0.791710  0.434034  1
  Pt  Pt18  1  0.500000  0.026058  0.303348  1
  Pt  Pt19  1  0.500000  0.973942  0.696652  1
  Pt  Pt20  1  0.500000  0.473942  0.803348  1
  Pt  Pt21  1  0.500000  0.526058  0.196652  1
