# generated using pymatgen
data_Ba2Pr2Os6O19
_symmetry_space_group_name_H-M   'P 1'
_cell_length_a   8.12862594
_cell_length_b   7.97565711
_cell_length_c   7.97565858
_cell_angle_alpha   108.50023514
_cell_angle_beta   109.62519379
_cell_angle_gamma   109.51043330
_symmetry_Int_Tables_number   1
_chemical_formula_structural   Ba2Pr2Os6O19
_chemical_formula_sum   'Ba2 Pr2 Os6 O19'
_cell_volume   401.78165277
_cell_formula_units_Z   1
loop_
 _symmetry_equiv_pos_site_id
 _symmetry_equiv_pos_as_xyz
  1  'x, y, z'
loop_
 _atom_site_type_symbol
 _atom_site_label
 _atom_site_symmetry_multiplicity
 _atom_site_fract_x
 _atom_site_fract_y
 _atom_site_fract_z
 _atom_site_occupancy
  Ba  Ba0  1  0.003748  0.000260  0.332647  1
  Ba  Ba1  1  0.996252  0.328899  0.996513  1
  Pr  Pr2  1  0.703662  0.696734  0.700745  1
  Pr  Pr3  1  0.296338  0.997083  0.993072  1
  Os  Os4  1  0.366792  0.502259  0.861679  1
  Os  Os5  1  0.864761  0.363998  0.502543  1
  Os  Os6  1  0.500000  0.137833  0.637833  1
  Os  Os7  1  0.135239  0.637781  0.499238  1
  Os  Os8  1  0.500000  0.864446  0.364446  1
  Os  Os9  1  0.633208  0.494886  0.135467  1
  O  O10  1  0.342136  0.009998  0.329583  1
  O  O11  1  0.334126  0.327517  0.000814  1
  O  O12  1  0.000000  0.669722  0.669722  1
  O  O13  1  0.665874  0.666688  0.993391  1
  O  O14  1  0.000000  0.334510  0.334510  1
  O  O15  1  0.657864  0.987447  0.667863  1
  O  O16  1  0.000000  0.967748  0.967748  1
  O  O17  1  0.372968  0.305820  0.643625  1
  O  O18  1  0.073237  0.349446  0.702335  1
  O  O19  1  0.725719  0.368226  0.664343  1
  O  O20  1  0.367621  0.659369  0.715479  1
  O  O21  1  0.274281  0.938624  0.642507  1
  O  O22  1  0.632379  0.347857  0.291747  1
  O  O23  1  0.291995  0.648374  0.360259  1
  O  O24  1  0.708005  0.068262  0.356378  1
  O  O25  1  0.926763  0.629098  0.276209  1
  O  O26  1  0.649264  0.710653  0.365062  1
  O  O27  1  0.627032  0.270658  0.932855  1
  O  O28  1  0.350736  0.715799  0.061390  1
