# generated using pymatgen
data_CaTb2HoSb6Rh7
_symmetry_space_group_name_H-M   'P 1'
_cell_length_a   7.63106756
_cell_length_b   7.64299048
_cell_length_c   7.60602077
_cell_angle_alpha   109.42468391
_cell_angle_beta   109.37899886
_cell_angle_gamma   109.57516119
_symmetry_Int_Tables_number   1
_chemical_formula_structural   CaTb2HoSb6Rh7
_chemical_formula_sum   'Ca1 Tb2 Ho1 Sb6 Rh7'
_cell_volume   341.64074739
_cell_formula_units_Z   1
loop_
 _symmetry_equiv_pos_site_id
 _symmetry_equiv_pos_as_xyz
  1  'x, y, z'
loop_
 _atom_site_type_symbol
 _atom_site_label
 _atom_site_symmetry_multiplicity
 _atom_site_fract_x
 _atom_site_fract_y
 _atom_site_fract_z
 _atom_site_occupancy
  Ca  Ca0  1  0.000000  0.000000  0.500000  1
  Tb  Tb1  1  0.500000  0.000000  0.000000  1
  Tb  Tb2  1  0.500000  0.500000  0.500000  1
  Ho  Ho3  1  0.000000  0.500000  0.000000  1
  Sb  Sb4  1  0.000000  0.316818  0.319134  1
  Sb  Sb5  1  0.683757  0.000604  0.680846  1
  Sb  Sb6  1  0.683757  0.683154  0.002911  1
  Sb  Sb7  1  0.000000  0.683182  0.680866  1
  Sb  Sb8  1  0.316243  0.999396  0.319154  1
  Sb  Sb9  1  0.316243  0.316846  0.997089  1
  Rh  Rh10  1  0.000000  0.000000  0.000000  1
  Rh  Rh11  1  0.492698  0.746349  0.246349  1
  Rh  Rh12  1  0.747078  0.493442  0.246382  1
  Rh  Rh13  1  0.252922  0.746364  0.499304  1
  Rh  Rh14  1  0.252922  0.506558  0.753618  1
  Rh  Rh15  1  0.507302  0.253651  0.753651  1
  Rh  Rh16  1  0.747078  0.253636  0.500696  1
