# generated using pymatgen
data_Sc4ZnGe(B2Ir5)2
_symmetry_space_group_name_H-M   'P 1'
_cell_length_a   9.38367700
_cell_length_b   9.38367700
_cell_length_c   3.09034500
_cell_angle_alpha   90.00000000
_cell_angle_beta   90.00000000
_cell_angle_gamma   90.00000000
_symmetry_Int_Tables_number   1
_chemical_formula_structural   Sc4ZnGe(B2Ir5)2
_chemical_formula_sum   'Sc4 Zn1 Ge1 B4 Ir10'
_cell_volume   272.11536601
_cell_formula_units_Z   1
loop_
 _symmetry_equiv_pos_site_id
 _symmetry_equiv_pos_as_xyz
  1  'x, y, z'
loop_
 _atom_site_type_symbol
 _atom_site_label
 _atom_site_symmetry_multiplicity
 _atom_site_fract_x
 _atom_site_fract_y
 _atom_site_fract_z
 _atom_site_occupancy
  Sc  Sc0  1  0.673743  0.178026  0.000000  1
  Sc  Sc1  1  0.178026  0.326257  0.000000  1
  Sc  Sc2  1  0.821974  0.673743  0.000000  1
  Sc  Sc3  1  0.326257  0.821974  0.000000  1
  Zn  Zn4  1  0.500000  0.500000  0.000000  1
  Ge  Ge5  1  0.000000  0.000000  0.000000  1
  B  B6  1  0.378064  0.126898  0.000000  1
  B  B7  1  0.873102  0.378064  0.000000  1
  B  B8  1  0.126898  0.621935  0.000000  1
  B  B9  1  0.621935  0.873102  0.000000  1
  Ir  Ir10  1  0.500000  0.000000  0.500001  1
  Ir  Ir11  1  0.215232  0.068848  0.500001  1
  Ir  Ir12  1  0.931152  0.215232  0.500001  1
  Ir  Ir13  1  0.428640  0.282613  0.500001  1
  Ir  Ir14  1  0.717386  0.428640  0.500001  1
  Ir  Ir15  1  0.000000  0.500000  0.500001  1
  Ir  Ir16  1  0.282613  0.571359  0.500001  1
  Ir  Ir17  1  0.571359  0.717386  0.500001  1
  Ir  Ir18  1  0.068848  0.784768  0.500001  1
  Ir  Ir19  1  0.784768  0.931152  0.500001  1
