# generated using pymatgen
data_Cs6ScInSb4
_symmetry_space_group_name_H-M   'P 1'
_cell_length_a   10.37203917
_cell_length_b   10.37203912
_cell_length_c   10.37203885
_cell_angle_alpha   126.83759212
_cell_angle_beta   70.19658279
_cell_angle_gamma   137.66715839
_symmetry_Int_Tables_number   1
_chemical_formula_structural   Cs6ScInSb4
_chemical_formula_sum   'Cs6 Sc1 In1 Sb4'
_cell_volume   590.00438946
_cell_formula_units_Z   1
loop_
 _symmetry_equiv_pos_site_id
 _symmetry_equiv_pos_as_xyz
  1  'x, y, z'
loop_
 _atom_site_type_symbol
 _atom_site_label
 _atom_site_symmetry_multiplicity
 _atom_site_fract_x
 _atom_site_fract_y
 _atom_site_fract_z
 _atom_site_occupancy
  Cs  Cs0  1  0.250000  0.250000  0.000000  1
  Cs  Cs1  1  0.750000  0.750000  0.000000  1
  Cs  Cs2  1  0.826650  0.301146  0.120629  1
  Cs  Cs3  1  0.673349  0.793980  0.474496  1
  Cs  Cs4  1  0.319483  0.198854  0.525504  1
  Cs  Cs5  1  0.180516  0.706021  0.879371  1
  Sc  Sc6  1  0.750000  0.250000  0.500000  1
  In  In7  1  0.250000  0.750000  0.500000  1
  Sb  Sb8  1  0.411147  0.823735  0.227492  1
  Sb  Sb9  1  0.088853  0.316345  0.412588  1
  Sb  Sb10  1  0.903757  0.676265  0.587413  1
  Sb  Sb11  1  0.596243  0.183655  0.772508  1
