# generated using pymatgen
data_YTm3P3S
_symmetry_space_group_name_H-M   'P 1'
_cell_length_a   6.80639945
_cell_length_b   6.80639880
_cell_length_c   6.82249100
_cell_angle_alpha   80.37419529
_cell_angle_beta   80.37419622
_cell_angle_gamma   33.76012228
_symmetry_Int_Tables_number   1
_chemical_formula_structural   YTm3P3S
_chemical_formula_sum   'Y1 Tm3 P3 S1'
_cell_volume   172.94090310
_cell_formula_units_Z   1
loop_
 _symmetry_equiv_pos_site_id
 _symmetry_equiv_pos_as_xyz
  1  'x, y, z'
loop_
 _atom_site_type_symbol
 _atom_site_label
 _atom_site_symmetry_multiplicity
 _atom_site_fract_x
 _atom_site_fract_y
 _atom_site_fract_z
 _atom_site_occupancy
  Y  Y0  1  0.002982  0.002982  0.003965  1
  Tm  Tm1  1  0.249889  0.249889  0.254351  1
  Tm  Tm2  1  0.500964  0.500964  0.495554  1
  Tm  Tm3  1  0.746192  0.746192  0.746463  1
  P  P4  1  0.628040  0.628040  0.124626  1
  P  P5  1  0.874671  0.874671  0.377861  1
  P  P6  1  0.124396  0.124396  0.624837  1
  S  S7  1  0.372866  0.372866  0.872343  1
