# generated using pymatgen
data_Pr5Nd11(AgRh)4
_symmetry_space_group_name_H-M   'P 1'
_cell_length_a   9.90919643
_cell_length_b   9.91301980
_cell_length_c   9.91297700
_cell_angle_alpha   60.00195478
_cell_angle_beta   60.01293311
_cell_angle_gamma   60.01326712
_symmetry_Int_Tables_number   1
_chemical_formula_structural   Pr5Nd11(AgRh)4
_chemical_formula_sum   'Pr5 Nd11 Ag4 Rh4'
_cell_volume   688.69335911
_cell_formula_units_Z   1
loop_
 _symmetry_equiv_pos_site_id
 _symmetry_equiv_pos_as_xyz
  1  'x, y, z'
loop_
 _atom_site_type_symbol
 _atom_site_label
 _atom_site_symmetry_multiplicity
 _atom_site_fract_x
 _atom_site_fract_y
 _atom_site_fract_z
 _atom_site_occupancy
  Pr  Pr0  1  0.561751  0.938176  0.938266  1
  Pr  Pr1  1  0.563098  0.937247  0.562473  1
  Pr  Pr2  1  0.937217  0.562373  0.937292  1
  Pr  Pr3  1  0.563094  0.562376  0.937284  1
  Pr  Pr4  1  0.937175  0.937298  0.562388  1
  Nd  Nd5  1  0.349966  0.350956  0.350878  1
  Nd  Nd6  1  0.350665  0.351658  0.947000  1
  Nd  Nd7  1  0.350607  0.947131  0.351684  1
  Nd  Nd8  1  0.948259  0.350937  0.350892  1
  Nd  Nd9  1  0.811623  0.188322  0.188408  1
  Nd  Nd10  1  0.188902  0.811126  0.811132  1
  Nd  Nd11  1  0.189302  0.810187  0.188150  1
  Nd  Nd12  1  0.812254  0.188270  0.810157  1
  Nd  Nd13  1  0.189356  0.188212  0.810158  1
  Nd  Nd14  1  0.812321  0.810175  0.188192  1
  Nd  Nd15  1  0.936998  0.562969  0.563035  1
  Ag  Ag16  1  0.581452  0.581063  0.580997  1
  Ag  Ag17  1  0.580102  0.580477  0.259389  1
  Ag  Ag18  1  0.580113  0.259314  0.580468  1
  Ag  Ag19  1  0.256513  0.581047  0.580973  1
  Rh  Rh20  1  0.141743  0.142547  0.142608  1
  Rh  Rh21  1  0.142155  0.143749  0.571907  1
  Rh  Rh22  1  0.142251  0.571810  0.143690  1
  Rh  Rh23  1  0.573081  0.142579  0.142580  1
