# generated using pymatgen
data_Pr3Er(WN3)4
_symmetry_space_group_name_H-M   'P 1'
_cell_length_a   7.37292173
_cell_length_b   7.37292146
_cell_length_c   6.31389647
_cell_angle_alpha   75.73690765
_cell_angle_beta   75.73690770
_cell_angle_gamma   83.83070894
_symmetry_Int_Tables_number   1
_chemical_formula_structural   Pr3Er(WN3)4
_chemical_formula_sum   'Pr3 Er1 W4 N12'
_cell_volume   321.98958381
_cell_formula_units_Z   1
loop_
 _symmetry_equiv_pos_site_id
 _symmetry_equiv_pos_as_xyz
  1  'x, y, z'
loop_
 _atom_site_type_symbol
 _atom_site_label
 _atom_site_symmetry_multiplicity
 _atom_site_fract_x
 _atom_site_fract_y
 _atom_site_fract_z
 _atom_site_occupancy
  Pr  Pr0  1  0.695649  0.304351  0.750000  1
  Pr  Pr1  1  0.088112  0.911888  0.750000  1
  Pr  Pr2  1  0.305759  0.694241  0.250000  1
  Er  Er3  1  0.907937  0.092063  0.250000  1
  W  W4  1  0.381395  0.200121  0.245544  1
  W  W5  1  0.621378  0.799744  0.747863  1
  W  W6  1  0.799879  0.618605  0.254456  1
  W  W7  1  0.200256  0.378622  0.752137  1
  N  N8  1  0.620068  0.111733  0.162013  1
  N  N9  1  0.361554  0.335405  0.479955  1
  N  N10  1  0.000241  0.221420  0.863433  1
  N  N11  1  0.386536  0.887642  0.846771  1
  N  N12  1  0.778580  0.999759  0.636567  1
  N  N13  1  0.112358  0.613464  0.653229  1
  N  N14  1  0.888267  0.379932  0.337987  1
  N  N15  1  0.629823  0.651869  0.526946  1
  N  N16  1  0.664595  0.638446  0.020045  1
  N  N17  1  0.348131  0.370177  0.973054  1
  N  N18  1  0.992955  0.783475  0.161080  1
  N  N19  1  0.216525  0.007045  0.338920  1
