# generated using pymatgen
data_TaTi(VP)2
_symmetry_space_group_name_H-M   'P 1'
_cell_length_a   3.38693700
_cell_length_b   6.37700259
_cell_length_c   7.68074989
_cell_angle_alpha   90.53030663
_cell_angle_beta   90.00000000
_cell_angle_gamma   90.00000000
_symmetry_Int_Tables_number   1
_chemical_formula_structural   TaTi(VP)2
_chemical_formula_sum   'Ta2 Ti2 V4 P4'
_cell_volume   165.88561695
_cell_formula_units_Z   2
loop_
 _symmetry_equiv_pos_site_id
 _symmetry_equiv_pos_as_xyz
  1  'x, y, z'
loop_
 _atom_site_type_symbol
 _atom_site_label
 _atom_site_symmetry_multiplicity
 _atom_site_fract_x
 _atom_site_fract_y
 _atom_site_fract_z
 _atom_site_occupancy
  Ta  Ta0  1  0.250000  0.539244  0.168346  1
  Ta  Ta1  1  0.750000  0.460756  0.831654  1
  Ti  Ti2  1  0.750000  0.959938  0.668472  1
  Ti  Ti3  1  0.250000  0.040062  0.331528  1
  V  V4  1  0.250000  0.632744  0.557608  1
  V  V5  1  0.750000  0.367256  0.442392  1
  V  V6  1  0.750000  0.864295  0.058528  1
  V  V7  1  0.250000  0.135705  0.941472  1
  P  P8  1  0.250000  0.762495  0.856157  1
  P  P9  1  0.750000  0.237505  0.143843  1
  P  P10  1  0.750000  0.749970  0.362013  1
  P  P11  1  0.250000  0.250030  0.637987  1
