# generated using pymatgen
data_MgNbPdPt5
_symmetry_space_group_name_H-M   'P 1'
_cell_length_a   5.62726446
_cell_length_b   5.62901152
_cell_length_c   5.62726352
_cell_angle_alpha   59.98974217
_cell_angle_beta   59.95089253
_cell_angle_gamma   59.98973745
_symmetry_Int_Tables_number   1
_chemical_formula_structural   MgNbPdPt5
_chemical_formula_sum   'Mg1 Nb1 Pd1 Pt5'
_cell_volume   125.97459206
_cell_formula_units_Z   1
loop_
 _symmetry_equiv_pos_site_id
 _symmetry_equiv_pos_as_xyz
  1  'x, y, z'
loop_
 _atom_site_type_symbol
 _atom_site_label
 _atom_site_symmetry_multiplicity
 _atom_site_fract_x
 _atom_site_fract_y
 _atom_site_fract_z
 _atom_site_occupancy
  Mg  Mg0  1  0.500000  0.500000  0.500000  1
  Nb  Nb1  1  0.000000  0.000000  0.000000  1
  Pd  Pd2  1  0.000000  0.500000  0.000000  1
  Pt  Pt3  1  0.000000  0.000000  0.500000  1
  Pt  Pt4  1  0.500000  0.000000  0.500000  1
  Pt  Pt5  1  0.000000  0.500000  0.500000  1
  Pt  Pt6  1  0.500000  0.500000  0.000000  1
  Pt  Pt7  1  0.500000  0.000000  0.000000  1
