# generated using pymatgen
data_Ta2TiZnPt12
_symmetry_space_group_name_H-M   'P 1'
_cell_length_a   5.63325000
_cell_length_b   5.63325034
_cell_length_c   9.12232400
_cell_angle_alpha   90.00000000
_cell_angle_beta   90.00000000
_cell_angle_gamma   119.99999800
_symmetry_Int_Tables_number   1
_chemical_formula_structural   Ta2TiZnPt12
_chemical_formula_sum   'Ta2 Ti1 Zn1 Pt12'
_cell_volume   250.69992882
_cell_formula_units_Z   1
loop_
 _symmetry_equiv_pos_site_id
 _symmetry_equiv_pos_as_xyz
  1  'x, y, z'
loop_
 _atom_site_type_symbol
 _atom_site_label
 _atom_site_symmetry_multiplicity
 _atom_site_fract_x
 _atom_site_fract_y
 _atom_site_fract_z
 _atom_site_occupancy
  Ta  Ta0  1  0.000000  0.000000  0.494342  1
  Ta  Ta1  1  0.666667  0.333333  0.752992  1
  Ti  Ti2  1  0.000000  0.000000  0.004635  1
  Zn  Zn3  1  0.333333  0.666667  0.248689  1
  Pt  Pt4  1  0.501507  0.498493  0.502587  1
  Pt  Pt5  1  0.501507  0.003015  0.502587  1
  Pt  Pt6  1  0.996985  0.498493  0.502587  1
  Pt  Pt7  1  0.501429  0.498571  0.997610  1
  Pt  Pt8  1  0.501429  0.002859  0.997610  1
  Pt  Pt9  1  0.997141  0.498571  0.997610  1
  Pt  Pt10  1  0.833001  0.666003  0.249579  1
  Pt  Pt11  1  0.333997  0.166999  0.249579  1
  Pt  Pt12  1  0.833001  0.166999  0.249579  1
  Pt  Pt13  1  0.166439  0.332876  0.750005  1
  Pt  Pt14  1  0.667124  0.833561  0.750005  1
  Pt  Pt15  1  0.166439  0.833561  0.750005  1
