# generated using pymatgen
data_Er4BeCo12SiB6
_symmetry_space_group_name_H-M   'P 1'
_cell_length_a   5.03077100
_cell_length_b   5.03077119
_cell_length_c   12.34027500
_cell_angle_alpha   90.00000000
_cell_angle_beta   90.00000000
_cell_angle_gamma   119.99999214
_symmetry_Int_Tables_number   1
_chemical_formula_structural   Er4BeCo12SiB6
_chemical_formula_sum   'Er4 Be1 Co12 Si1 B6'
_cell_volume   270.47343609
_cell_formula_units_Z   1
loop_
 _symmetry_equiv_pos_site_id
 _symmetry_equiv_pos_as_xyz
  1  'x, y, z'
loop_
 _atom_site_type_symbol
 _atom_site_label
 _atom_site_symmetry_multiplicity
 _atom_site_fract_x
 _atom_site_fract_y
 _atom_site_fract_z
 _atom_site_occupancy
  Er  Er0  1  0.000000  0.000000  0.000000  1
  Er  Er1  1  0.000000  0.000000  0.500000  1
  Er  Er2  1  0.000000  0.000000  0.744300  1
  Er  Er3  1  0.000000  0.000000  0.255700  1
  Be  Be4  1  0.333333  0.666667  0.000000  1
  Co  Co5  1  0.498984  0.501016  0.853708  1
  Co  Co6  1  0.498984  0.997968  0.853708  1
  Co  Co7  1  0.002032  0.501016  0.853708  1
  Co  Co8  1  0.498984  0.501016  0.146292  1
  Co  Co9  1  0.498984  0.997968  0.146292  1
  Co  Co10  1  0.002032  0.501016  0.146292  1
  Co  Co11  1  0.500164  0.499836  0.619629  1
  Co  Co12  1  0.500164  0.000327  0.619629  1
  Co  Co13  1  0.999673  0.499836  0.619629  1
  Co  Co14  1  0.500164  0.499836  0.380371  1
  Co  Co15  1  0.500164  0.000327  0.380371  1
  Co  Co16  1  0.999673  0.499836  0.380371  1
  Si  Si17  1  0.666667  0.333333  0.000000  1
  B  B18  1  0.666667  0.333333  0.500000  1
  B  B19  1  0.333333  0.666667  0.500000  1
  B  B20  1  0.666667  0.333333  0.739398  1
  B  B21  1  0.333333  0.666667  0.738858  1
  B  B22  1  0.333333  0.666667  0.261142  1
  B  B23  1  0.666667  0.333333  0.260602  1
