# generated using pymatgen
data_Tb2Ho(SiIr)2
_symmetry_space_group_name_H-M   'P 1'
_cell_length_a   5.59678976
_cell_length_b   5.59679020
_cell_length_c   13.25114800
_cell_angle_alpha   90.00000000
_cell_angle_beta   90.00000000
_cell_angle_gamma   137.10251264
_symmetry_Int_Tables_number   1
_chemical_formula_structural   Tb2Ho(SiIr)2
_chemical_formula_sum   'Tb4 Ho2 Si4 Ir4'
_cell_volume   282.54009954
_cell_formula_units_Z   2
loop_
 _symmetry_equiv_pos_site_id
 _symmetry_equiv_pos_as_xyz
  1  'x, y, z'
loop_
 _atom_site_type_symbol
 _atom_site_label
 _atom_site_symmetry_multiplicity
 _atom_site_fract_x
 _atom_site_fract_y
 _atom_site_fract_z
 _atom_site_occupancy
  Tb  Tb0  1  0.774305  0.225695  0.604372  1
  Tb  Tb1  1  0.225695  0.774305  0.395628  1
  Tb  Tb2  1  0.774305  0.225695  0.895628  1
  Tb  Tb3  1  0.225695  0.774305  0.104372  1
  Ho  Ho4  1  0.517233  0.482767  0.250000  1
  Ho  Ho5  1  0.482767  0.517233  0.750000  1
  Si  Si6  1  0.061236  0.938764  0.590165  1
  Si  Si7  1  0.061236  0.938764  0.909835  1
  Si  Si8  1  0.938764  0.061236  0.409835  1
  Si  Si9  1  0.938764  0.061236  0.090165  1
  Ir  Ir10  1  0.812749  0.187251  0.250000  1
  Ir  Ir11  1  0.187251  0.812749  0.750000  1
  Ir  Ir12  1  0.500000  0.500000  0.000000  1
  Ir  Ir13  1  0.500000  0.500000  0.500000  1
