# generated using pymatgen
data_Tb3Sm2Y3C10
_symmetry_space_group_name_H-M   'P 1'
_cell_length_a   3.73585500
_cell_length_b   6.67228520
_cell_length_c   12.02701836
_cell_angle_alpha   90.15732978
_cell_angle_beta   90.00000000
_cell_angle_gamma   90.00000000
_symmetry_Int_Tables_number   1
_chemical_formula_structural   Tb3Sm2Y3C10
_chemical_formula_sum   'Tb3 Sm2 Y3 C10'
_cell_volume   299.79262827
_cell_formula_units_Z   1
loop_
 _symmetry_equiv_pos_site_id
 _symmetry_equiv_pos_as_xyz
  1  'x, y, z'
loop_
 _atom_site_type_symbol
 _atom_site_label
 _atom_site_symmetry_multiplicity
 _atom_site_fract_x
 _atom_site_fract_y
 _atom_site_fract_z
 _atom_site_occupancy
  Tb  Tb0  1  0.500000  0.891844  0.198022  1
  Tb  Tb1  1  0.500000  0.609652  0.695150  1
  Tb  Tb2  1  0.500000  0.394707  0.302582  1
  Sm  Sm3  1  0.000000  0.245197  0.543780  1
  Sm  Sm4  1  0.500000  0.108536  0.804447  1
  Y  Y5  1  0.000000  0.733862  0.456259  1
  Y  Y6  1  0.000000  0.766074  0.959040  1
  Y  Y7  1  0.000000  0.252487  0.046535  1
  C  C8  1  0.500000  0.487226  0.497750  1
  C  C9  1  0.500000  0.015560  0.001972  1
  C  C10  1  0.000000  0.363122  0.741175  1
  C  C11  1  0.000000  0.633070  0.261740  1
  C  C12  1  0.000000  0.862685  0.762982  1
  C  C13  1  0.000000  0.144869  0.239752  1
  C  C14  1  0.000000  0.432495  0.844560  1
  C  C15  1  0.000000  0.618344  0.151057  1
  C  C16  1  0.000000  0.064722  0.340541  1
  C  C17  1  0.000000  0.875551  0.652656  1
