# generated using pymatgen
data_Ho4Lu4B24IrRh3
_symmetry_space_group_name_H-M   'P 1'
_cell_length_a   3.61306900
_cell_length_b   9.10261078
_cell_length_c   11.44467802
_cell_angle_alpha   90.04916219
_cell_angle_beta   90.00000000
_cell_angle_gamma   90.00000000
_symmetry_Int_Tables_number   1
_chemical_formula_structural   Ho4Lu4B24IrRh3
_chemical_formula_sum   'Ho4 Lu4 B24 Ir1 Rh3'
_cell_volume   376.39656154
_cell_formula_units_Z   1
loop_
 _symmetry_equiv_pos_site_id
 _symmetry_equiv_pos_as_xyz
  1  'x, y, z'
loop_
 _atom_site_type_symbol
 _atom_site_label
 _atom_site_symmetry_multiplicity
 _atom_site_fract_x
 _atom_site_fract_y
 _atom_site_fract_z
 _atom_site_occupancy
  Ho  Ho0  1  0.500000  0.321900  0.414399  1
  Ho  Ho1  1  0.500000  0.678168  0.586261  1
  Ho  Ho2  1  0.500000  0.179063  0.912972  1
  Ho  Ho3  1  0.500000  0.820761  0.086189  1
  Lu  Lu4  1  0.500000  0.445010  0.126366  1
  Lu  Lu5  1  0.500000  0.556031  0.872998  1
  Lu  Lu6  1  0.500000  0.055909  0.626777  1
  Lu  Lu7  1  0.500000  0.943433  0.374137  1
  B  B8  1  0.000000  0.106213  0.471248  1
  B  B9  1  0.000000  0.893267  0.529022  1
  B  B10  1  0.000000  0.394116  0.971090  1
  B  B11  1  0.000000  0.606189  0.028617  1
  B  B12  1  0.000000  0.131490  0.316887  1
  B  B13  1  0.000000  0.868143  0.683394  1
  B  B14  1  0.000000  0.368132  0.816557  1
  B  B15  1  0.000000  0.632073  0.182981  1
  B  B16  1  0.000000  0.054362  0.065674  1
  B  B17  1  0.000000  0.945874  0.934451  1
  B  B18  1  0.000000  0.445998  0.565467  1
  B  B19  1  0.000000  0.553591  0.434521  1
  B  B20  1  0.000000  0.482107  0.286507  1
  B  B21  1  0.000000  0.517909  0.713436  1
  B  B22  1  0.000000  0.018063  0.786450  1
  B  B23  1  0.000000  0.982169  0.213914  1
  B  B24  1  0.000000  0.250920  0.079478  1
  B  B25  1  0.000000  0.749296  0.920200  1
  B  B26  1  0.000000  0.249511  0.579809  1
  B  B27  1  0.000000  0.750210  0.420292  1
  B  B28  1  0.000000  0.294583  0.235531  1
  B  B29  1  0.000000  0.705440  0.764102  1
  B  B30  1  0.000000  0.205318  0.736002  1
  B  B31  1  0.000000  0.794440  0.263949  1
  Ir  Ir32  1  0.500000  0.140091  0.179862  1
  Rh  Rh33  1  0.500000  0.860549  0.820716  1
  Rh  Rh34  1  0.500000  0.359721  0.680255  1
  Rh  Rh35  1  0.500000  0.639949  0.319489  1
