# generated using pymatgen
data_Yb(YPt)2
_symmetry_space_group_name_H-M   'P 1'
_cell_length_a   7.50833086
_cell_length_b   7.50833002
_cell_length_c   7.50833131
_cell_angle_alpha   70.84247188
_cell_angle_beta   70.84247317
_cell_angle_gamma   70.84246229
_symmetry_Int_Tables_number   1
_chemical_formula_structural   Yb(YPt)2
_chemical_formula_sum   'Yb3 Y6 Pt6'
_cell_volume   365.98698585
_cell_formula_units_Z   3
loop_
 _symmetry_equiv_pos_site_id
 _symmetry_equiv_pos_as_xyz
  1  'x, y, z'
loop_
 _atom_site_type_symbol
 _atom_site_label
 _atom_site_symmetry_multiplicity
 _atom_site_fract_x
 _atom_site_fract_y
 _atom_site_fract_z
 _atom_site_occupancy
  Yb  Yb0  1  0.000000  0.000000  0.000000  1
  Yb  Yb1  1  0.802910  0.802910  0.802910  1
  Yb  Yb2  1  0.197090  0.197090  0.197090  1
  Y  Y3  1  0.333424  0.600497  0.843928  1
  Y  Y4  1  0.843928  0.333424  0.600497  1
  Y  Y5  1  0.600497  0.843928  0.333424  1
  Y  Y6  1  0.666576  0.399503  0.156072  1
  Y  Y7  1  0.156072  0.666576  0.399503  1
  Y  Y8  1  0.399503  0.156072  0.666576  1
  Pt  Pt9  1  0.175650  0.951142  0.583002  1
  Pt  Pt10  1  0.583002  0.175650  0.951142  1
  Pt  Pt11  1  0.951142  0.583002  0.175650  1
  Pt  Pt12  1  0.824350  0.048858  0.416998  1
  Pt  Pt13  1  0.416998  0.824350  0.048858  1
  Pt  Pt14  1  0.048858  0.416998  0.824350  1
