# generated using pymatgen
data_Ti8MnCo3Tc4
_symmetry_space_group_name_H-M   'P 1'
_cell_length_a   6.06845300
_cell_length_b   4.31391100
_cell_length_c   8.64126000
_cell_angle_alpha   90.00000000
_cell_angle_beta   90.00009362
_cell_angle_gamma   90.00000000
_symmetry_Int_Tables_number   1
_chemical_formula_structural   Ti8MnCo3Tc4
_chemical_formula_sum   'Ti8 Mn1 Co3 Tc4'
_cell_volume   226.21752478
_cell_formula_units_Z   1
loop_
 _symmetry_equiv_pos_site_id
 _symmetry_equiv_pos_as_xyz
  1  'x, y, z'
loop_
 _atom_site_type_symbol
 _atom_site_label
 _atom_site_symmetry_multiplicity
 _atom_site_fract_x
 _atom_site_fract_y
 _atom_site_fract_z
 _atom_site_occupancy
  Ti  Ti0  1  0.503368  0.749999  0.125013  1
  Ti  Ti1  1  0.996597  0.749999  0.125017  1
  Ti  Ti2  1  0.501468  0.250000  0.373032  1
  Ti  Ti3  1  0.998511  0.250000  0.373033  1
  Ti  Ti4  1  0.000149  0.749999  0.624984  1
  Ti  Ti5  1  0.499846  0.749999  0.624989  1
  Ti  Ti6  1  0.998502  0.250000  0.876971  1
  Ti  Ti7  1  0.501497  0.250000  0.876974  1
  Mn  Mn8  1  0.750109  0.250000  0.124979  1
  Co  Co9  1  0.249988  0.749999  0.376131  1
  Co  Co10  1  0.750002  0.250000  0.624998  1
  Co  Co11  1  0.249999  0.749999  0.873866  1
  Tc  Tc12  1  0.249972  0.250000  0.125006  1
  Tc  Tc13  1  0.749992  0.749999  0.377457  1
  Tc  Tc14  1  0.249997  0.250000  0.624992  1
  Tc  Tc15  1  0.750003  0.749999  0.872555  1
