# generated using pymatgen
data_TbTm(AlFe2)2
_symmetry_space_group_name_H-M   'P 1'
_cell_length_a   4.98777300
_cell_length_b   3.94979300
_cell_length_c   6.86693100
_cell_angle_alpha   90.00000000
_cell_angle_beta   90.00000000
_cell_angle_gamma   90.00000000
_symmetry_Int_Tables_number   1
_chemical_formula_structural   TbTm(AlFe2)2
_chemical_formula_sum   'Tb1 Tm1 Al2 Fe4'
_cell_volume   135.28314759
_cell_formula_units_Z   1
loop_
 _symmetry_equiv_pos_site_id
 _symmetry_equiv_pos_as_xyz
  1  'x, y, z'
loop_
 _atom_site_type_symbol
 _atom_site_label
 _atom_site_symmetry_multiplicity
 _atom_site_fract_x
 _atom_site_fract_y
 _atom_site_fract_z
 _atom_site_occupancy
  Tb  Tb0  1  0.750001  0.000000  0.187958  1
  Tm  Tm1  1  0.250000  0.000000  0.806636  1
  Al  Al2  1  0.250000  0.500000  0.165703  1
  Al  Al3  1  0.750001  0.500000  0.832910  1
  Fe  Fe4  1  0.250000  0.000000  0.404898  1
  Fe  Fe5  1  0.001263  0.500000  0.501479  1
  Fe  Fe6  1  0.498736  0.500000  0.501479  1
  Fe  Fe7  1  0.750001  0.000000  0.598939  1
