# generated using pymatgen
data_La3In3Cu2Ni
_symmetry_space_group_name_H-M   'P 1'
_cell_length_a   7.72044200
_cell_length_b   7.72044172
_cell_length_c   4.11672000
_cell_angle_alpha   90.00000000
_cell_angle_beta   90.00000000
_cell_angle_gamma   120.00000977
_symmetry_Int_Tables_number   1
_chemical_formula_structural   La3In3Cu2Ni
_chemical_formula_sum   'La3 In3 Cu2 Ni1'
_cell_volume   212.50357069
_cell_formula_units_Z   1
loop_
 _symmetry_equiv_pos_site_id
 _symmetry_equiv_pos_as_xyz
  1  'x, y, z'
loop_
 _atom_site_type_symbol
 _atom_site_label
 _atom_site_symmetry_multiplicity
 _atom_site_fract_x
 _atom_site_fract_y
 _atom_site_fract_z
 _atom_site_occupancy
  La  La0  1  0.991069  0.413409  0.500000  1
  La  La1  1  0.586591  0.577660  0.500000  1
  La  La2  1  0.422340  0.008931  0.500000  1
  In  In3  1  0.998917  0.753919  0.000000  1
  In  In4  1  0.246081  0.244998  0.000000  1
  In  In5  1  0.755002  0.001083  0.000000  1
  Cu  Cu6  1  0.333333  0.666667  0.000000  1
  Cu  Cu7  1  0.000000  0.000000  0.500000  1
  Ni  Ni8  1  0.666667  0.333333  0.000000  1
