# generated using pymatgen
data_Er10Tl7InRu3Pt
_symmetry_space_group_name_H-M   'P 1'
_cell_length_a   3.54669400
_cell_length_b   8.13532162
_cell_length_c   18.48343450
_cell_angle_alpha   89.82093838
_cell_angle_beta   90.00000000
_cell_angle_gamma   90.00000000
_symmetry_Int_Tables_number   1
_chemical_formula_structural   Er10Tl7InRu3Pt
_chemical_formula_sum   'Er10 Tl7 In1 Ru3 Pt1'
_cell_volume   533.30910615
_cell_formula_units_Z   1
loop_
 _symmetry_equiv_pos_site_id
 _symmetry_equiv_pos_as_xyz
  1  'x, y, z'
loop_
 _atom_site_type_symbol
 _atom_site_label
 _atom_site_symmetry_multiplicity
 _atom_site_fract_x
 _atom_site_fract_y
 _atom_site_fract_z
 _atom_site_occupancy
  Er  Er0  1  0.000000  0.116291  0.412510  1
  Er  Er1  1  0.000000  0.882547  0.589669  1
  Er  Er2  1  0.000000  0.382181  0.908750  1
  Er  Er3  1  0.000000  0.616418  0.088180  1
  Er  Er4  1  0.000000  0.239618  0.223164  1
  Er  Er5  1  0.000000  0.757154  0.779092  1
  Er  Er6  1  0.000000  0.255617  0.720627  1
  Er  Er7  1  0.000000  0.750815  0.278982  1
  Er  Er8  1  0.000000  0.997225  0.999539  1
  Er  Er9  1  0.000000  0.501970  0.499735  1
  Tl  Tl10  1  0.500000  0.425353  0.354323  1
  Tl  Tl11  1  0.500000  0.571643  0.649464  1
  Tl  Tl12  1  0.500000  0.071673  0.849511  1
  Tl  Tl13  1  0.500000  0.931868  0.149169  1
  Tl  Tl14  1  0.500000  0.290958  0.062585  1
  Tl  Tl15  1  0.500000  0.702561  0.933948  1
  Tl  Tl16  1  0.500000  0.204665  0.566198  1
  In  In17  1  0.500000  0.795788  0.431921  1
  Ru  Ru18  1  0.500000  0.018027  0.306056  1
  Ru  Ru19  1  0.500000  0.979823  0.696059  1
  Ru  Ru20  1  0.500000  0.482221  0.803056  1
  Pt  Pt21  1  0.500000  0.525586  0.197462  1
