# generated using pymatgen
data_Ir6Pt(RhS6)2
_symmetry_space_group_name_H-M   'P 1'
_cell_length_a   7.59606951
_cell_length_b   7.60003236
_cell_length_c   6.34133996
_cell_angle_alpha   77.04027772
_cell_angle_beta   76.97958449
_cell_angle_gamma   91.78312784
_symmetry_Int_Tables_number   1
_chemical_formula_structural   Ir6Pt(RhS6)2
_chemical_formula_sum   'Ir6 Pt1 Rh2 S12'
_cell_volume   346.30308044
_cell_formula_units_Z   1
loop_
 _symmetry_equiv_pos_site_id
 _symmetry_equiv_pos_as_xyz
  1  'x, y, z'
loop_
 _atom_site_type_symbol
 _atom_site_label
 _atom_site_symmetry_multiplicity
 _atom_site_fract_x
 _atom_site_fract_y
 _atom_site_fract_z
 _atom_site_occupancy
  Ir  Ir0  1  0.163094  0.838786  0.999605  1
  Ir  Ir1  1  0.838331  0.161500  0.000005  1
  Ir  Ir2  1  0.001011  0.002254  0.498980  1
  Ir  Ir3  1  0.347929  0.348093  0.946168  1
  Ir  Ir4  1  0.650992  0.649250  0.054835  1
  Ir  Ir5  1  0.508658  0.219003  0.548246  1
  Pt  Pt6  1  0.775099  0.489758  0.453299  1
  Rh  Rh7  1  0.220010  0.510090  0.549012  1
  Rh  Rh8  1  0.488857  0.779185  0.452185  1
  S  S9  1  0.857079  0.438770  0.096451  1
  S  S10  1  0.560337  0.143642  0.897652  1
  S  S11  1  0.146250  0.562212  0.896558  1
  S  S12  1  0.438624  0.853671  0.103729  1
  S  S13  1  0.115493  0.115461  0.109957  1
  S  S14  1  0.885534  0.884872  0.889318  1
  S  S15  1  0.035210  0.719494  0.387048  1
  S  S16  1  0.287191  0.970068  0.611161  1
  S  S17  1  0.971133  0.282523  0.613595  1
  S  S18  1  0.578944  0.585326  0.737727  1
  S  S19  1  0.414567  0.414241  0.267077  1
  S  S20  1  0.715655  0.031798  0.387391  1
