# generated using pymatgen
data_Ce2PrUF15
_symmetry_space_group_name_H-M   'P 1'
_cell_length_a   7.92789835
_cell_length_b   7.92789733
_cell_length_c   8.04438384
_cell_angle_alpha   113.23197080
_cell_angle_beta   113.23197222
_cell_angle_gamma   112.20920797
_symmetry_Int_Tables_number   1
_chemical_formula_structural   Ce2PrUF15
_chemical_formula_sum   'Ce2 Pr1 U1 F15'
_cell_volume   330.89275804
_cell_formula_units_Z   1
loop_
 _symmetry_equiv_pos_site_id
 _symmetry_equiv_pos_as_xyz
  1  'x, y, z'
loop_
 _atom_site_type_symbol
 _atom_site_label
 _atom_site_symmetry_multiplicity
 _atom_site_fract_x
 _atom_site_fract_y
 _atom_site_fract_z
 _atom_site_occupancy
  Ce  Ce0  1  0.850799  0.280711  0.857803  1
  Ce  Ce1  1  0.280711  0.850799  0.857803  1
  Pr  Pr2  1  0.493583  0.493583  0.497814  1
  U  U3  1  0.858888  0.858888  0.289567  1
  F  F4  1  0.615344  0.932315  0.153907  1
  F  F5  1  0.933170  0.135157  0.589698  1
  F  F6  1  0.139676  0.597043  0.929096  1
  F  F7  1  0.932315  0.615344  0.153907  1
  F  F8  1  0.599711  0.599711  0.250485  1
  F  F9  1  0.270888  0.595200  0.603121  1
  F  F10  1  0.595200  0.270888  0.603121  1
  F  F11  1  0.131468  0.131468  0.349787  1
  F  F12  1  0.368184  0.152771  0.152838  1
  F  F13  1  0.152771  0.368184  0.152838  1
  F  F14  1  0.671822  0.671822  0.908255  1
  F  F15  1  0.891460  0.668978  0.659167  1
  F  F16  1  0.668978  0.891460  0.659167  1
  F  F17  1  0.135157  0.933170  0.589698  1
  F  F18  1  0.597043  0.139676  0.929096  1
