# generated using pymatgen
data_Rb8Y2O7
_symmetry_space_group_name_H-M   'P 1'
_cell_length_a   19.04299900
_cell_length_b   7.26438387
_cell_length_c   7.32068632
_cell_angle_alpha   60.86737325
_cell_angle_beta   90.00000000
_cell_angle_gamma   90.00000000
_symmetry_Int_Tables_number   1
_chemical_formula_structural   Rb8Y2O7
_chemical_formula_sum   'Rb16 Y4 O14'
_cell_volume   884.59895458
_cell_formula_units_Z   2
loop_
 _symmetry_equiv_pos_site_id
 _symmetry_equiv_pos_as_xyz
  1  'x, y, z'
loop_
 _atom_site_type_symbol
 _atom_site_label
 _atom_site_symmetry_multiplicity
 _atom_site_fract_x
 _atom_site_fract_y
 _atom_site_fract_z
 _atom_site_occupancy
  Rb  Rb0  1  0.503571  0.024763  0.240533  1
  Rb  Rb1  1  0.003571  0.475237  0.759467  1
  Rb  Rb2  1  0.496429  0.975237  0.759467  1
  Rb  Rb3  1  0.996429  0.524763  0.240533  1
  Rb  Rb4  1  0.703357  0.046068  0.220431  1
  Rb  Rb5  1  0.203357  0.453932  0.779569  1
  Rb  Rb6  1  0.296643  0.953932  0.779569  1
  Rb  Rb7  1  0.796643  0.546068  0.220431  1
  Rb  Rb8  1  0.090384  0.996190  0.353893  1
  Rb  Rb9  1  0.590384  0.503810  0.646107  1
  Rb  Rb10  1  0.909616  0.003810  0.646107  1
  Rb  Rb11  1  0.409616  0.496190  0.353893  1
  Rb  Rb12  1  0.808012  0.452175  0.783534  1
  Rb  Rb13  1  0.308012  0.047825  0.216466  1
  Rb  Rb14  1  0.191988  0.547825  0.216466  1
  Rb  Rb15  1  0.691988  0.952175  0.783534  1
  Y  Y16  1  0.598705  0.498539  0.154562  1
  Y  Y17  1  0.098705  0.001461  0.845438  1
  Y  Y18  1  0.401295  0.501461  0.845438  1
  Y  Y19  1  0.901295  0.998539  0.154562  1
  O  O20  1  0.500000  0.500000  0.000000  1
  O  O21  1  0.000000  0.000000  0.000000  1
  O  O22  1  0.181802  0.005069  0.045241  1
  O  O23  1  0.681802  0.494931  0.954759  1
  O  O24  1  0.818198  0.994931  0.954759  1
  O  O25  1  0.318198  0.505069  0.045241  1
  O  O26  1  0.893568  0.283222  0.177322  1
  O  O27  1  0.393568  0.216778  0.822678  1
  O  O28  1  0.106432  0.716778  0.822678  1
  O  O29  1  0.606432  0.783222  0.177322  1
  O  O30  1  0.600898  0.218800  0.456415  1
  O  O31  1  0.100898  0.281200  0.543585  1
  O  O32  1  0.399102  0.781200  0.543585  1
  O  O33  1  0.899102  0.718800  0.456415  1
