# generated using pymatgen
data_Hf4GaSi3
_symmetry_space_group_name_H-M   'P 1'
_cell_length_a   3.77005100
_cell_length_b   5.31575979
_cell_length_c   7.02353962
_cell_angle_alpha   89.88313849
_cell_angle_beta   90.00000000
_cell_angle_gamma   90.00000000
_symmetry_Int_Tables_number   1
_chemical_formula_structural   Hf4GaSi3
_chemical_formula_sum   'Hf4 Ga1 Si3'
_cell_volume   140.75625590
_cell_formula_units_Z   1
loop_
 _symmetry_equiv_pos_site_id
 _symmetry_equiv_pos_as_xyz
  1  'x, y, z'
loop_
 _atom_site_type_symbol
 _atom_site_label
 _atom_site_symmetry_multiplicity
 _atom_site_fract_x
 _atom_site_fract_y
 _atom_site_fract_z
 _atom_site_occupancy
  Hf  Hf0  1  0.250000  0.372199  0.679851  1
  Hf  Hf1  1  0.750000  0.622003  0.317253  1
  Hf  Hf2  1  0.750000  0.878874  0.831494  1
  Hf  Hf3  1  0.250000  0.126696  0.172237  1
  Ga  Ga4  1  0.250000  0.857146  0.541970  1
  Si  Si5  1  0.750000  0.140425  0.457808  1
  Si  Si6  1  0.750000  0.361880  0.957028  1
  Si  Si7  1  0.250000  0.640777  0.042358  1
