# generated using pymatgen
data_Dy2Ho2Mn3VB16
_symmetry_space_group_name_H-M   'P 1'
_cell_length_a   3.42380600
_cell_length_b   5.92514764
_cell_length_c   11.45466648
_cell_angle_alpha   89.99001252
_cell_angle_beta   90.00000000
_cell_angle_gamma   90.00000000
_symmetry_Int_Tables_number   1
_chemical_formula_structural   Dy2Ho2Mn3VB16
_chemical_formula_sum   'Dy2 Ho2 Mn3 V1 B16'
_cell_volume   232.37572975
_cell_formula_units_Z   1
loop_
 _symmetry_equiv_pos_site_id
 _symmetry_equiv_pos_as_xyz
  1  'x, y, z'
loop_
 _atom_site_type_symbol
 _atom_site_label
 _atom_site_symmetry_multiplicity
 _atom_site_fract_x
 _atom_site_fract_y
 _atom_site_fract_z
 _atom_site_occupancy
  Dy  Dy0  1  0.500000  0.626309  0.149078  1
  Dy  Dy1  1  0.500000  0.373859  0.849829  1
  Ho  Ho2  1  0.500000  0.125208  0.348635  1
  Ho  Ho3  1  0.500000  0.876318  0.651981  1
  Mn  Mn4  1  0.500000  0.376712  0.582527  1
  Mn  Mn5  1  0.500000  0.127655  0.082072  1
  Mn  Mn6  1  0.500000  0.871931  0.915389  1
  V  V7  1  0.500000  0.624456  0.419083  1
  B  B8  1  0.000000  0.976094  0.190131  1
  B  B9  1  0.000000  0.024779  0.808846  1
  B  B10  1  0.000000  0.472645  0.307732  1
  B  B11  1  0.000000  0.523270  0.691966  1
  B  B12  1  0.000000  0.784846  0.313874  1
  B  B13  1  0.000000  0.219856  0.683737  1
  B  B14  1  0.000000  0.279867  0.182900  1
  B  B15  1  0.000000  0.719157  0.816344  1
  B  B16  1  0.000000  0.865615  0.469029  1
  B  B17  1  0.000000  0.138060  0.534225  1
  B  B18  1  0.000000  0.361562  0.031703  1
  B  B19  1  0.000000  0.638251  0.967367  1
  B  B20  1  0.000000  0.887797  0.045573  1
  B  B21  1  0.000000  0.111699  0.952978  1
  B  B22  1  0.000000  0.383452  0.455669  1
  B  B23  1  0.000000  0.610601  0.549334  1
