# generated using pymatgen
data_AlV3GaTc3
_symmetry_space_group_name_H-M   'P 1'
_cell_length_a   4.81123740
_cell_length_b   4.81123740
_cell_length_c   4.81123740
_cell_angle_alpha   89.75809339
_cell_angle_beta   90.24190661
_cell_angle_gamma   90.24190661
_symmetry_Int_Tables_number   1
_chemical_formula_structural   AlV3GaTc3
_chemical_formula_sum   'Al1 V3 Ga1 Tc3'
_cell_volume   111.36757910
_cell_formula_units_Z   1
loop_
 _symmetry_equiv_pos_site_id
 _symmetry_equiv_pos_as_xyz
  1  'x, y, z'
loop_
 _atom_site_type_symbol
 _atom_site_label
 _atom_site_symmetry_multiplicity
 _atom_site_fract_x
 _atom_site_fract_y
 _atom_site_fract_z
 _atom_site_occupancy
  Al  Al0  1  0.501076  0.498924  0.498924  1
  V  V1  1  0.500475  0.250069  0.001158  1
  V  V2  1  0.749931  0.001158  0.499525  1
  V  V3  1  0.998842  0.499525  0.250069  1
  Ga  Ga4  1  0.998216  0.001784  0.001784  1
  Tc  Tc5  1  0.500870  0.747912  0.001497  1
  Tc  Tc6  1  0.252088  0.001497  0.499130  1
  Tc  Tc7  1  0.998503  0.499130  0.747912  1
