# generated using pymatgen
data_NdY3ReOs7
_symmetry_space_group_name_H-M   'P 1'
_cell_length_a   5.29409429
_cell_length_b   5.39996273
_cell_length_c   9.05987358
_cell_angle_alpha   89.99999690
_cell_angle_beta   90.03549921
_cell_angle_gamma   120.66375397
_symmetry_Int_Tables_number   1
_chemical_formula_structural   NdY3ReOs7
_chemical_formula_sum   'Nd1 Y3 Re1 Os7'
_cell_volume   222.78775278
_cell_formula_units_Z   1
loop_
 _symmetry_equiv_pos_site_id
 _symmetry_equiv_pos_as_xyz
  1  'x, y, z'
loop_
 _atom_site_type_symbol
 _atom_site_label
 _atom_site_symmetry_multiplicity
 _atom_site_fract_x
 _atom_site_fract_y
 _atom_site_fract_z
 _atom_site_occupancy
  Nd  Nd0  1  0.326172  0.663086  0.064070  1
  Y  Y1  1  0.327439  0.663720  0.435220  1
  Y  Y2  1  0.660126  0.330062  0.563648  1
  Y  Y3  1  0.659909  0.329954  0.935340  1
  Re  Re4  1  0.678207  0.839103  0.748301  1
  Os  Os5  1  0.978629  0.989314  0.499518  1
  Os  Os6  1  0.978786  0.989392  0.000262  1
  Os  Os7  1  0.834967  0.165408  0.252793  1
  Os  Os8  1  0.834967  0.669559  0.252793  1
  Os  Os9  1  0.358300  0.179150  0.252583  1
  Os  Os10  1  0.181251  0.831715  0.747736  1
  Os  Os11  1  0.181251  0.349536  0.747736  1
