# generated using pymatgen
data_Er8BeZn2Si12Ru
_symmetry_space_group_name_H-M   'P 1'
_cell_length_a   8.05078300
_cell_length_b   8.05078310
_cell_length_c   7.96353800
_cell_angle_alpha   90.00000000
_cell_angle_beta   90.00000000
_cell_angle_gamma   119.99999549
_symmetry_Int_Tables_number   1
_chemical_formula_structural   Er8BeZn2Si12Ru
_chemical_formula_sum   'Er8 Be1 Zn2 Si12 Ru1'
_cell_volume   447.00559102
_cell_formula_units_Z   1
loop_
 _symmetry_equiv_pos_site_id
 _symmetry_equiv_pos_as_xyz
  1  'x, y, z'
loop_
 _atom_site_type_symbol
 _atom_site_label
 _atom_site_symmetry_multiplicity
 _atom_site_fract_x
 _atom_site_fract_y
 _atom_site_fract_z
 _atom_site_occupancy
  Er  Er0  1  0.000000  0.000000  0.246977  1
  Er  Er1  1  0.000000  0.000000  0.753028  1
  Er  Er2  1  0.494826  0.505174  0.249931  1
  Er  Er3  1  0.494826  0.989654  0.249931  1
  Er  Er4  1  0.010346  0.505174  0.249931  1
  Er  Er5  1  0.496744  0.503256  0.749849  1
  Er  Er6  1  0.006515  0.503256  0.749849  1
  Er  Er7  1  0.496744  0.993485  0.749849  1
  Be  Be8  1  0.333333  0.666667  0.995650  1
  Zn  Zn9  1  0.666667  0.333333  0.497866  1
  Zn  Zn10  1  0.666667  0.333333  0.002986  1
  Si  Si11  1  0.836938  0.163062  0.499070  1
  Si  Si12  1  0.836938  0.673875  0.499070  1
  Si  Si13  1  0.326125  0.163062  0.499070  1
  Si  Si14  1  0.835686  0.164314  0.000160  1
  Si  Si15  1  0.835686  0.671374  0.000160  1
  Si  Si16  1  0.328626  0.164314  0.000160  1
  Si  Si17  1  0.174562  0.825438  0.000072  1
  Si  Si18  1  0.650876  0.825438  0.000072  1
  Si  Si19  1  0.174562  0.349124  0.000072  1
  Si  Si20  1  0.169646  0.830354  0.500718  1
  Si  Si21  1  0.660708  0.830354  0.500718  1
  Si  Si22  1  0.169646  0.339292  0.500718  1
  Ru  Ru23  1  0.333333  0.666667  0.504092  1
