# generated using pymatgen
data_Tb2Pr2SiI5
_symmetry_space_group_name_H-M   'P 1'
_cell_length_a   9.96704147
_cell_length_b   9.96704161
_cell_length_c   9.13010246
_cell_angle_alpha   77.77645170
_cell_angle_beta   77.77645230
_cell_angle_gamma   24.89709574
_symmetry_Int_Tables_number   1
_chemical_formula_structural   Tb2Pr2SiI5
_chemical_formula_sum   'Tb2 Pr2 Si1 I5'
_cell_volume   372.75490315
_cell_formula_units_Z   1
loop_
 _symmetry_equiv_pos_site_id
 _symmetry_equiv_pos_as_xyz
  1  'x, y, z'
loop_
 _atom_site_type_symbol
 _atom_site_label
 _atom_site_symmetry_multiplicity
 _atom_site_fract_x
 _atom_site_fract_y
 _atom_site_fract_z
 _atom_site_occupancy
  Tb  Tb0  1  0.856541  0.856541  0.072777  1
  Tb  Tb1  1  0.143459  0.143459  0.927223  1
  Pr  Pr2  1  0.500840  0.500840  0.214575  1
  Pr  Pr3  1  0.499160  0.499160  0.785425  1
  Si  Si4  1  0.000000  0.000000  0.000000  1
  I  I5  1  0.675179  0.675179  0.155275  1
  I  I6  1  0.324821  0.324821  0.844725  1
  I  I7  1  0.669407  0.669407  0.675958  1
  I  I8  1  0.330593  0.330593  0.324042  1
  I  I9  1  0.000000  0.000000  0.500000  1
