# generated using pymatgen
data_Ta12ReTc11B12
_symmetry_space_group_name_H-M   'P 1'
_cell_length_a   3.17672900
_cell_length_b   9.06452579
_cell_length_c   15.72189976
_cell_angle_alpha   90.01766943
_cell_angle_beta   90.00000000
_cell_angle_gamma   90.00000000
_symmetry_Int_Tables_number   1
_chemical_formula_structural   Ta12ReTc11B12
_chemical_formula_sum   'Ta12 Re1 Tc11 B12'
_cell_volume   452.72060247
_cell_formula_units_Z   1
loop_
 _symmetry_equiv_pos_site_id
 _symmetry_equiv_pos_as_xyz
  1  'x, y, z'
loop_
 _atom_site_type_symbol
 _atom_site_label
 _atom_site_symmetry_multiplicity
 _atom_site_fract_x
 _atom_site_fract_y
 _atom_site_fract_z
 _atom_site_occupancy
  Ta  Ta0  1  0.000000  0.806385  0.493283  1
  Ta  Ta1  1  0.000000  0.194154  0.506813  1
  Ta  Ta2  1  0.000000  0.306026  0.006626  1
  Ta  Ta3  1  0.000000  0.693602  0.993304  1
  Ta  Ta4  1  0.000000  0.516818  0.595762  1
  Ta  Ta5  1  0.000000  0.483190  0.404350  1
  Ta  Ta6  1  0.000000  0.016697  0.904017  1
  Ta  Ta7  1  0.000000  0.983104  0.094795  1
  Ta  Ta8  1  0.000000  0.679218  0.207839  1
  Ta  Ta9  1  0.000000  0.319642  0.792056  1
  Ta  Ta10  1  0.000000  0.181116  0.292133  1
  Ta  Ta11  1  0.000000  0.819694  0.707958  1
  Re  Re12  1  0.500000  0.933214  0.232795  1
  Tc  Tc13  1  0.500000  0.717384  0.358322  1
  Tc  Tc14  1  0.500000  0.282623  0.641614  1
  Tc  Tc15  1  0.500000  0.216848  0.141791  1
  Tc  Tc16  1  0.500000  0.782486  0.858435  1
  Tc  Tc17  1  0.500000  0.518420  0.094670  1
  Tc  Tc18  1  0.500000  0.481020  0.905255  1
  Tc  Tc19  1  0.500000  0.019278  0.405724  1
  Tc  Tc20  1  0.500000  0.981003  0.594705  1
  Tc  Tc21  1  0.500000  0.567469  0.732460  1
  Tc  Tc22  1  0.500000  0.432369  0.267542  1
  Tc  Tc23  1  0.500000  0.067523  0.767508  1
  B  B24  1  0.500000  0.604590  0.494075  1
  B  B25  1  0.500000  0.395845  0.505964  1
  B  B26  1  0.500000  0.104612  0.005786  1
  B  B27  1  0.500000  0.895172  0.993624  1
  B  B28  1  0.000000  0.608805  0.832707  1
  B  B29  1  0.000000  0.390776  0.167223  1
  B  B30  1  0.000000  0.108887  0.667124  1
  B  B31  1  0.000000  0.891371  0.332989  1
  B  B32  1  0.500000  0.717267  0.602734  1
  B  B33  1  0.500000  0.283305  0.397567  1
  B  B34  1  0.500000  0.217114  0.897443  1
  B  B35  1  0.500000  0.782973  0.103011  1
