# generated using pymatgen
data_Yb2Ce4HfTaSb10
_symmetry_space_group_name_H-M   'P 1'
_cell_length_a   9.42451430
_cell_length_b   9.43411687
_cell_length_c   6.23616479
_cell_angle_alpha   90.03978457
_cell_angle_beta   89.90689107
_cell_angle_gamma   120.23418254
_symmetry_Int_Tables_number   1
_chemical_formula_structural   Yb2Ce4HfTaSb10
_chemical_formula_sum   'Yb2 Ce4 Hf1 Ta1 Sb10'
_cell_volume   479.04706480
_cell_formula_units_Z   1
loop_
 _symmetry_equiv_pos_site_id
 _symmetry_equiv_pos_as_xyz
  1  'x, y, z'
loop_
 _atom_site_type_symbol
 _atom_site_label
 _atom_site_symmetry_multiplicity
 _atom_site_fract_x
 _atom_site_fract_y
 _atom_site_fract_z
 _atom_site_occupancy
  Yb  Yb0  1  0.614133  0.999416  0.251392  1
  Yb  Yb1  1  0.385867  0.000584  0.748608  1
  Ce  Ce2  1  0.002640  0.621309  0.250631  1
  Ce  Ce3  1  0.997360  0.378691  0.749369  1
  Ce  Ce4  1  0.383991  0.380177  0.250615  1
  Ce  Ce5  1  0.616009  0.619823  0.749385  1
  Hf  Hf6  1  0.000000  0.000000  0.500000  1
  Ta  Ta7  1  0.000000  0.000000  0.000000  1
  Sb  Sb8  1  0.260142  0.000598  0.244667  1
  Sb  Sb9  1  0.739858  0.999402  0.755333  1
  Sb  Sb10  1  0.000496  0.262643  0.245549  1
  Sb  Sb11  1  0.999504  0.737357  0.754451  1
  Sb  Sb12  1  0.737493  0.737772  0.245379  1
  Sb  Sb13  1  0.262507  0.262228  0.754621  1
  Sb  Sb14  1  0.330873  0.662426  0.000101  1
  Sb  Sb15  1  0.669127  0.337574  0.999899  1
  Sb  Sb16  1  0.668688  0.336998  0.500202  1
  Sb  Sb17  1  0.331312  0.663002  0.499798  1
