# generated using pymatgen
data_DyTmNb3Si4
_symmetry_space_group_name_H-M   'P 1'
_cell_length_a   7.05505855
_cell_length_b   7.05521201
_cell_length_c   13.00707427
_cell_angle_alpha   89.97720683
_cell_angle_beta   89.96348395
_cell_angle_gamma   90.01513559
_symmetry_Int_Tables_number   1
_chemical_formula_structural   DyTmNb3Si4
_chemical_formula_sum   'Dy4 Tm4 Nb12 Si16'
_cell_volume   647.42605476
_cell_formula_units_Z   4
loop_
 _symmetry_equiv_pos_site_id
 _symmetry_equiv_pos_as_xyz
  1  'x, y, z'
loop_
 _atom_site_type_symbol
 _atom_site_label
 _atom_site_symmetry_multiplicity
 _atom_site_fract_x
 _atom_site_fract_y
 _atom_site_fract_z
 _atom_site_occupancy
  Dy  Dy0  1  0.840928  0.501501  0.967985  1
  Dy  Dy1  1  0.498520  0.159073  0.532106  1
  Dy  Dy2  1  0.340950  0.998716  0.781801  1
  Dy  Dy3  1  0.658594  0.001534  0.282345  1
  Tm  Tm4  1  0.998975  0.341306  0.217982  1
  Tm  Tm5  1  0.000618  0.658835  0.717913  1
  Tm  Tm6  1  0.158473  0.499263  0.467951  1
  Tm  Tm7  1  0.500648  0.841171  0.032148  1
  Nb  Nb8  1  0.171014  0.170848  0.000014  1
  Nb  Nb9  1  0.829560  0.828623  0.500064  1
  Nb  Nb10  1  0.328468  0.670661  0.250078  1
  Nb  Nb11  1  0.671258  0.329653  0.750007  1
  Nb  Nb12  1  0.153124  0.992210  0.375813  1
  Nb  Nb13  1  0.847121  0.006975  0.876232  1
  Nb  Nb14  1  0.507516  0.653595  0.626222  1
  Nb  Nb15  1  0.346777  0.493294  0.873853  1
  Nb  Nb16  1  0.492751  0.346535  0.126319  1
  Nb  Nb17  1  0.653390  0.506186  0.373578  1
  Nb  Nb18  1  0.994014  0.154007  0.623596  1
  Nb  Nb19  1  0.006856  0.846331  0.124000  1
  Si  Si20  1  0.293462  0.045176  0.185861  1
  Si  Si21  1  0.707462  0.954898  0.686392  1
  Si  Si22  1  0.454134  0.792723  0.436569  1
  Si  Si23  1  0.205910  0.544910  0.064038  1
  Si  Si24  1  0.545007  0.204798  0.936617  1
  Si  Si25  1  0.795785  0.455800  0.563700  1
  Si  Si26  1  0.044979  0.295366  0.813170  1
  Si  Si27  1  0.955022  0.704186  0.313759  1
  Si  Si28  1  0.365174  0.295711  0.318241  1
  Si  Si29  1  0.633383  0.705538  0.818213  1
  Si  Si30  1  0.204046  0.865565  0.568285  1
  Si  Si31  1  0.133557  0.794678  0.931808  1
  Si  Si32  1  0.794917  0.132466  0.068757  1
  Si  Si33  1  0.868740  0.206136  0.431531  1
  Si  Si34  1  0.294181  0.369039  0.681490  1
  Si  Si35  1  0.704688  0.632693  0.181562  1
