# generated using pymatgen
data_LaPr2Ag(Pt2O7)2
_symmetry_space_group_name_H-M   'P 1'
_cell_length_a   7.35074189
_cell_length_b   7.35074097
_cell_length_c   7.34261255
_cell_angle_alpha   61.40907291
_cell_angle_beta   61.40906339
_cell_angle_gamma   61.43526410
_symmetry_Int_Tables_number   1
_chemical_formula_structural   LaPr2Ag(Pt2O7)2
_chemical_formula_sum   'La1 Pr2 Ag1 Pt4 O14'
_cell_volume   289.47562648
_cell_formula_units_Z   1
loop_
 _symmetry_equiv_pos_site_id
 _symmetry_equiv_pos_as_xyz
  1  'x, y, z'
loop_
 _atom_site_type_symbol
 _atom_site_label
 _atom_site_symmetry_multiplicity
 _atom_site_fract_x
 _atom_site_fract_y
 _atom_site_fract_z
 _atom_site_occupancy
  La  La0  1  0.125000  0.125000  0.625000  1
  Pr  Pr1  1  0.625000  0.125000  0.125000  1
  Pr  Pr2  1  0.125000  0.625000  0.125000  1
  Ag  Ag3  1  0.125000  0.125000  0.125000  1
  Pt  Pt4  1  0.625000  0.625000  0.125000  1
  Pt  Pt5  1  0.625000  0.625000  0.625000  1
  Pt  Pt6  1  0.625000  0.125000  0.625000  1
  Pt  Pt7  1  0.125000  0.625000  0.625000  1
  O  O8  1  0.693842  0.298928  0.298572  1
  O  O9  1  0.712198  0.712198  0.290430  1
  O  O10  1  0.298928  0.693842  0.298572  1
  O  O11  1  0.008566  0.008566  0.008956  1
  O  O12  1  0.709875  0.291470  0.712945  1
  O  O13  1  0.958530  0.540125  0.537055  1
  O  O14  1  0.291470  0.709875  0.712945  1
  O  O15  1  0.540125  0.958530  0.537055  1
  O  O16  1  0.241434  0.241434  0.241044  1
  O  O17  1  0.951072  0.556158  0.951428  1
  O  O18  1  0.537802  0.537802  0.959570  1
  O  O19  1  0.950437  0.950437  0.555144  1
  O  O20  1  0.556158  0.951072  0.951428  1
  O  O21  1  0.299563  0.299563  0.694856  1
