# generated using pymatgen
data_BaLi8Ac7Pb8
_symmetry_space_group_name_H-M   'P 1'
_cell_length_a   9.96911200
_cell_length_b   9.96911229
_cell_length_c   8.28567300
_cell_angle_alpha   90.00000000
_cell_angle_beta   90.00000000
_cell_angle_gamma   120.00000568
_symmetry_Int_Tables_number   1
_chemical_formula_structural   BaLi8Ac7Pb8
_chemical_formula_sum   'Ba1 Li8 Ac7 Pb8'
_cell_volume   713.13435561
_cell_formula_units_Z   1
loop_
 _symmetry_equiv_pos_site_id
 _symmetry_equiv_pos_as_xyz
  1  'x, y, z'
loop_
 _atom_site_type_symbol
 _atom_site_label
 _atom_site_symmetry_multiplicity
 _atom_site_fract_x
 _atom_site_fract_y
 _atom_site_fract_z
 _atom_site_occupancy
  Ba  Ba0  1  0.000000  0.000000  0.003469  1
  Li  Li1  1  0.832872  0.167128  0.713394  1
  Li  Li2  1  0.832872  0.665745  0.713394  1
  Li  Li3  1  0.334255  0.167128  0.713394  1
  Li  Li4  1  0.166616  0.833384  0.207698  1
  Li  Li5  1  0.166616  0.333234  0.207698  1
  Li  Li6  1  0.666766  0.833384  0.207698  1
  Li  Li7  1  0.666667  0.333333  0.332615  1
  Li  Li8  1  0.333333  0.666667  0.833368  1
  Ac  Ac9  1  0.485499  0.514501  0.503049  1
  Ac  Ac10  1  0.485499  0.970998  0.503049  1
  Ac  Ac11  1  0.029002  0.514501  0.503049  1
  Ac  Ac12  1  0.514111  0.485889  0.003315  1
  Ac  Ac13  1  0.514111  0.028221  0.003315  1
  Ac  Ac14  1  0.971779  0.485889  0.003315  1
  Ac  Ac15  1  0.000000  0.000000  0.501087  1
  Pb  Pb16  1  0.831505  0.168495  0.279734  1
  Pb  Pb17  1  0.831505  0.663010  0.279734  1
  Pb  Pb18  1  0.336990  0.168495  0.279734  1
  Pb  Pb19  1  0.169142  0.830858  0.774150  1
  Pb  Pb20  1  0.169142  0.338283  0.774150  1
  Pb  Pb21  1  0.661717  0.830858  0.774150  1
  Pb  Pb22  1  0.666667  0.333333  0.722021  1
  Pb  Pb23  1  0.333333  0.666667  0.221423  1
