# generated using pymatgen
data_YbPr8DyIr6
_symmetry_space_group_name_H-M   'P 1'
_cell_length_a   11.28918300
_cell_length_b   11.28918300
_cell_length_c   6.55748300
_cell_angle_alpha   90.00000000
_cell_angle_beta   90.00000000
_cell_angle_gamma   90.00000000
_symmetry_Int_Tables_number   1
_chemical_formula_structural   YbPr8DyIr6
_chemical_formula_sum   'Yb2 Pr16 Dy2 Ir12'
_cell_volume   835.72270171
_cell_formula_units_Z   2
loop_
 _symmetry_equiv_pos_site_id
 _symmetry_equiv_pos_as_xyz
  1  'x, y, z'
loop_
 _atom_site_type_symbol
 _atom_site_label
 _atom_site_symmetry_multiplicity
 _atom_site_fract_x
 _atom_site_fract_y
 _atom_site_fract_z
 _atom_site_occupancy
  Yb  Yb0  1  0.000000  0.000000  0.500000  1
  Yb  Yb1  1  0.000000  0.000000  0.000000  1
  Pr  Pr2  1  0.287545  0.087281  0.385794  1
  Pr  Pr3  1  0.287545  0.912719  0.885794  1
  Pr  Pr4  1  0.712455  0.087281  0.885794  1
  Pr  Pr5  1  0.712455  0.912719  0.385794  1
  Pr  Pr6  1  0.588707  0.789440  0.883992  1
  Pr  Pr7  1  0.588707  0.210560  0.383992  1
  Pr  Pr8  1  0.411293  0.789440  0.383992  1
  Pr  Pr9  1  0.411293  0.210560  0.883992  1
  Pr  Pr10  1  0.210560  0.411293  0.616008  1
  Pr  Pr11  1  0.210560  0.588707  0.116008  1
  Pr  Pr12  1  0.789440  0.411293  0.116008  1
  Pr  Pr13  1  0.789440  0.588707  0.616008  1
  Pr  Pr14  1  0.912719  0.712455  0.114206  1
  Pr  Pr15  1  0.912719  0.287545  0.614206  1
  Pr  Pr16  1  0.087281  0.712455  0.614206  1
  Pr  Pr17  1  0.087281  0.287545  0.114206  1
  Dy  Dy18  1  0.500000  0.500000  0.000000  1
  Dy  Dy19  1  0.500000  0.500000  0.500000  1
  Ir  Ir20  1  0.845635  0.154365  0.250000  1
  Ir  Ir21  1  0.845635  0.845635  0.750000  1
  Ir  Ir22  1  0.154365  0.154365  0.750000  1
  Ir  Ir23  1  0.154365  0.845635  0.250000  1
  Ir  Ir24  1  0.648139  0.351861  0.750000  1
  Ir  Ir25  1  0.648139  0.648139  0.250000  1
  Ir  Ir26  1  0.351861  0.351861  0.250000  1
  Ir  Ir27  1  0.351861  0.648139  0.750000  1
  Ir  Ir28  1  0.500000  0.000000  0.117703  1
  Ir  Ir29  1  0.500000  0.000000  0.617703  1
  Ir  Ir30  1  0.000000  0.500000  0.882297  1
  Ir  Ir31  1  0.000000  0.500000  0.382297  1
