# generated using pymatgen
data_Nd2Al20TcRh3
_symmetry_space_group_name_H-M   'P 1'
_cell_length_a   6.88539987
_cell_length_b   6.88874607
_cell_length_c   9.21641735
_cell_angle_alpha   90.28270373
_cell_angle_beta   90.27436649
_cell_angle_gamma   97.25307951
_symmetry_Int_Tables_number   1
_chemical_formula_structural   Nd2Al20TcRh3
_chemical_formula_sum   'Nd2 Al20 Tc1 Rh3'
_cell_volume   433.64125845
_cell_formula_units_Z   1
loop_
 _symmetry_equiv_pos_site_id
 _symmetry_equiv_pos_as_xyz
  1  'x, y, z'
loop_
 _atom_site_type_symbol
 _atom_site_label
 _atom_site_symmetry_multiplicity
 _atom_site_fract_x
 _atom_site_fract_y
 _atom_site_fract_z
 _atom_site_occupancy
  Nd  Nd0  1  0.869850  0.124915  0.750052  1
  Nd  Nd1  1  0.130150  0.875085  0.249948  1
  Al  Al2  1  0.620059  0.376068  0.547338  1
  Al  Al3  1  0.379941  0.623932  0.452662  1
  Al  Al4  1  0.378890  0.621853  0.049286  1
  Al  Al5  1  0.621110  0.378147  0.950714  1
  Al  Al6  1  0.223471  0.222107  0.499260  1
  Al  Al7  1  0.776529  0.777893  0.500740  1
  Al  Al8  1  0.775169  0.775439  0.999323  1
  Al  Al9  1  0.224831  0.224561  0.000677  1
  Al  Al10  1  0.842125  0.159445  0.104057  1
  Al  Al11  1  0.157875  0.840555  0.895943  1
  Al  Al12  1  0.158518  0.842684  0.602456  1
  Al  Al13  1  0.841482  0.157316  0.397544  1
  Al  Al14  1  0.857332  0.591224  0.749451  1
  Al  Al15  1  0.142668  0.408776  0.250549  1
  Al  Al16  1  0.408743  0.142062  0.749288  1
  Al  Al17  1  0.591257  0.857938  0.250712  1
  Al  Al18  1  0.223785  0.482115  0.750318  1
  Al  Al19  1  0.776215  0.517885  0.249682  1
  Al  Al20  1  0.517513  0.777232  0.745808  1
  Al  Al21  1  0.482487  0.222768  0.254192  1
  Tc  Tc22  1  0.500000  0.000000  0.500000  1
  Rh  Rh23  1  0.000000  0.500000  0.500000  1
  Rh  Rh24  1  0.000000  0.500000  0.000000  1
  Rh  Rh25  1  0.500000  0.000000  0.000000  1
