# generated using pymatgen
data_Ca11Dy(SiRh)8
_symmetry_space_group_name_H-M   'P 1'
_cell_length_a   5.78868211
_cell_length_b   7.66873962
_cell_length_c   13.39300600
_cell_angle_alpha   90.00000000
_cell_angle_beta   90.00000000
_cell_angle_gamma   90.14091878
_symmetry_Int_Tables_number   1
_chemical_formula_structural   Ca11Dy(SiRh)8
_chemical_formula_sum   'Ca11 Dy1 Si8 Rh8'
_cell_volume   594.53912945
_cell_formula_units_Z   1
loop_
 _symmetry_equiv_pos_site_id
 _symmetry_equiv_pos_as_xyz
  1  'x, y, z'
loop_
 _atom_site_type_symbol
 _atom_site_label
 _atom_site_symmetry_multiplicity
 _atom_site_fract_x
 _atom_site_fract_y
 _atom_site_fract_z
 _atom_site_occupancy
  Ca  Ca0  1  0.135075  0.607020  0.100257  1
  Ca  Ca1  1  0.134915  0.896050  0.900615  1
  Ca  Ca2  1  0.865673  0.107213  0.398607  1
  Ca  Ca3  1  0.867511  0.389678  0.600672  1
  Ca  Ca4  1  0.867511  0.389678  0.899328  1
  Ca  Ca5  1  0.865673  0.107213  0.101393  1
  Ca  Ca6  1  0.134915  0.896050  0.599385  1
  Ca  Ca7  1  0.135075  0.607020  0.399743  1
  Ca  Ca8  1  0.363813  0.267347  0.250000  1
  Ca  Ca9  1  0.363059  0.239380  0.750000  1
  Ca  Ca10  1  0.637120  0.766596  0.250000  1
  Dy  Dy11  1  0.627355  0.734010  0.750000  1
  Si  Si12  1  0.838982  0.416982  0.250000  1
  Si  Si13  1  0.836035  0.082192  0.750000  1
  Si  Si14  1  0.162279  0.915245  0.250000  1
  Si  Si15  1  0.148656  0.594562  0.750000  1
  Si  Si16  1  0.408870  0.248661  0.998328  1
  Si  Si17  1  0.591999  0.748716  0.500309  1
  Si  Si18  1  0.591999  0.748716  0.999691  1
  Si  Si19  1  0.408870  0.248661  0.501672  1
  Rh  Rh20  1  0.635708  0.471712  0.089069  1
  Rh  Rh21  1  0.635798  0.021207  0.907953  1
  Rh  Rh22  1  0.367269  0.972320  0.409516  1
  Rh  Rh23  1  0.368533  0.529269  0.592906  1
  Rh  Rh24  1  0.368533  0.529269  0.907094  1
  Rh  Rh25  1  0.367269  0.972320  0.090484  1
  Rh  Rh26  1  0.635798  0.021207  0.592047  1
  Rh  Rh27  1  0.635708  0.471712  0.410931  1
