# generated using pymatgen
data_Gd7Bi(Te3N2)2
_symmetry_space_group_name_H-M   'P 1'
_cell_length_a   7.58622214
_cell_length_b   15.92846811
_cell_length_c   4.04912802
_cell_angle_alpha   89.99452626
_cell_angle_beta   90.01016362
_cell_angle_gamma   89.45907368
_symmetry_Int_Tables_number   1
_chemical_formula_structural   Gd7Bi(Te3N2)2
_chemical_formula_sum   'Gd7 Bi1 Te6 N4'
_cell_volume   489.26225198
_cell_formula_units_Z   1
loop_
 _symmetry_equiv_pos_site_id
 _symmetry_equiv_pos_as_xyz
  1  'x, y, z'
loop_
 _atom_site_type_symbol
 _atom_site_label
 _atom_site_symmetry_multiplicity
 _atom_site_fract_x
 _atom_site_fract_y
 _atom_site_fract_z
 _atom_site_occupancy
  Gd  Gd0  1  0.687059  0.935077  0.499536  1
  Gd  Gd1  1  0.306379  0.058175  0.500068  1
  Gd  Gd2  1  0.186722  0.564269  0.000156  1
  Gd  Gd3  1  0.816255  0.440603  0.999976  1
  Gd  Gd4  1  0.797364  0.642557  0.500118  1
  Gd  Gd5  1  0.204693  0.361483  0.500057  1
  Gd  Gd6  1  0.300558  0.856424  0.000655  1
  Bi  Bi7  1  0.691857  0.143730  0.999529  1
  Te  Te8  1  0.502802  0.501546  0.500032  1
  Te  Te9  1  0.003006  0.996281  0.999942  1
  Te  Te10  1  0.830468  0.290436  0.500003  1
  Te  Te11  1  0.176129  0.714334  0.500230  1
  Te  Te12  1  0.318747  0.212605  0.999960  1
  Te  Te13  1  0.680568  0.786101  0.999768  1
  N  N14  1  0.604231  0.071217  0.499903  1
  N  N15  1  0.387427  0.920525  0.499920  1
  N  N16  1  0.117575  0.425710  0.000163  1
  N  N17  1  0.888159  0.578928  0.999985  1
