# generated using pymatgen
data_K(BeAs)2
_symmetry_space_group_name_H-M   'P 1'
_cell_length_a   7.81845166
_cell_length_b   7.81845128
_cell_length_c   7.81845295
_cell_angle_alpha   153.04577952
_cell_angle_beta   153.04577481
_cell_angle_gamma   38.48805502
_symmetry_Int_Tables_number   1
_chemical_formula_structural   K(BeAs)2
_chemical_formula_sum   'K1 Be2 As2'
_cell_volume   98.03361077
_cell_formula_units_Z   1
loop_
 _symmetry_equiv_pos_site_id
 _symmetry_equiv_pos_as_xyz
  1  'x, y, z'
loop_
 _atom_site_type_symbol
 _atom_site_label
 _atom_site_symmetry_multiplicity
 _atom_site_fract_x
 _atom_site_fract_y
 _atom_site_fract_z
 _atom_site_occupancy
  K  K0  1  0.000000  0.000000  0.000000  1
  Be  Be1  1  0.750000  0.250000  0.500000  1
  Be  Be2  1  0.250000  0.750000  0.500000  1
  As  As3  1  0.653404  0.653404  0.000000  1
  As  As4  1  0.346596  0.346596  0.000000  1
