# generated using pymatgen
data_SrPr5NdIrBr12
_symmetry_space_group_name_H-M   'P 1'
_cell_length_a   9.70904395
_cell_length_b   9.68137266
_cell_length_c   9.58055519
_cell_angle_alpha   106.39896897
_cell_angle_beta   106.38938818
_cell_angle_gamma   106.39038061
_symmetry_Int_Tables_number   1
_chemical_formula_structural   SrPr5NdIrBr12
_chemical_formula_sum   'Sr1 Pr5 Nd1 Ir1 Br12'
_cell_volume   762.05932823
_cell_formula_units_Z   1
loop_
 _symmetry_equiv_pos_site_id
 _symmetry_equiv_pos_as_xyz
  1  'x, y, z'
loop_
 _atom_site_type_symbol
 _atom_site_label
 _atom_site_symmetry_multiplicity
 _atom_site_fract_x
 _atom_site_fract_y
 _atom_site_fract_z
 _atom_site_occupancy
  Sr  Sr0  1  0.499937  0.500058  0.499845  1
  Pr  Pr1  1  0.315632  0.020444  0.105202  1
  Pr  Pr2  1  0.020097  0.101904  0.306178  1
  Pr  Pr3  1  0.980132  0.898916  0.694074  1
  Pr  Pr4  1  0.684504  0.979745  0.894765  1
  Pr  Pr5  1  0.894888  0.683425  0.979924  1
  Nd  Nd6  1  0.104761  0.314870  0.020279  1
  Ir  Ir7  1  0.000168  0.000360  0.000187  1
  Br  Br8  1  0.217787  0.680516  0.073742  1
  Br  Br9  1  0.446953  0.367090  0.150324  1
  Br  Br10  1  0.681948  0.074481  0.220015  1
  Br  Br11  1  0.926957  0.782475  0.319732  1
  Br  Br12  1  0.152759  0.448863  0.366551  1
  Br  Br13  1  0.367519  0.153501  0.450252  1
  Br  Br14  1  0.632516  0.846570  0.549796  1
  Br  Br15  1  0.846950  0.551000  0.631525  1
  Br  Br16  1  0.073458  0.218789  0.682416  1
  Br  Br17  1  0.318062  0.925522  0.779995  1
  Br  Br18  1  0.551107  0.632998  0.848630  1
  Br  Br19  1  0.783869  0.318476  0.926571  1
