# generated using pymatgen
data_ErTm2Ga5Co
_symmetry_space_group_name_H-M   'P 1'
_cell_length_a   6.82883300
_cell_length_b   6.84642778
_cell_length_c   4.18305500
_cell_angle_alpha   90.00000000
_cell_angle_beta   90.00000000
_cell_angle_gamma   119.91503853
_symmetry_Int_Tables_number   1
_chemical_formula_structural   ErTm2Ga5Co
_chemical_formula_sum   'Er1 Tm2 Ga5 Co1'
_cell_volume   169.51413015
_cell_formula_units_Z   1
loop_
 _symmetry_equiv_pos_site_id
 _symmetry_equiv_pos_as_xyz
  1  'x, y, z'
loop_
 _atom_site_type_symbol
 _atom_site_label
 _atom_site_symmetry_multiplicity
 _atom_site_fract_x
 _atom_site_fract_y
 _atom_site_fract_z
 _atom_site_occupancy
  Er  Er0  1  0.596830  0.000000  0.000000  1
  Tm  Tm1  1  0.999695  0.598330  0.000000  1
  Tm  Tm2  1  0.401364  0.401670  0.000000  1
  Ga  Ga3  1  0.232085  0.000000  0.500000  1
  Ga  Ga4  1  0.999723  0.231496  0.500000  1
  Ga  Ga5  1  0.768227  0.768504  0.500000  1
  Ga  Ga6  1  0.332602  0.665457  0.500000  1
  Ga  Ga7  1  0.667146  0.334543  0.500000  1
  Co  Co8  1  0.002329  0.000000  0.000000  1
