# generated using pymatgen
data_KBa2OsO6
_symmetry_space_group_name_H-M   'P 1'
_cell_length_a   6.12732715
_cell_length_b   6.33192112
_cell_length_c   10.62647150
_cell_angle_alpha   90.05723434
_cell_angle_beta   124.73568815
_cell_angle_gamma   89.99900624
_symmetry_Int_Tables_number   1
_chemical_formula_structural   KBa2OsO6
_chemical_formula_sum   'K2 Ba4 Os2 O12'
_cell_volume   338.80967943
_cell_formula_units_Z   2
loop_
 _symmetry_equiv_pos_site_id
 _symmetry_equiv_pos_as_xyz
  1  'x, y, z'
loop_
 _atom_site_type_symbol
 _atom_site_label
 _atom_site_symmetry_multiplicity
 _atom_site_fract_x
 _atom_site_fract_y
 _atom_site_fract_z
 _atom_site_occupancy
  K  K0  1  0.000000  0.500000  0.500000  1
  K  K1  1  0.000000  0.000000  0.000000  1
  Ba  Ba2  1  0.261987  0.051189  0.749551  1
  Ba  Ba3  1  0.260507  0.449060  0.248294  1
  Ba  Ba4  1  0.738013  0.948811  0.250449  1
  Ba  Ba5  1  0.739493  0.550940  0.751706  1
  Os  Os6  1  0.500000  0.000000  0.500000  1
  Os  Os7  1  0.500000  0.500000  0.000000  1
  O  O8  1  0.204541  0.468250  0.791708  1
  O  O9  1  0.204227  0.031328  0.291583  1
  O  O10  1  0.795459  0.531750  0.208292  1
  O  O11  1  0.795773  0.968672  0.708417  1
  O  O12  1  0.710479  0.169471  0.458446  1
  O  O13  1  0.710654  0.330020  0.958427  1
  O  O14  1  0.289521  0.830529  0.541554  1
  O  O15  1  0.289346  0.669980  0.041573  1
  O  O16  1  0.608799  0.750715  0.446749  1
  O  O17  1  0.609654  0.749359  0.947309  1
  O  O18  1  0.391201  0.249285  0.553251  1
  O  O19  1  0.390346  0.250641  0.052691  1
