# generated using pymatgen
data_Mg2Zr6Ga15Rh7
_symmetry_space_group_name_H-M   'P 1'
_cell_length_a   8.79716720
_cell_length_b   8.79716757
_cell_length_c   8.79716700
_cell_angle_alpha   120.07274442
_cell_angle_beta   119.73332844
_cell_angle_gamma   90.16828112
_symmetry_Int_Tables_number   1
_chemical_formula_structural   Mg2Zr6Ga15Rh7
_chemical_formula_sum   'Mg2 Zr6 Ga15 Rh7'
_cell_volume   482.10629626
_cell_formula_units_Z   1
loop_
 _symmetry_equiv_pos_site_id
 _symmetry_equiv_pos_as_xyz
  1  'x, y, z'
loop_
 _atom_site_type_symbol
 _atom_site_label
 _atom_site_symmetry_multiplicity
 _atom_site_fract_x
 _atom_site_fract_y
 _atom_site_fract_z
 _atom_site_occupancy
  Mg  Mg0  1  0.377332  0.122469  0.745137  1
  Mg  Mg1  1  0.377332  0.632196  0.254863  1
  Zr  Zr2  1  0.793963  0.286517  0.074787  1
  Zr  Zr3  1  0.211730  0.286517  0.492553  1
  Zr  Zr4  1  0.204971  0.704971  0.500000  1
  Zr  Zr5  1  0.211730  0.719177  0.925213  1
  Zr  Zr6  1  0.793963  0.719177  0.507447  1
  Zr  Zr7  1  0.778567  0.278567  0.500000  1
  Ga  Ga8  1  0.991614  0.491614  0.500000  1
  Ga  Ga9  1  0.157772  0.348859  0.191087  1
  Ga  Ga10  1  0.157772  0.966686  0.808913  1
  Ga  Ga11  1  0.156189  0.350065  0.806123  1
  Ga  Ga12  1  0.543941  0.350065  0.193877  1
  Ga  Ga13  1  0.845394  0.653782  0.808389  1
  Ga  Ga14  1  0.845394  0.037004  0.191611  1
  Ga  Ga15  1  0.846622  0.654153  0.192469  1
  Ga  Ga16  1  0.461685  0.654153  0.807531  1
  Ga  Ga17  1  0.373269  0.125082  0.248186  1
  Ga  Ga18  1  0.876897  0.125082  0.751814  1
  Ga  Ga19  1  0.619745  0.866694  0.246950  1
  Ga  Ga20  1  0.619745  0.372796  0.753050  1
  Ga  Ga21  1  0.614104  0.875307  0.738797  1
  Ga  Ga22  1  0.136509  0.875307  0.261203  1
  Rh  Rh23  1  0.992438  0.999699  0.497944  1
  Rh  Rh24  1  0.501755  0.999699  0.007261  1
  Rh  Rh25  1  0.502424  0.502424  0.000000  1
  Rh  Rh26  1  0.501755  0.494494  0.502056  1
  Rh  Rh27  1  0.992438  0.494494  0.992739  1
  Rh  Rh28  1  0.999849  0.999849  0.000000  1
  Rh  Rh29  1  0.513096  0.013096  0.500000  1
