# generated using pymatgen
data_Tm3Zn2In3Pt
_symmetry_space_group_name_H-M   'P 1'
_cell_length_a   7.64636700
_cell_length_b   7.64636756
_cell_length_c   3.88949500
_cell_angle_alpha   90.00000000
_cell_angle_beta   90.00000000
_cell_angle_gamma   119.99999327
_symmetry_Int_Tables_number   1
_chemical_formula_structural   Tm3Zn2In3Pt
_chemical_formula_sum   'Tm3 Zn2 In3 Pt1'
_cell_volume   196.94011539
_cell_formula_units_Z   1
loop_
 _symmetry_equiv_pos_site_id
 _symmetry_equiv_pos_as_xyz
  1  'x, y, z'
loop_
 _atom_site_type_symbol
 _atom_site_label
 _atom_site_symmetry_multiplicity
 _atom_site_fract_x
 _atom_site_fract_y
 _atom_site_fract_z
 _atom_site_occupancy
  Tm  Tm0  1  0.393915  0.411635  0.500000  1
  Tm  Tm1  1  0.588365  0.982280  0.500000  1
  Tm  Tm2  1  0.017720  0.606085  0.500000  1
  Zn  Zn3  1  0.666667  0.333333  0.000000  1
  Zn  Zn4  1  0.000000  0.000000  0.500000  1
  In  In5  1  0.993201  0.259286  0.000000  1
  In  In6  1  0.740714  0.733916  0.000000  1
  In  In7  1  0.266084  0.006799  0.000000  1
  Pt  Pt8  1  0.333333  0.666667  0.000000  1
