# generated using pymatgen
data_NdPtF7
_symmetry_space_group_name_H-M   'P 1'
_cell_length_a   5.73745500
_cell_length_b   9.19325029
_cell_length_c   12.31524123
_cell_angle_alpha   61.92773642
_cell_angle_beta   90.00000000
_cell_angle_gamma   90.00000000
_symmetry_Int_Tables_number   1
_chemical_formula_structural   NdPtF7
_chemical_formula_sum   'Nd4 Pt4 F28'
_cell_volume   573.15823992
_cell_formula_units_Z   4
loop_
 _symmetry_equiv_pos_site_id
 _symmetry_equiv_pos_as_xyz
  1  'x, y, z'
loop_
 _atom_site_type_symbol
 _atom_site_label
 _atom_site_symmetry_multiplicity
 _atom_site_fract_x
 _atom_site_fract_y
 _atom_site_fract_z
 _atom_site_occupancy
  Nd  Nd0  1  0.760296  0.811350  0.265013  1
  Nd  Nd1  1  0.260296  0.188650  0.234987  1
  Nd  Nd2  1  0.239704  0.188650  0.734987  1
  Nd  Nd3  1  0.739704  0.811350  0.765013  1
  Pt  Pt4  1  0.243068  0.726821  0.543075  1
  Pt  Pt5  1  0.743068  0.273179  0.956925  1
  Pt  Pt6  1  0.756932  0.273179  0.456925  1
  Pt  Pt7  1  0.256932  0.726821  0.043075  1
  F  F8  1  0.960193  0.713578  0.457103  1
  F  F9  1  0.460193  0.286422  0.042897  1
  F  F10  1  0.039807  0.286422  0.542897  1
  F  F11  1  0.539807  0.713578  0.957103  1
  F  F12  1  0.056457  0.705772  0.921434  1
  F  F13  1  0.556457  0.294228  0.578566  1
  F  F14  1  0.943543  0.294228  0.078566  1
  F  F15  1  0.443543  0.705772  0.421434  1
  F  F16  1  0.737168  0.515158  0.859388  1
  F  F17  1  0.237168  0.484842  0.640612  1
  F  F18  1  0.262832  0.484842  0.140612  1
  F  F19  1  0.762832  0.515158  0.359388  1
  F  F20  1  0.741294  0.030930  0.049337  1
  F  F21  1  0.241294  0.969070  0.450663  1
  F  F22  1  0.258706  0.969070  0.950663  1
  F  F23  1  0.758706  0.030930  0.549337  1
  F  F24  1  0.045824  0.742554  0.668220  1
  F  F25  1  0.545824  0.257446  0.831780  1
  F  F26  1  0.954176  0.257446  0.331780  1
  F  F27  1  0.454176  0.742554  0.168220  1
  F  F28  1  0.020604  0.269165  0.864839  1
  F  F29  1  0.520604  0.730835  0.635161  1
  F  F30  1  0.979396  0.730835  0.135161  1
  F  F31  1  0.479396  0.269165  0.364839  1
  F  F32  1  0.087244  0.969220  0.231878  1
  F  F33  1  0.587244  0.030780  0.268122  1
  F  F34  1  0.912756  0.030780  0.768122  1
  F  F35  1  0.412756  0.969220  0.731878  1
