# generated using pymatgen
data_ScNb4Ga(B2Ru5)2
_symmetry_space_group_name_H-M   'P 1'
_cell_length_a   9.41478728
_cell_length_b   9.41155725
_cell_length_c   3.02767500
_cell_angle_alpha   90.00000000
_cell_angle_beta   90.00000000
_cell_angle_gamma   90.05940071
_symmetry_Int_Tables_number   1
_chemical_formula_structural   ScNb4Ga(B2Ru5)2
_chemical_formula_sum   'Sc1 Nb4 Ga1 B4 Ru10'
_cell_volume   268.27550538
_cell_formula_units_Z   1
loop_
 _symmetry_equiv_pos_site_id
 _symmetry_equiv_pos_as_xyz
  1  'x, y, z'
loop_
 _atom_site_type_symbol
 _atom_site_label
 _atom_site_symmetry_multiplicity
 _atom_site_fract_x
 _atom_site_fract_y
 _atom_site_fract_z
 _atom_site_occupancy
  Sc  Sc0  1  0.821751  0.673624  0.000000  1
  Nb  Nb1  1  0.177335  0.325252  0.000000  1
  Nb  Nb2  1  0.325333  0.821655  0.000000  1
  Nb  Nb3  1  0.675403  0.176979  0.000000  1
  Nb  Nb4  1  0.998841  0.997773  0.000000  1
  Ga  Ga5  1  0.502785  0.501313  0.000000  1
  B  B6  1  0.617801  0.871662  0.000000  1
  B  B7  1  0.382169  0.129425  0.000000  1
  B  B8  1  0.127925  0.617024  0.000000  1
  B  B9  1  0.873075  0.383142  0.000000  1
  Ru  Ru10  1  0.498300  0.001413  0.500000  1
  Ru  Ru11  1  0.002781  0.497592  0.500000  1
  Ru  Ru12  1  0.561674  0.717763  0.500000  1
  Ru  Ru13  1  0.430723  0.286630  0.500000  1
  Ru  Ru14  1  0.078530  0.782016  0.500000  1
  Ru  Ru15  1  0.928995  0.218487  0.500000  1
  Ru  Ru16  1  0.286692  0.567130  0.500000  1
  Ru  Ru17  1  0.713323  0.423381  0.500000  1
  Ru  Ru18  1  0.218518  0.073950  0.500000  1
  Ru  Ru19  1  0.778046  0.933788  0.500000  1
