# generated using pymatgen
data_Ti6Tl8FeCl20
_symmetry_space_group_name_H-M   'P 1'
_cell_length_a   11.08285887
_cell_length_b   11.08285973
_cell_length_c   11.08285900
_cell_angle_alpha   59.99999919
_cell_angle_beta   59.99999662
_cell_angle_gamma   59.99999859
_symmetry_Int_Tables_number   1
_chemical_formula_structural   Ti6Tl8FeCl20
_chemical_formula_sum   'Ti6 Tl8 Fe1 Cl20'
_cell_volume   962.58797330
_cell_formula_units_Z   1
loop_
 _symmetry_equiv_pos_site_id
 _symmetry_equiv_pos_as_xyz
  1  'x, y, z'
loop_
 _atom_site_type_symbol
 _atom_site_label
 _atom_site_symmetry_multiplicity
 _atom_site_fract_x
 _atom_site_fract_y
 _atom_site_fract_z
 _atom_site_occupancy
  Ti  Ti0  1  0.854441  0.145559  0.145559  1
  Ti  Ti1  1  0.145559  0.854441  0.854441  1
  Ti  Ti2  1  0.145559  0.854441  0.145559  1
  Ti  Ti3  1  0.854441  0.145559  0.854441  1
  Ti  Ti4  1  0.145559  0.145559  0.854441  1
  Ti  Ti5  1  0.854441  0.854441  0.145559  1
  Tl  Tl6  1  0.360158  0.360158  0.360158  1
  Tl  Tl7  1  0.639842  0.639842  0.639842  1
  Tl  Tl8  1  0.360158  0.360158  0.919526  1
  Tl  Tl9  1  0.360158  0.919526  0.360158  1
  Tl  Tl10  1  0.639842  0.639842  0.080474  1
  Tl  Tl11  1  0.639842  0.080474  0.639842  1
  Tl  Tl12  1  0.919526  0.360158  0.360158  1
  Tl  Tl13  1  0.080474  0.639842  0.639842  1
  Fe  Fe14  1  0.000000  0.000000  0.000000  1
  Cl  Cl15  1  0.316019  0.000000  0.000000  1
  Cl  Cl16  1  0.683981  0.000000  0.000000  1
  Cl  Cl17  1  0.000000  0.316019  0.683981  1
  Cl  Cl18  1  0.000000  0.683981  0.316019  1
  Cl  Cl19  1  0.000000  0.316019  0.000000  1
  Cl  Cl20  1  0.683981  0.000000  0.316019  1
  Cl  Cl21  1  0.000000  0.683981  0.000000  1
  Cl  Cl22  1  0.316019  0.000000  0.683981  1
  Cl  Cl23  1  0.000000  0.000000  0.316019  1
  Cl  Cl24  1  0.000000  0.000000  0.683981  1
  Cl  Cl25  1  0.683981  0.316019  0.000000  1
  Cl  Cl26  1  0.316019  0.683981  0.000000  1
  Cl  Cl27  1  0.690601  0.309399  0.309399  1
  Cl  Cl28  1  0.309399  0.690601  0.690601  1
  Cl  Cl29  1  0.309399  0.690601  0.309399  1
  Cl  Cl30  1  0.690601  0.309399  0.690601  1
  Cl  Cl31  1  0.309399  0.309399  0.690601  1
  Cl  Cl32  1  0.690601  0.690601  0.309399  1
  Cl  Cl33  1  0.250000  0.250000  0.250000  1
  Cl  Cl34  1  0.750000  0.750000  0.750000  1
