# generated using pymatgen
data_YHo2Sn3PdRh2
_symmetry_space_group_name_H-M   'P 1'
_cell_length_a   7.60143885
_cell_length_b   7.59802716
_cell_length_c   3.84832700
_cell_angle_alpha   90.00000000
_cell_angle_beta   90.00000000
_cell_angle_gamma   119.96064706
_symmetry_Int_Tables_number   1
_chemical_formula_structural   YHo2Sn3PdRh2
_chemical_formula_sum   'Y1 Ho2 Sn3 Pd1 Rh2'
_cell_volume   192.56232829
_cell_formula_units_Z   1
loop_
 _symmetry_equiv_pos_site_id
 _symmetry_equiv_pos_as_xyz
  1  'x, y, z'
loop_
 _atom_site_type_symbol
 _atom_site_label
 _atom_site_symmetry_multiplicity
 _atom_site_fract_x
 _atom_site_fract_y
 _atom_site_fract_z
 _atom_site_occupancy
  Y  Y0  1  0.008840  0.408058  0.000000  1
  Ho  Ho1  1  0.591700  0.600853  0.000000  1
  Ho  Ho2  1  0.399140  0.990890  0.000000  1
  Sn  Sn3  1  0.260761  0.261375  0.500000  1
  Sn  Sn4  1  0.000951  0.739666  0.500000  1
  Sn  Sn5  1  0.738331  0.998811  0.500000  1
  Pd  Pd6  1  0.665780  0.333199  0.500000  1
  Rh  Rh7  1  0.334526  0.667702  0.500000  1
  Rh  Rh8  1  0.999971  0.999446  0.000000  1
