# generated using pymatgen
data_Yb4Y5Ho(CuPb3)2
_symmetry_space_group_name_H-M   'P 1'
_cell_length_a   9.21613512
_cell_length_b   9.21613450
_cell_length_c   6.79961900
_cell_angle_alpha   90.00000000
_cell_angle_beta   90.00000000
_cell_angle_gamma   120.01811610
_symmetry_Int_Tables_number   1
_chemical_formula_structural   Yb4Y5Ho(CuPb3)2
_chemical_formula_sum   'Yb4 Y5 Ho1 Cu2 Pb6'
_cell_volume   500.07315195
_cell_formula_units_Z   1
loop_
 _symmetry_equiv_pos_site_id
 _symmetry_equiv_pos_as_xyz
  1  'x, y, z'
loop_
 _atom_site_type_symbol
 _atom_site_label
 _atom_site_symmetry_multiplicity
 _atom_site_fract_x
 _atom_site_fract_y
 _atom_site_fract_z
 _atom_site_occupancy
  Yb  Yb0  1  0.333134  0.666398  0.500001  1
  Yb  Yb1  1  0.666398  0.333134  0.500001  1
  Yb  Yb2  1  0.666398  0.333134  0.999999  1
  Yb  Yb3  1  0.333134  0.666398  0.999999  1
  Y  Y4  1  0.259151  0.999639  0.750000  1
  Y  Y5  1  0.739799  0.999146  0.250000  1
  Y  Y6  1  0.999639  0.259151  0.750000  1
  Y  Y7  1  0.999146  0.739799  0.250000  1
  Y  Y8  1  0.741934  0.741934  0.750000  1
  Ho  Ho9  1  0.259539  0.259539  0.250000  1
  Cu  Cu10  1  0.002671  0.002671  0.496669  1
  Cu  Cu11  1  0.002671  0.002671  0.003331  1
  Pb  Pb12  1  0.613810  0.999530  0.750000  1
  Pb  Pb13  1  0.384694  0.000261  0.250000  1
  Pb  Pb14  1  0.999530  0.613810  0.750000  1
  Pb  Pb15  1  0.000261  0.384694  0.250000  1
  Pb  Pb16  1  0.385342  0.385342  0.750000  1
  Pb  Pb17  1  0.612750  0.612750  0.250000  1
