# generated using pymatgen
data_Dy7TmLu2(In2Pt)4
_symmetry_space_group_name_H-M   'P 1'
_cell_length_a   3.61980300
_cell_length_b   8.13745702
_cell_length_c   18.15294755
_cell_angle_alpha   89.95719014
_cell_angle_beta   90.00000000
_cell_angle_gamma   90.00000000
_symmetry_Int_Tables_number   1
_chemical_formula_structural   Dy7TmLu2(In2Pt)4
_chemical_formula_sum   'Dy7 Tm1 Lu2 In8 Pt4'
_cell_volume   534.71291641
_cell_formula_units_Z   1
loop_
 _symmetry_equiv_pos_site_id
 _symmetry_equiv_pos_as_xyz
  1  'x, y, z'
loop_
 _atom_site_type_symbol
 _atom_site_label
 _atom_site_symmetry_multiplicity
 _atom_site_fract_x
 _atom_site_fract_y
 _atom_site_fract_z
 _atom_site_occupancy
  Dy  Dy0  1  0.000000  0.617451  0.084474  1
  Dy  Dy1  1  0.000000  0.243152  0.219901  1
  Dy  Dy2  1  0.000000  0.757676  0.780353  1
  Dy  Dy3  1  0.000000  0.257435  0.719072  1
  Dy  Dy4  1  0.000000  0.742100  0.281169  1
  Dy  Dy5  1  0.000000  0.999637  0.999548  1
  Dy  Dy6  1  0.000000  0.500314  0.500208  1
  Tm  Tm7  1  0.000000  0.117104  0.414691  1
  Lu  Lu8  1  0.000000  0.883337  0.586106  1
  Lu  Lu9  1  0.000000  0.383292  0.913563  1
  In  In10  1  0.500000  0.420742  0.351622  1
  In  In11  1  0.500000  0.579417  0.648884  1
  In  In12  1  0.500000  0.079205  0.850888  1
  In  In13  1  0.500000  0.923445  0.149670  1
  In  In14  1  0.500000  0.293499  0.064870  1
  In  In15  1  0.500000  0.704192  0.933401  1
  In  In16  1  0.500000  0.203114  0.564831  1
  In  In17  1  0.500000  0.796656  0.435614  1
  Pt  Pt18  1  0.500000  0.025996  0.304997  1
  Pt  Pt19  1  0.500000  0.973707  0.694695  1
  Pt  Pt20  1  0.500000  0.473088  0.804754  1
  Pt  Pt21  1  0.500000  0.525444  0.196691  1
