# generated using pymatgen
data_Pa4Al18Ir5W
_symmetry_space_group_name_H-M   'P 1'
_cell_length_a   7.61829388
_cell_length_b   7.61829537
_cell_length_c   9.34719851
_cell_angle_alpha   89.50501402
_cell_angle_beta   89.50501813
_cell_angle_gamma   118.41337058
_symmetry_Int_Tables_number   1
_chemical_formula_structural   Pa4Al18Ir5W
_chemical_formula_sum   'Pa4 Al18 Ir5 W1'
_cell_volume   477.07816407
_cell_formula_units_Z   1
loop_
 _symmetry_equiv_pos_site_id
 _symmetry_equiv_pos_as_xyz
  1  'x, y, z'
loop_
 _atom_site_type_symbol
 _atom_site_label
 _atom_site_symmetry_multiplicity
 _atom_site_fract_x
 _atom_site_fract_y
 _atom_site_fract_z
 _atom_site_occupancy
  Pa  Pa0  1  0.995972  0.692121  0.244299  1
  Pa  Pa1  1  0.004028  0.307879  0.755701  1
  Pa  Pa2  1  0.692121  0.995972  0.244299  1
  Pa  Pa3  1  0.307879  0.004028  0.755701  1
  Al  Al4  1  0.145282  0.145282  0.252277  1
  Al  Al5  1  0.854718  0.854718  0.747723  1
  Al  Al6  1  0.009188  0.347107  0.081783  1
  Al  Al7  1  0.990812  0.652893  0.918217  1
  Al  Al8  1  0.996911  0.656358  0.577557  1
  Al  Al9  1  0.343642  0.003089  0.422443  1
  Al  Al10  1  0.003089  0.343642  0.422443  1
  Al  Al11  1  0.656358  0.996911  0.577557  1
  Al  Al12  1  0.652893  0.990812  0.918217  1
  Al  Al13  1  0.347107  0.009188  0.081783  1
  Al  Al14  1  0.334914  0.334914  0.547592  1
  Al  Al15  1  0.665086  0.665086  0.452408  1
  Al  Al16  1  0.660967  0.660967  0.046298  1
  Al  Al17  1  0.339033  0.339033  0.953702  1
  Al  Al18  1  0.346452  0.558574  0.251200  1
  Al  Al19  1  0.653548  0.441426  0.748800  1
  Al  Al20  1  0.558574  0.346452  0.251200  1
  Al  Al21  1  0.441426  0.653548  0.748800  1
  Ir  Ir22  1  0.674661  0.325339  0.000000  1
  Ir  Ir23  1  0.325339  0.674661  0.000000  1
  Ir  Ir24  1  0.327226  0.672774  0.500000  1
  Ir  Ir25  1  0.672774  0.327226  0.500000  1
  Ir  Ir26  1  0.000000  0.000000  0.500000  1
  W  W27  1  0.000000  0.000000  0.000000  1
