# generated using pymatgen
data_Th8Cu3Si12W
_symmetry_space_group_name_H-M   'P 1'
_cell_length_a   8.14242900
_cell_length_b   8.14242930
_cell_length_c   8.52334100
_cell_angle_alpha   90.00000000
_cell_angle_beta   90.00000000
_cell_angle_gamma   119.99999471
_symmetry_Int_Tables_number   1
_chemical_formula_structural   Th8Cu3Si12W
_chemical_formula_sum   'Th8 Cu3 Si12 W1'
_cell_volume   489.38256798
_cell_formula_units_Z   1
loop_
 _symmetry_equiv_pos_site_id
 _symmetry_equiv_pos_as_xyz
  1  'x, y, z'
loop_
 _atom_site_type_symbol
 _atom_site_label
 _atom_site_symmetry_multiplicity
 _atom_site_fract_x
 _atom_site_fract_y
 _atom_site_fract_z
 _atom_site_occupancy
  Th  Th0  1  0.000000  0.000000  0.747374  1
  Th  Th1  1  0.000000  0.000000  0.252755  1
  Th  Th2  1  0.496737  0.503263  0.755599  1
  Th  Th3  1  0.496737  0.993476  0.755599  1
  Th  Th4  1  0.006524  0.503263  0.755599  1
  Th  Th5  1  0.497118  0.502882  0.244416  1
  Th  Th6  1  0.005766  0.502882  0.244416  1
  Th  Th7  1  0.497118  0.994234  0.244416  1
  Cu  Cu8  1  0.666667  0.333333  0.998920  1
  Cu  Cu9  1  0.666667  0.333333  0.500994  1
  Cu  Cu10  1  0.333333  0.666667  0.499089  1
  Si  Si11  1  0.831903  0.168097  0.999870  1
  Si  Si12  1  0.831903  0.663807  0.999870  1
  Si  Si13  1  0.336193  0.168097  0.999870  1
  Si  Si14  1  0.830205  0.169795  0.500120  1
  Si  Si15  1  0.830205  0.660409  0.500120  1
  Si  Si16  1  0.339591  0.169795  0.500120  1
  Si  Si17  1  0.168433  0.831567  0.499947  1
  Si  Si18  1  0.663135  0.831567  0.499947  1
  Si  Si19  1  0.168433  0.336865  0.499947  1
  Si  Si20  1  0.162959  0.837041  0.000173  1
  Si  Si21  1  0.674083  0.837041  0.000173  1
  Si  Si22  1  0.162959  0.325917  0.000173  1
  W  W23  1  0.333333  0.666667  0.000494  1
