# generated using pymatgen
data_LiDy16In2AgRh4
_symmetry_space_group_name_H-M   'P 1'
_cell_length_a   9.64820094
_cell_length_b   9.65095844
_cell_length_c   9.61118602
_cell_angle_alpha   59.79905494
_cell_angle_beta   59.99432868
_cell_angle_gamma   59.85113659
_symmetry_Int_Tables_number   1
_chemical_formula_structural   LiDy16In2AgRh4
_chemical_formula_sum   'Li1 Dy16 In2 Ag1 Rh4'
_cell_volume   631.11262069
_cell_formula_units_Z   1
loop_
 _symmetry_equiv_pos_site_id
 _symmetry_equiv_pos_as_xyz
  1  'x, y, z'
loop_
 _atom_site_type_symbol
 _atom_site_label
 _atom_site_symmetry_multiplicity
 _atom_site_fract_x
 _atom_site_fract_y
 _atom_site_fract_z
 _atom_site_occupancy
  Li  Li0  1  0.212210  0.927997  0.933308  1
  Dy  Dy1  1  0.691368  0.311579  0.308909  1
  Dy  Dy2  1  0.690877  0.688742  0.310418  1
  Dy  Dy3  1  0.314207  0.687858  0.312772  1
  Dy  Dy4  1  0.936760  0.934301  0.558126  1
  Dy  Dy5  1  0.146486  0.151611  0.549149  1
  Dy  Dy6  1  0.564131  0.938215  0.557634  1
  Dy  Dy7  1  0.151619  0.153259  0.152034  1
  Dy  Dy8  1  0.312966  0.312849  0.688193  1
  Dy  Dy9  1  0.938772  0.567403  0.556997  1
  Dy  Dy10  1  0.563990  0.562342  0.935835  1
  Dy  Dy11  1  0.565162  0.934771  0.935012  1
  Dy  Dy12  1  0.937472  0.562795  0.933383  1
  Dy  Dy13  1  0.148687  0.546552  0.149944  1
  Dy  Dy14  1  0.314158  0.687068  0.687266  1
  Dy  Dy15  1  0.693642  0.306576  0.691486  1
  Dy  Dy16  1  0.553552  0.150069  0.147079  1
  In  In17  1  0.920988  0.244731  0.922095  1
  In  In18  1  0.919772  0.917186  0.920075  1
  Ag  Ag19  1  0.918468  0.914969  0.251193  1
  Rh  Rh20  1  0.359278  0.357122  0.357431  1
  Rh  Rh21  1  0.927378  0.356897  0.357898  1
  Rh  Rh22  1  0.358850  0.356762  0.926730  1
  Rh  Rh23  1  0.359206  0.928348  0.357036  1
