# generated using pymatgen
data_Zr3PaPdRh3
_symmetry_space_group_name_H-M   'P 1'
_cell_length_a   4.40124000
_cell_length_b   5.45704709
_cell_length_c   6.47258272
_cell_angle_alpha   90.85446735
_cell_angle_beta   90.00000000
_cell_angle_gamma   90.00000000
_symmetry_Int_Tables_number   1
_chemical_formula_structural   Zr3PaPdRh3
_chemical_formula_sum   'Zr3 Pa1 Pd1 Rh3'
_cell_volume   155.43974170
_cell_formula_units_Z   1
loop_
 _symmetry_equiv_pos_site_id
 _symmetry_equiv_pos_as_xyz
  1  'x, y, z'
loop_
 _atom_site_type_symbol
 _atom_site_label
 _atom_site_symmetry_multiplicity
 _atom_site_fract_x
 _atom_site_fract_y
 _atom_site_fract_z
 _atom_site_occupancy
  Zr  Zr0  1  0.250000  0.359658  0.675836  1
  Zr  Zr1  1  0.750000  0.643567  0.321106  1
  Zr  Zr2  1  0.250000  0.148967  0.178465  1
  Pa  Pa3  1  0.750000  0.850062  0.824045  1
  Pd  Pd4  1  0.750000  0.160069  0.456408  1
  Rh  Rh5  1  0.250000  0.836596  0.542064  1
  Rh  Rh6  1  0.250000  0.669477  0.055467  1
  Rh  Rh7  1  0.750000  0.331602  0.946609  1
