# generated using pymatgen
data_Eu3TmMnMo3O14
_symmetry_space_group_name_H-M   'P 1'
_cell_length_a   7.49831620
_cell_length_b   7.49831641
_cell_length_c   7.33145800
_cell_angle_alpha   59.24423245
_cell_angle_beta   59.24423150
_cell_angle_gamma   60.00001164
_symmetry_Int_Tables_number   1
_chemical_formula_structural   Eu3TmMnMo3O14
_chemical_formula_sum   'Eu3 Tm1 Mn1 Mo3 O14'
_cell_volume   288.10191308
_cell_formula_units_Z   1
loop_
 _symmetry_equiv_pos_site_id
 _symmetry_equiv_pos_as_xyz
  1  'x, y, z'
loop_
 _atom_site_type_symbol
 _atom_site_label
 _atom_site_symmetry_multiplicity
 _atom_site_fract_x
 _atom_site_fract_y
 _atom_site_fract_z
 _atom_site_occupancy
  Eu  Eu0  1  0.125000  0.625000  0.125000  1
  Eu  Eu1  1  0.625000  0.125000  0.125000  1
  Eu  Eu2  1  0.125000  0.125000  0.125000  1
  Tm  Tm3  1  0.125000  0.125000  0.625000  1
  Mn  Mn4  1  0.625000  0.625000  0.125000  1
  Mo  Mo5  1  0.625000  0.625000  0.625000  1
  Mo  Mo6  1  0.125000  0.625000  0.625000  1
  Mo  Mo7  1  0.625000  0.125000  0.625000  1
  O  O8  1  0.296000  0.720073  0.687927  1
  O  O9  1  0.542486  0.969524  0.945503  1
  O  O10  1  0.707514  0.707514  0.304497  1
  O  O11  1  0.296000  0.296000  0.687927  1
  O  O12  1  0.003414  0.003414  0.989758  1
  O  O13  1  0.280476  0.707514  0.304497  1
  O  O14  1  0.720073  0.296000  0.687927  1
  O  O15  1  0.969524  0.542486  0.945503  1
  O  O16  1  0.542486  0.542486  0.945503  1
  O  O17  1  0.954000  0.954000  0.562073  1
  O  O18  1  0.246586  0.246586  0.260242  1
  O  O19  1  0.529927  0.954000  0.562073  1
  O  O20  1  0.707514  0.280476  0.304497  1
  O  O21  1  0.954000  0.529927  0.562073  1
