# generated using pymatgen
data_Nd4Al15Ga2SiIr6
_symmetry_space_group_name_H-M   'P 1'
_cell_length_a   7.59545644
_cell_length_b   7.58103099
_cell_length_c   9.63987595
_cell_angle_alpha   90.04085724
_cell_angle_beta   89.89072332
_cell_angle_gamma   119.46676408
_symmetry_Int_Tables_number   1
_chemical_formula_structural   Nd4Al15Ga2SiIr6
_chemical_formula_sum   'Nd4 Al15 Ga2 Si1 Ir6'
_cell_volume   483.27241002
_cell_formula_units_Z   1
loop_
 _symmetry_equiv_pos_site_id
 _symmetry_equiv_pos_as_xyz
  1  'x, y, z'
loop_
 _atom_site_type_symbol
 _atom_site_label
 _atom_site_symmetry_multiplicity
 _atom_site_fract_x
 _atom_site_fract_y
 _atom_site_fract_z
 _atom_site_occupancy
  Nd  Nd0  1  0.994376  0.667403  0.247354  1
  Nd  Nd1  1  0.005187  0.326552  0.753907  1
  Nd  Nd2  1  0.678831  0.001349  0.246904  1
  Nd  Nd3  1  0.326005  0.005617  0.750512  1
  Al  Al4  1  0.996070  0.668668  0.925727  1
  Al  Al5  1  0.997296  0.664309  0.571497  1
  Al  Al6  1  0.335755  0.000902  0.428152  1
  Al  Al7  1  0.003488  0.335887  0.432766  1
  Al  Al8  1  0.663534  0.997311  0.571559  1
  Al  Al9  1  0.658845  0.992042  0.925535  1
  Al  Al10  1  0.334879  0.001635  0.072762  1
  Al  Al11  1  0.335952  0.335085  0.550378  1
  Al  Al12  1  0.665899  0.666442  0.448552  1
  Al  Al13  1  0.664773  0.665581  0.053236  1
  Al  Al14  1  0.338663  0.335609  0.949842  1
  Al  Al15  1  0.338688  0.547108  0.250364  1
  Al  Al16  1  0.662513  0.452258  0.750228  1
  Al  Al17  1  0.545157  0.338554  0.249989  1
  Al  Al18  1  0.451223  0.659630  0.749583  1
  Ga  Ga19  1  0.138091  0.134363  0.250733  1
  Ga  Ga20  1  0.863494  0.865613  0.749989  1
  Si  Si21  1  0.002727  0.336895  0.069783  1
  Ir  Ir22  1  0.678314  0.329485  0.001527  1
  Ir  Ir23  1  0.320820  0.662818  0.000470  1
  Ir  Ir24  1  0.328968  0.670054  0.499496  1
  Ir  Ir25  1  0.671086  0.329545  0.499044  1
  Ir  Ir26  1  0.999368  0.008542  0.000626  1
  Ir  Ir27  1  0.999995  0.000746  0.499487  1
