# generated using pymatgen
data_TmLu2(CoSn2)2
_symmetry_space_group_name_H-M   'P 1'
_cell_length_a   7.34283719
_cell_length_b   7.35180489
_cell_length_c   4.06505500
_cell_angle_alpha   90.00000000
_cell_angle_beta   90.00000000
_cell_angle_gamma   119.98547428
_symmetry_Int_Tables_number   1
_chemical_formula_structural   TmLu2(CoSn2)2
_chemical_formula_sum   'Tm1 Lu2 Co2 Sn4'
_cell_volume   190.07214617
_cell_formula_units_Z   1
loop_
 _symmetry_equiv_pos_site_id
 _symmetry_equiv_pos_as_xyz
  1  'x, y, z'
loop_
 _atom_site_type_symbol
 _atom_site_label
 _atom_site_symmetry_multiplicity
 _atom_site_fract_x
 _atom_site_fract_y
 _atom_site_fract_z
 _atom_site_occupancy
  Tm  Tm0  1  0.941811  0.693153  0.500000  1
  Lu  Lu1  1  0.305898  0.248639  0.500000  1
  Lu  Lu2  1  0.751505  0.057543  0.500000  1
  Co  Co3  1  0.333847  0.666738  0.500000  1
  Co  Co4  1  0.000194  0.000695  0.000000  1
  Sn  Sn5  1  0.098679  0.408135  0.000000  1
  Sn  Sn6  1  0.591668  0.690617  0.000000  1
  Sn  Sn7  1  0.310169  0.901782  0.000000  1
  Sn  Sn8  1  0.666227  0.332699  0.000000  1
