# generated using pymatgen
data_Th2CdNi(SeO4)6
_symmetry_space_group_name_H-M   'P 1'
_cell_length_a   9.38032000
_cell_length_b   9.38037104
_cell_length_c   6.25808500
_cell_angle_alpha   89.99970922
_cell_angle_beta   89.99969777
_cell_angle_gamma   120.00090543
_symmetry_Int_Tables_number   1
_chemical_formula_structural   Th2CdNi(SeO4)6
_chemical_formula_sum   'Th2 Cd1 Ni1 Se6 O24'
_cell_volume   476.87636484
_cell_formula_units_Z   1
loop_
 _symmetry_equiv_pos_site_id
 _symmetry_equiv_pos_as_xyz
  1  'x, y, z'
loop_
 _atom_site_type_symbol
 _atom_site_label
 _atom_site_symmetry_multiplicity
 _atom_site_fract_x
 _atom_site_fract_y
 _atom_site_fract_z
 _atom_site_occupancy
  Th  Th0  1  0.333332  0.666672  0.256001  1
  Th  Th1  1  0.666668  0.333328  0.743998  1
  Cd  Cd2  1  0.000000  0.000000  0.500001  1
  Ni  Ni3  1  0.000000  0.000000  0.000000  1
  Se  Se4  1  0.714391  0.098728  0.242242  1
  Se  Se5  1  0.384344  0.285614  0.242241  1
  Se  Se6  1  0.901269  0.615658  0.242240  1
  Se  Se7  1  0.098731  0.384343  0.757759  1
  Se  Se8  1  0.615655  0.714386  0.757758  1
  Se  Se9  1  0.285609  0.901272  0.757757  1
  O  O10  1  0.783034  0.542558  0.027625  1
  O  O11  1  0.759527  0.216968  0.027627  1
  O  O12  1  0.457445  0.240474  0.027625  1
  O  O13  1  0.836367  0.011921  0.229786  1
  O  O14  1  0.175566  0.163636  0.229769  1
  O  O15  1  0.444817  0.485133  0.249436  1
  O  O16  1  0.040315  0.555189  0.249436  1
  O  O17  1  0.988083  0.824442  0.229775  1
  O  O18  1  0.514876  0.959684  0.249435  1
  O  O19  1  0.445830  0.234867  0.464580  1
  O  O20  1  0.765130  0.210959  0.464578  1
  O  O21  1  0.789040  0.554169  0.464582  1
  O  O22  1  0.210961  0.445830  0.535419  1
  O  O23  1  0.234870  0.789041  0.535422  1
  O  O24  1  0.554169  0.765132  0.535420  1
  O  O25  1  0.485124  0.040316  0.750564  1
  O  O26  1  0.011918  0.175557  0.770224  1
  O  O27  1  0.959685  0.444812  0.750563  1
  O  O28  1  0.555183  0.514867  0.750563  1
  O  O29  1  0.824434  0.836364  0.770230  1
  O  O30  1  0.163632  0.988078  0.770213  1
  O  O31  1  0.542554  0.759525  0.972375  1
  O  O32  1  0.240473  0.783032  0.972372  1
  O  O33  1  0.216967  0.457441  0.972375  1
