# generated using pymatgen
data_Rb3Np2Te6Pb
_symmetry_space_group_name_H-M   'P 1'
_cell_length_a   7.97419416
_cell_length_b   7.97419475
_cell_length_c   8.71500900
_cell_angle_alpha   81.31749002
_cell_angle_beta   81.31748938
_cell_angle_gamma   119.31941110
_symmetry_Int_Tables_number   1
_chemical_formula_structural   Rb3Np2Te6Pb
_chemical_formula_sum   'Rb3 Np2 Te6 Pb1'
_cell_volume   461.09982617
_cell_formula_units_Z   1
loop_
 _symmetry_equiv_pos_site_id
 _symmetry_equiv_pos_as_xyz
  1  'x, y, z'
loop_
 _atom_site_type_symbol
 _atom_site_label
 _atom_site_symmetry_multiplicity
 _atom_site_fract_x
 _atom_site_fract_y
 _atom_site_fract_z
 _atom_site_occupancy
  Rb  Rb0  1  0.657201  0.342799  0.500000  1
  Rb  Rb1  1  0.342799  0.657201  0.500000  1
  Rb  Rb2  1  0.000000  0.000000  0.500000  1
  Np  Np3  1  0.831803  0.168197  0.000000  1
  Np  Np4  1  0.168197  0.831803  0.000000  1
  Te  Te5  1  0.783603  0.783603  0.199468  1
  Te  Te6  1  0.216397  0.216397  0.800532  1
  Te  Te7  1  0.431284  0.081385  0.205151  1
  Te  Te8  1  0.568716  0.918615  0.794849  1
  Te  Te9  1  0.918615  0.568716  0.794849  1
  Te  Te10  1  0.081385  0.431284  0.205151  1
  Pb  Pb11  1  0.500000  0.500000  0.000000  1
