# generated using pymatgen
data_Tb4Hf3ReF28
_symmetry_space_group_name_H-M   'P 1'
_cell_length_a   5.70781753
_cell_length_b   9.05740409
_cell_length_c   12.18100200
_cell_angle_alpha   62.42616815
_cell_angle_beta   89.99509957
_cell_angle_gamma   90.04140341
_symmetry_Int_Tables_number   1
_chemical_formula_structural   Tb4Hf3ReF28
_chemical_formula_sum   'Tb4 Hf3 Re1 F28'
_cell_volume   558.20511922
_cell_formula_units_Z   1
loop_
 _symmetry_equiv_pos_site_id
 _symmetry_equiv_pos_as_xyz
  1  'x, y, z'
loop_
 _atom_site_type_symbol
 _atom_site_label
 _atom_site_symmetry_multiplicity
 _atom_site_fract_x
 _atom_site_fract_y
 _atom_site_fract_z
 _atom_site_occupancy
  Tb  Tb0  1  0.256832  0.814536  0.265755  1
  Tb  Tb1  1  0.743671  0.186701  0.734248  1
  Tb  Tb2  1  0.756792  0.185360  0.234665  1
  Tb  Tb3  1  0.242616  0.814706  0.763666  1
  Hf  Hf4  1  0.755165  0.726144  0.043394  1
  Hf  Hf5  1  0.244985  0.274649  0.955909  1
  Hf  Hf6  1  0.255108  0.274462  0.456314  1
  Re  Re7  1  0.743434  0.726411  0.543703  1
  F  F8  1  0.952961  0.707683  0.421059  1
  F  F9  1  0.040647  0.289897  0.580455  1
  F  F10  1  0.459257  0.290534  0.080244  1
  F  F11  1  0.540421  0.710245  0.919241  1
  F  F12  1  0.481253  0.733151  0.144400  1
  F  F13  1  0.519136  0.267364  0.855485  1
  F  F14  1  0.980858  0.266479  0.355963  1
  F  F15  1  0.017777  0.731306  0.641909  1
  F  F16  1  0.961200  0.746820  0.170795  1
  F  F17  1  0.039725  0.253118  0.829086  1
  F  F18  1  0.461442  0.252853  0.329598  1
  F  F19  1  0.540559  0.744734  0.669890  1
  F  F20  1  0.768760  0.477458  0.141735  1
  F  F21  1  0.230962  0.523139  0.857701  1
  F  F22  1  0.267293  0.523184  0.358558  1
  F  F23  1  0.734189  0.480391  0.642434  1
  F  F24  1  0.954494  0.281160  0.048547  1
  F  F25  1  0.045403  0.719343  0.950845  1
  F  F26  1  0.458653  0.717792  0.452224  1
  F  F27  1  0.545417  0.281931  0.548466  1
  F  F28  1  0.741423  0.971939  0.446566  1
  F  F29  1  0.259748  0.026131  0.556627  1
  F  F30  1  0.240032  0.026258  0.057036  1
  F  F31  1  0.759806  0.974436  0.943174  1
  F  F32  1  0.575570  0.972015  0.233195  1
  F  F33  1  0.424387  0.027819  0.766380  1
  F  F34  1  0.075778  0.027904  0.267145  1
  F  F35  1  0.924243  0.971947  0.733587  1
