# generated using pymatgen
data_NaLa9(Bi2Ru)2
_symmetry_space_group_name_H-M   'P 1'
_cell_length_a   8.54067586
_cell_length_b   9.25560400
_cell_length_c   12.93131300
_cell_angle_alpha   90.00000000
_cell_angle_beta   89.36358449
_cell_angle_gamma   90.00000000
_symmetry_Int_Tables_number   1
_chemical_formula_structural   NaLa9(Bi2Ru)2
_chemical_formula_sum   'Na2 La18 Bi8 Ru4'
_cell_volume   1022.14577266
_cell_formula_units_Z   2
loop_
 _symmetry_equiv_pos_site_id
 _symmetry_equiv_pos_as_xyz
  1  'x, y, z'
loop_
 _atom_site_type_symbol
 _atom_site_label
 _atom_site_symmetry_multiplicity
 _atom_site_fract_x
 _atom_site_fract_y
 _atom_site_fract_z
 _atom_site_occupancy
  Na  Na0  1  0.462132  0.250000  0.997438  1
  Na  Na1  1  0.537868  0.750000  0.002562  1
  La  La2  1  0.850644  0.750000  0.813467  1
  La  La3  1  0.149356  0.250000  0.186533  1
  La  La4  1  0.347742  0.250000  0.712459  1
  La  La5  1  0.652258  0.750000  0.287541  1
  La  La6  1  0.381632  0.750000  0.697083  1
  La  La7  1  0.618368  0.250000  0.302917  1
  La  La8  1  0.874173  0.250000  0.809719  1
  La  La9  1  0.125827  0.750000  0.190281  1
  La  La10  1  0.940453  0.750000  0.502777  1
  La  La11  1  0.059547  0.250000  0.497223  1
  La  La12  1  0.675956  0.034561  0.565309  1
  La  La13  1  0.324044  0.965439  0.434691  1
  La  La14  1  0.191625  0.974363  0.934940  1
  La  La15  1  0.324044  0.534561  0.434691  1
  La  La16  1  0.808375  0.025637  0.065060  1
  La  La17  1  0.675956  0.465439  0.565309  1
  La  La18  1  0.808375  0.474363  0.065060  1
  La  La19  1  0.191625  0.525637  0.934940  1
  Bi  Bi20  1  0.574896  0.491954  0.831853  1
  Bi  Bi21  1  0.425104  0.508046  0.168147  1
  Bi  Bi22  1  0.071433  0.508547  0.675401  1
  Bi  Bi23  1  0.425104  0.991954  0.168147  1
  Bi  Bi24  1  0.928567  0.491453  0.324599  1
  Bi  Bi25  1  0.574896  0.008046  0.831853  1
  Bi  Bi26  1  0.928567  0.008547  0.324599  1
  Bi  Bi27  1  0.071433  0.991453  0.675401  1
  Ru  Ru28  1  0.578675  0.750000  0.511838  1
  Ru  Ru29  1  0.421325  0.250000  0.488162  1
  Ru  Ru30  1  0.058364  0.250000  0.988326  1
  Ru  Ru31  1  0.941636  0.750000  0.011674  1
