# generated using pymatgen
data_Dy2Lu14In4Ir3Ru
_symmetry_space_group_name_H-M   'P 1'
_cell_length_a   9.51684324
_cell_length_b   9.51684292
_cell_length_c   9.49464274
_cell_angle_alpha   59.87253112
_cell_angle_beta   59.87253295
_cell_angle_gamma   59.79102111
_symmetry_Int_Tables_number   1
_chemical_formula_structural   Dy2Lu14In4Ir3Ru
_chemical_formula_sum   'Dy2 Lu14 In4 Ir3 Ru1'
_cell_volume   605.92943614
_cell_formula_units_Z   1
loop_
 _symmetry_equiv_pos_site_id
 _symmetry_equiv_pos_as_xyz
  1  'x, y, z'
loop_
 _atom_site_type_symbol
 _atom_site_label
 _atom_site_symmetry_multiplicity
 _atom_site_fract_x
 _atom_site_fract_y
 _atom_site_fract_z
 _atom_site_occupancy
  Dy  Dy0  1  0.815230  0.815230  0.183952  1
  Dy  Dy1  1  0.186000  0.186000  0.812152  1
  Lu  Lu2  1  0.601027  0.601027  0.595577  1
  Lu  Lu3  1  0.599867  0.599867  0.206265  1
  Lu  Lu4  1  0.594048  0.206902  0.599904  1
  Lu  Lu5  1  0.206902  0.594048  0.599904  1
  Lu  Lu6  1  0.058917  0.441133  0.440860  1
  Lu  Lu7  1  0.440525  0.057867  0.058015  1
  Lu  Lu8  1  0.441133  0.058917  0.440860  1
  Lu  Lu9  1  0.057867  0.440525  0.058015  1
  Lu  Lu10  1  0.442459  0.442459  0.058215  1
  Lu  Lu11  1  0.056019  0.056019  0.443106  1
  Lu  Lu12  1  0.193899  0.805934  0.805537  1
  Lu  Lu13  1  0.805029  0.194903  0.194576  1
  Lu  Lu14  1  0.805934  0.193899  0.805537  1
  Lu  Lu15  1  0.194903  0.805029  0.194576  1
  In  In16  1  0.833378  0.833378  0.832474  1
  In  In17  1  0.834119  0.834119  0.500244  1
  In  In18  1  0.833505  0.499467  0.834149  1
  In  In19  1  0.499467  0.833505  0.834149  1
  Ir  Ir20  1  0.393122  0.393122  0.829081  1
  Ir  Ir21  1  0.387387  0.828846  0.393177  1
  Ir  Ir22  1  0.828846  0.387387  0.393177  1
  Ru  Ru23  1  0.390418  0.390418  0.386498  1
