# generated using pymatgen
data_Sc6Nb2Co7Si14Rh
_symmetry_space_group_name_H-M   'P 1'
_cell_length_a   9.46197276
_cell_length_b   9.45042042
_cell_length_c   9.49837810
_cell_angle_alpha   94.07950200
_cell_angle_beta   94.15105554
_cell_angle_gamma   148.84798837
_symmetry_Int_Tables_number   1
_chemical_formula_structural   Sc6Nb2Co7Si14Rh
_chemical_formula_sum   'Sc6 Nb2 Co7 Si14 Rh1'
_cell_volume   423.39073472
_cell_formula_units_Z   1
loop_
 _symmetry_equiv_pos_site_id
 _symmetry_equiv_pos_as_xyz
  1  'x, y, z'
loop_
 _atom_site_type_symbol
 _atom_site_label
 _atom_site_symmetry_multiplicity
 _atom_site_fract_x
 _atom_site_fract_y
 _atom_site_fract_z
 _atom_site_occupancy
  Sc  Sc0  1  0.307830  0.503900  0.805540  1
  Sc  Sc1  1  0.696127  0.500276  0.195699  1
  Sc  Sc2  1  0.499533  0.695350  0.195665  1
  Sc  Sc3  1  0.497753  0.301635  0.805532  1
  Sc  Sc4  1  0.139496  0.139470  0.278981  1
  Sc  Sc5  1  0.860912  0.860933  0.721894  1
  Nb  Nb6  1  0.132934  0.863183  0.001151  1
  Nb  Nb7  1  0.868168  0.137861  0.001120  1
  Co  Co8  1  0.104872  0.604817  0.209680  1
  Co  Co9  1  0.897416  0.100185  0.497403  1
  Co  Co10  1  0.599970  0.397102  0.497381  1
  Co  Co11  1  0.600765  0.100728  0.201485  1
  Co  Co12  1  0.898727  0.398623  0.797134  1
  Co  Co13  1  0.104057  0.896426  0.500039  1
  Co  Co14  1  0.395995  0.603579  0.500112  1
  Si  Si15  1  0.291055  0.291001  0.582131  1
  Si  Si16  1  0.709326  0.709295  0.418675  1
  Si  Si17  1  0.278650  0.701524  0.005182  1
  Si  Si18  1  0.726703  0.303818  0.005264  1
  Si  Si19  1  0.069605  0.475829  0.586700  1
  Si  Si20  1  0.902977  0.495374  0.407871  1
  Si  Si21  1  0.504938  0.912442  0.407878  1
  Si  Si22  1  0.517234  0.110968  0.586634  1
  Si  Si23  1  0.245818  0.245559  0.000574  1
  Si  Si24  1  0.754762  0.754950  0.000586  1
  Si  Si25  1  0.301018  0.999848  0.297521  1
  Si  Si26  1  0.713976  0.009430  0.700602  1
  Si  Si27  1  0.986233  0.690904  0.700542  1
  Si  Si28  1  0.996529  0.297593  0.297528  1
  Rh  Rh29  1  0.396624  0.897397  0.793494  1
