# generated using pymatgen
data_Tb15HoCd3AgIr4
_symmetry_space_group_name_H-M   'P 1'
_cell_length_a   9.64575561
_cell_length_b   9.64575564
_cell_length_c   9.64575550
_cell_angle_alpha   59.97160681
_cell_angle_beta   59.97160534
_cell_angle_gamma   59.97160716
_symmetry_Int_Tables_number   1
_chemical_formula_structural   Tb15HoCd3AgIr4
_chemical_formula_sum   'Tb15 Ho1 Cd3 Ag1 Ir4'
_cell_volume   634.18219224
_cell_formula_units_Z   1
loop_
 _symmetry_equiv_pos_site_id
 _symmetry_equiv_pos_as_xyz
  1  'x, y, z'
loop_
 _atom_site_type_symbol
 _atom_site_label
 _atom_site_symmetry_multiplicity
 _atom_site_fract_x
 _atom_site_fract_y
 _atom_site_fract_z
 _atom_site_occupancy
  Tb  Tb0  1  0.599891  0.599891  0.202250  1
  Tb  Tb1  1  0.599891  0.202250  0.599891  1
  Tb  Tb2  1  0.202250  0.599891  0.599891  1
  Tb  Tb3  1  0.059866  0.439501  0.439501  1
  Tb  Tb4  1  0.438163  0.060353  0.060353  1
  Tb  Tb5  1  0.439501  0.059866  0.439501  1
  Tb  Tb6  1  0.060353  0.438163  0.060353  1
  Tb  Tb7  1  0.439501  0.439501  0.059866  1
  Tb  Tb8  1  0.060353  0.060353  0.438163  1
  Tb  Tb9  1  0.185925  0.811939  0.811939  1
  Tb  Tb10  1  0.811921  0.186906  0.186906  1
  Tb  Tb11  1  0.811939  0.185925  0.811939  1
  Tb  Tb12  1  0.186906  0.811921  0.186906  1
  Tb  Tb13  1  0.811939  0.811939  0.185925  1
  Tb  Tb14  1  0.186906  0.186906  0.811921  1
  Ho  Ho15  1  0.598125  0.598125  0.598125  1
  Cd  Cd16  1  0.830924  0.830924  0.508593  1
  Cd  Cd17  1  0.830924  0.508593  0.830924  1
  Cd  Cd18  1  0.508593  0.830924  0.830924  1
  Ag  Ag19  1  0.832825  0.832825  0.832825  1
  Ir  Ir20  1  0.391783  0.391783  0.391783  1
  Ir  Ir21  1  0.393225  0.393225  0.825073  1
  Ir  Ir22  1  0.393225  0.825073  0.393225  1
  Ir  Ir23  1  0.825073  0.393225  0.393225  1
