# generated using pymatgen
data_Zr8In4Pd3Pt4Au
_symmetry_space_group_name_H-M   'P 1'
_cell_length_a   7.57590338
_cell_length_b   7.57591135
_cell_length_c   6.93715533
_cell_angle_alpha   89.85667248
_cell_angle_beta   89.94892297
_cell_angle_gamma   90.10404626
_symmetry_Int_Tables_number   1
_chemical_formula_structural   Zr8In4Pd3Pt4Au
_chemical_formula_sum   'Zr8 In4 Pd3 Pt4 Au1'
_cell_volume   398.15161465
_cell_formula_units_Z   1
loop_
 _symmetry_equiv_pos_site_id
 _symmetry_equiv_pos_as_xyz
  1  'x, y, z'
loop_
 _atom_site_type_symbol
 _atom_site_label
 _atom_site_symmetry_multiplicity
 _atom_site_fract_x
 _atom_site_fract_y
 _atom_site_fract_z
 _atom_site_occupancy
  Zr  Zr0  1  0.148530  0.154019  0.004318  1
  Zr  Zr1  1  0.845968  0.851297  0.007651  1
  Zr  Zr2  1  0.652295  0.347607  0.499661  1
  Zr  Zr3  1  0.352711  0.647280  0.494630  1
  Zr  Zr4  1  0.686557  0.313444  0.001544  1
  Zr  Zr5  1  0.316199  0.683843  0.003526  1
  Zr  Zr6  1  0.809726  0.813146  0.494076  1
  Zr  Zr7  1  0.186909  0.190826  0.497291  1
  In  In8  1  0.496944  0.001735  0.249846  1
  In  In9  1  0.505161  0.999732  0.752255  1
  In  In10  1  0.001113  0.501296  0.249781  1
  In  In11  1  0.997194  0.496903  0.752224  1
  Pd  Pd12  1  0.369221  0.367480  0.212130  1
  Pd  Pd13  1  0.633057  0.632054  0.787475  1
  Pd  Pd14  1  0.869803  0.130107  0.714787  1
  Pt  Pt15  1  0.628802  0.627556  0.218261  1
  Pt  Pt16  1  0.868973  0.131103  0.284858  1
  Pt  Pt17  1  0.371132  0.370466  0.781592  1
  Pt  Pt18  1  0.130342  0.869918  0.282948  1
  Au  Au19  1  0.129359  0.870189  0.711143  1
