# generated using pymatgen
data_AcCd2Rh9
_symmetry_space_group_name_H-M   'P 1'
_cell_length_a   8.95533300
_cell_length_b   8.95533300
_cell_length_c   5.17569300
_cell_angle_alpha   90.00000000
_cell_angle_beta   90.00000000
_cell_angle_gamma   90.00000000
_symmetry_Int_Tables_number   1
_chemical_formula_structural   AcCd2Rh9
_chemical_formula_sum   'Ac2 Cd4 Rh18'
_cell_volume   415.08017101
_cell_formula_units_Z   2
loop_
 _symmetry_equiv_pos_site_id
 _symmetry_equiv_pos_as_xyz
  1  'x, y, z'
loop_
 _atom_site_type_symbol
 _atom_site_label
 _atom_site_symmetry_multiplicity
 _atom_site_fract_x
 _atom_site_fract_y
 _atom_site_fract_z
 _atom_site_occupancy
  Ac  Ac0  1  0.500000  0.500000  0.000000  1
  Ac  Ac1  1  0.000000  0.000000  0.000000  1
  Cd  Cd2  1  0.116600  0.616600  0.000000  1
  Cd  Cd3  1  0.883400  0.383400  0.000000  1
  Cd  Cd4  1  0.383400  0.116600  0.000000  1
  Cd  Cd5  1  0.616600  0.883400  0.000000  1
  Rh  Rh6  1  0.320233  0.820233  0.757850  1
  Rh  Rh7  1  0.679767  0.179767  0.757850  1
  Rh  Rh8  1  0.179767  0.320233  0.757850  1
  Rh  Rh9  1  0.820233  0.679767  0.757850  1
  Rh  Rh10  1  0.679767  0.179767  0.242150  1
  Rh  Rh11  1  0.320233  0.820233  0.242150  1
  Rh  Rh12  1  0.820233  0.679767  0.242150  1
  Rh  Rh13  1  0.179767  0.320233  0.242150  1
  Rh  Rh14  1  0.562035  0.708501  0.500000  1
  Rh  Rh15  1  0.437965  0.291499  0.500000  1
  Rh  Rh16  1  0.937965  0.208501  0.500000  1
  Rh  Rh17  1  0.062035  0.791499  0.500000  1
  Rh  Rh18  1  0.708501  0.437965  0.500000  1
  Rh  Rh19  1  0.291499  0.562035  0.500000  1
  Rh  Rh20  1  0.208501  0.062035  0.500000  1
  Rh  Rh21  1  0.791499  0.937965  0.500000  1
  Rh  Rh22  1  0.000000  0.500000  0.500000  1
  Rh  Rh23  1  0.500000  0.000000  0.500000  1
