# generated using pymatgen
data_Ho4LuIr3
_symmetry_space_group_name_H-M   'P 1'
_cell_length_a   10.81148200
_cell_length_b   10.81148200
_cell_length_c   6.32576300
_cell_angle_alpha   90.00000000
_cell_angle_beta   90.00000000
_cell_angle_gamma   90.00000000
_symmetry_Int_Tables_number   1
_chemical_formula_structural   Ho4LuIr3
_chemical_formula_sum   'Ho16 Lu4 Ir12'
_cell_volume   739.40669036
_cell_formula_units_Z   4
loop_
 _symmetry_equiv_pos_site_id
 _symmetry_equiv_pos_as_xyz
  1  'x, y, z'
loop_
 _atom_site_type_symbol
 _atom_site_label
 _atom_site_symmetry_multiplicity
 _atom_site_fract_x
 _atom_site_fract_y
 _atom_site_fract_z
 _atom_site_occupancy
  Ho  Ho0  1  0.290611  0.087624  0.377897  1
  Ho  Ho1  1  0.290611  0.912376  0.877897  1
  Ho  Ho2  1  0.709389  0.087624  0.877897  1
  Ho  Ho3  1  0.709389  0.912376  0.377897  1
  Ho  Ho4  1  0.587624  0.790611  0.877897  1
  Ho  Ho5  1  0.587624  0.209389  0.377897  1
  Ho  Ho6  1  0.412376  0.790611  0.377897  1
  Ho  Ho7  1  0.412376  0.209389  0.877897  1
  Ho  Ho8  1  0.209389  0.412376  0.622103  1
  Ho  Ho9  1  0.209389  0.587624  0.122103  1
  Ho  Ho10  1  0.790611  0.412376  0.122103  1
  Ho  Ho11  1  0.790611  0.587624  0.622103  1
  Ho  Ho12  1  0.912376  0.709389  0.122103  1
  Ho  Ho13  1  0.912376  0.290611  0.622103  1
  Ho  Ho14  1  0.087624  0.709389  0.622103  1
  Ho  Ho15  1  0.087624  0.290611  0.122103  1
  Lu  Lu16  1  0.000000  0.000000  0.500000  1
  Lu  Lu17  1  0.000000  0.000000  0.000000  1
  Lu  Lu18  1  0.500000  0.500000  0.000000  1
  Lu  Lu19  1  0.500000  0.500000  0.500000  1
  Ir  Ir20  1  0.848163  0.151837  0.250000  1
  Ir  Ir21  1  0.848163  0.848163  0.750000  1
  Ir  Ir22  1  0.151837  0.151837  0.750000  1
  Ir  Ir23  1  0.151837  0.848163  0.250000  1
  Ir  Ir24  1  0.651837  0.348163  0.750000  1
  Ir  Ir25  1  0.651837  0.651837  0.250000  1
  Ir  Ir26  1  0.348163  0.348163  0.250000  1
  Ir  Ir27  1  0.348163  0.651837  0.750000  1
  Ir  Ir28  1  0.500000  0.000000  0.121736  1
  Ir  Ir29  1  0.500000  0.000000  0.621736  1
  Ir  Ir30  1  0.000000  0.500000  0.878264  1
  Ir  Ir31  1  0.000000  0.500000  0.378264  1
