# generated using pymatgen
data_Dy2ErMn(Co4P3)2
_symmetry_space_group_name_H-M   'P 1'
_cell_length_a   3.68080700
_cell_length_b   10.53540400
_cell_length_c   12.17751000
_cell_angle_alpha   90.00000000
_cell_angle_beta   90.00000000
_cell_angle_gamma   90.00000000
_symmetry_Int_Tables_number   1
_chemical_formula_structural   Dy2ErMn(Co4P3)2
_chemical_formula_sum   'Dy4 Er2 Mn2 Co16 P12'
_cell_volume   472.22908829
_cell_formula_units_Z   2
loop_
 _symmetry_equiv_pos_site_id
 _symmetry_equiv_pos_as_xyz
  1  'x, y, z'
loop_
 _atom_site_type_symbol
 _atom_site_label
 _atom_site_symmetry_multiplicity
 _atom_site_fract_x
 _atom_site_fract_y
 _atom_site_fract_z
 _atom_site_occupancy
  Dy  Dy0  1  0.000000  0.500000  0.522284  1
  Dy  Dy1  1  0.500000  0.000000  0.477178  1
  Dy  Dy2  1  0.000000  0.681831  0.794927  1
  Dy  Dy3  1  0.000000  0.318169  0.794927  1
  Er  Er4  1  0.500000  0.818576  0.205000  1
  Er  Er5  1  0.500000  0.181424  0.205000  1
  Mn  Mn6  1  0.500000  0.500000  0.159168  1
  Mn  Mn7  1  0.000000  0.000000  0.841220  1
  Co  Co8  1  0.500000  0.500000  0.703027  1
  Co  Co9  1  0.000000  0.000000  0.296525  1
  Co  Co10  1  0.000000  0.500000  0.987172  1
  Co  Co11  1  0.500000  0.000000  0.014238  1
  Co  Co12  1  0.500000  0.332683  0.994522  1
  Co  Co13  1  0.500000  0.667317  0.994522  1
  Co  Co14  1  0.000000  0.166707  0.006732  1
  Co  Co15  1  0.000000  0.833293  0.006732  1
  Co  Co16  1  0.500000  0.296503  0.429765  1
  Co  Co17  1  0.500000  0.703497  0.429765  1
  Co  Co18  1  0.000000  0.203259  0.569170  1
  Co  Co19  1  0.000000  0.796741  0.569170  1
  Co  Co20  1  0.500000  0.879615  0.709266  1
  Co  Co21  1  0.500000  0.120385  0.709266  1
  Co  Co22  1  0.000000  0.620885  0.290269  1
  Co  Co23  1  0.000000  0.379115  0.290269  1
  P  P24  1  0.500000  0.500000  0.883279  1
  P  P25  1  0.000000  0.000000  0.117999  1
  P  P26  1  0.500000  0.500000  0.344561  1
  P  P27  1  0.000000  0.000000  0.655278  1
  P  P28  1  0.500000  0.311058  0.615778  1
  P  P29  1  0.500000  0.688942  0.615778  1
  P  P30  1  0.000000  0.188562  0.382960  1
  P  P31  1  0.000000  0.811438  0.382960  1
  P  P32  1  0.500000  0.847717  0.892861  1
  P  P33  1  0.500000  0.152283  0.892861  1
  P  P34  1  0.000000  0.653245  0.107787  1
  P  P35  1  0.000000  0.346755  0.107787  1
