# generated using pymatgen
data_Er2Tm3Lu3Au4
_symmetry_space_group_name_H-M   'P 1'
_cell_length_a   4.84984900
_cell_length_b   7.05348152
_cell_length_c   8.83145001
_cell_angle_alpha   90.11337341
_cell_angle_beta   90.00000000
_cell_angle_gamma   90.00000000
_symmetry_Int_Tables_number   1
_chemical_formula_structural   Er2Tm3Lu3Au4
_chemical_formula_sum   'Er2 Tm3 Lu3 Au4'
_cell_volume   302.10847940
_cell_formula_units_Z   1
loop_
 _symmetry_equiv_pos_site_id
 _symmetry_equiv_pos_as_xyz
  1  'x, y, z'
loop_
 _atom_site_type_symbol
 _atom_site_label
 _atom_site_symmetry_multiplicity
 _atom_site_fract_x
 _atom_site_fract_y
 _atom_site_fract_z
 _atom_site_occupancy
  Er  Er0  1  0.250000  0.482713  0.177854  1
  Er  Er1  1  0.250000  0.983828  0.322024  1
  Tm  Tm2  1  0.750000  0.649220  0.422731  1
  Tm  Tm3  1  0.750000  0.516961  0.822103  1
  Tm  Tm4  1  0.750000  0.017278  0.678360  1
  Lu  Lu5  1  0.250000  0.850777  0.922722  1
  Lu  Lu6  1  0.250000  0.350836  0.577774  1
  Lu  Lu7  1  0.750000  0.149201  0.076663  1
  Au  Au8  1  0.250000  0.254574  0.897384  1
  Au  Au9  1  0.250000  0.755451  0.603639  1
  Au  Au10  1  0.750000  0.745560  0.100472  1
  Au  Au11  1  0.750000  0.243600  0.398274  1
