# generated using pymatgen
data_Pr4YP12Ru17Rh2
_symmetry_space_group_name_H-M   'P 1'
_cell_length_a   12.66249003
_cell_length_b   12.62203086
_cell_length_c   4.01354000
_cell_angle_alpha   90.00000000
_cell_angle_beta   90.00000000
_cell_angle_gamma   120.09873726
_symmetry_Int_Tables_number   1
_chemical_formula_structural   Pr4YP12Ru17Rh2
_chemical_formula_sum   'Pr4 Y1 P12 Ru17 Rh2'
_cell_volume   554.97525947
_cell_formula_units_Z   1
loop_
 _symmetry_equiv_pos_site_id
 _symmetry_equiv_pos_as_xyz
  1  'x, y, z'
loop_
 _atom_site_type_symbol
 _atom_site_label
 _atom_site_symmetry_multiplicity
 _atom_site_fract_x
 _atom_site_fract_y
 _atom_site_fract_z
 _atom_site_occupancy
  Pr  Pr0  1  0.000783  0.184117  0.500000  1
  Pr  Pr1  1  0.816812  0.815854  0.500000  1
  Pr  Pr2  1  0.184972  0.000577  0.500000  1
  Pr  Pr3  1  0.665327  0.331290  0.000000  1
  Y  Y4  1  0.334555  0.668856  0.000000  1
  P  P5  1  0.000606  0.810617  0.000000  1
  P  P6  1  0.188537  0.190804  0.000000  1
  P  P7  1  0.811624  0.998647  0.000000  1
  P  P8  1  0.695062  0.170103  0.500000  1
  P  P9  1  0.824572  0.522556  0.500000  1
  P  P10  1  0.475056  0.301212  0.500000  1
  P  P11  1  0.177436  0.698946  0.500000  1
  P  P12  1  0.521717  0.826163  0.500000  1
  P  P13  1  0.301938  0.481234  0.500000  1
  P  P14  1  0.999434  0.371981  0.000000  1
  P  P15  1  0.627746  0.627369  0.000000  1
  P  P16  1  0.375004  0.000170  0.000000  1
  Ru  Ru17  1  0.554517  0.999723  0.000000  1
  Ru  Ru18  1  0.000552  0.711579  0.500000  1
  Ru  Ru19  1  0.287532  0.290441  0.500000  1
  Ru  Ru20  1  0.713690  0.998251  0.500000  1
  Ru  Ru21  1  0.805587  0.183838  0.000000  1
  Ru  Ru22  1  0.814885  0.619815  0.000000  1
  Ru  Ru23  1  0.377623  0.194330  0.000000  1
  Ru  Ru24  1  0.185924  0.804958  0.000000  1
  Ru  Ru25  1  0.618583  0.813273  0.000000  1
  Ru  Ru26  1  0.195607  0.383532  0.000000  1
  Ru  Ru27  1  0.876078  0.366861  0.500000  1
  Ru  Ru28  1  0.631056  0.508956  0.500000  1
  Ru  Ru29  1  0.490802  0.122698  0.500000  1
  Ru  Ru30  1  0.369025  0.874474  0.500000  1
  Ru  Ru31  1  0.505429  0.632162  0.500000  1
  Ru  Ru32  1  0.124875  0.495082  0.500000  1
  Ru  Ru33  1  0.001047  0.999838  0.000000  1
  Rh  Rh34  1  0.999375  0.552681  0.000000  1
  Rh  Rh35  1  0.446636  0.447016  0.000000  1
