# generated using pymatgen
data_YbFeB4Os3
_symmetry_space_group_name_H-M   'P 1'
_cell_length_a   7.25856512
_cell_length_b   7.43595230
_cell_length_c   4.04540300
_cell_angle_alpha   90.00000000
_cell_angle_beta   90.00000000
_cell_angle_gamma   92.10480226
_symmetry_Int_Tables_number   1
_chemical_formula_structural   YbFeB4Os3
_chemical_formula_sum   'Yb2 Fe2 B8 Os6'
_cell_volume   218.20065802
_cell_formula_units_Z   2
loop_
 _symmetry_equiv_pos_site_id
 _symmetry_equiv_pos_as_xyz
  1  'x, y, z'
loop_
 _atom_site_type_symbol
 _atom_site_label
 _atom_site_symmetry_multiplicity
 _atom_site_fract_x
 _atom_site_fract_y
 _atom_site_fract_z
 _atom_site_occupancy
  Yb  Yb0  1  0.000000  0.000000  0.975834  1
  Yb  Yb1  1  0.500000  0.500000  0.413778  1
  Fe  Fe2  1  0.616134  0.127767  0.128422  1
  Fe  Fe3  1  0.383866  0.872233  0.128422  1
  B  B4  1  0.668104  0.798805  0.120954  1
  B  B5  1  0.331896  0.201195  0.120954  1
  B  B6  1  0.315993  0.839620  0.623883  1
  B  B7  1  0.684007  0.160380  0.623883  1
  B  B8  1  0.832943  0.712299  0.390751  1
  B  B9  1  0.167057  0.287701  0.390751  1
  B  B10  1  0.214962  0.677403  0.891682  1
  B  B11  1  0.785038  0.322597  0.891682  1
  Os  Os12  1  0.148576  0.391254  0.887363  1
  Os  Os13  1  0.851424  0.608746  0.887363  1
  Os  Os14  1  0.882207  0.348611  0.386128  1
  Os  Os15  1  0.117793  0.651389  0.386128  1
  Os  Os16  1  0.369591  0.123142  0.626010  1
  Os  Os17  1  0.630409  0.876858  0.626010  1
