# generated using pymatgen
data_Dy3Sc3Si2Ru
_symmetry_space_group_name_H-M   'P 1'
_cell_length_a   7.42383800
_cell_length_b   7.42383810
_cell_length_c   4.23810200
_cell_angle_alpha   90.00000000
_cell_angle_beta   90.00000000
_cell_angle_gamma   119.99999062
_symmetry_Int_Tables_number   1
_chemical_formula_structural   Dy3Sc3Si2Ru
_chemical_formula_sum   'Dy3 Sc3 Si2 Ru1'
_cell_volume   202.28284650
_cell_formula_units_Z   1
loop_
 _symmetry_equiv_pos_site_id
 _symmetry_equiv_pos_as_xyz
  1  'x, y, z'
loop_
 _atom_site_type_symbol
 _atom_site_label
 _atom_site_symmetry_multiplicity
 _atom_site_fract_x
 _atom_site_fract_y
 _atom_site_fract_z
 _atom_site_occupancy
  Dy  Dy0  1  0.417110  0.000000  0.000000  1
  Dy  Dy1  1  0.000000  0.417109  0.000000  1
  Dy  Dy2  1  0.582889  0.582889  0.000000  1
  Sc  Sc3  1  0.758846  0.000000  0.500001  1
  Sc  Sc4  1  0.241153  0.241154  0.500001  1
  Sc  Sc5  1  0.000000  0.758845  0.500001  1
  Si  Si6  1  0.666667  0.333334  0.500001  1
  Si  Si7  1  0.333333  0.666666  0.500001  1
  Ru  Ru8  1  0.000000  0.000000  0.000000  1
