# generated using pymatgen
data_Hf3CoSi2Ir3
_symmetry_space_group_name_H-M   'P 1'
_cell_length_a   6.42965700
_cell_length_b   6.42965649
_cell_length_c   3.94936300
_cell_angle_alpha   90.00000000
_cell_angle_beta   90.00000000
_cell_angle_gamma   119.99999748
_symmetry_Int_Tables_number   1
_chemical_formula_structural   Hf3CoSi2Ir3
_chemical_formula_sum   'Hf3 Co1 Si2 Ir3'
_cell_volume   141.39474608
_cell_formula_units_Z   1
loop_
 _symmetry_equiv_pos_site_id
 _symmetry_equiv_pos_as_xyz
  1  'x, y, z'
loop_
 _atom_site_type_symbol
 _atom_site_label
 _atom_site_symmetry_multiplicity
 _atom_site_fract_x
 _atom_site_fract_y
 _atom_site_fract_z
 _atom_site_occupancy
  Hf  Hf0  1  0.607020  0.000000  0.000000  1
  Hf  Hf1  1  0.392979  0.392980  0.000000  1
  Hf  Hf2  1  0.000000  0.607021  0.000000  1
  Co  Co3  1  0.000000  0.000000  0.000000  1
  Si  Si4  1  0.666666  0.333332  0.500000  1
  Si  Si5  1  0.333333  0.666667  0.500000  1
  Ir  Ir6  1  0.244912  0.000000  0.500000  1
  Ir  Ir7  1  0.000000  0.244912  0.500000  1
  Ir  Ir8  1  0.755087  0.755087  0.500000  1
