# generated using pymatgen
data_HfZr2Ti3(GaPt)6
_symmetry_space_group_name_H-M   'P 1'
_cell_length_a   7.14608317
_cell_length_b   7.12771389
_cell_length_c   6.91241200
_cell_angle_alpha   90.00000000
_cell_angle_beta   90.00000000
_cell_angle_gamma   120.05598067
_symmetry_Int_Tables_number   1
_chemical_formula_structural   HfZr2Ti3(GaPt)6
_chemical_formula_sum   'Hf1 Zr2 Ti3 Ga6 Pt6'
_cell_volume   304.74270010
_cell_formula_units_Z   1
loop_
 _symmetry_equiv_pos_site_id
 _symmetry_equiv_pos_as_xyz
  1  'x, y, z'
loop_
 _atom_site_type_symbol
 _atom_site_label
 _atom_site_symmetry_multiplicity
 _atom_site_fract_x
 _atom_site_fract_y
 _atom_site_fract_z
 _atom_site_occupancy
  Hf  Hf0  1  0.602558  0.008526  0.250000  1
  Zr  Zr1  1  0.405047  0.397276  0.250000  1
  Zr  Zr2  1  0.991028  0.593901  0.250000  1
  Ti  Ti3  1  0.619211  0.997997  0.750000  1
  Ti  Ti4  1  0.379999  0.380740  0.750000  1
  Ti  Ti5  1  0.002533  0.620088  0.750000  1
  Ga  Ga6  1  0.271709  0.999838  0.993522  1
  Ga  Ga7  1  0.271709  0.999838  0.506478  1
  Ga  Ga8  1  0.001637  0.274245  0.509206  1
  Ga  Ga9  1  0.001637  0.274245  0.990794  1
  Ga  Ga10  1  0.726894  0.726370  0.991029  1
  Ga  Ga11  1  0.726894  0.726370  0.508971  1
  Pt  Pt12  1  0.666432  0.330793  0.538242  1
  Pt  Pt13  1  0.000123  0.999769  0.750000  1
  Pt  Pt14  1  0.666432  0.330793  0.961758  1
  Pt  Pt15  1  0.335811  0.669552  0.974103  1
  Pt  Pt16  1  0.335811  0.669552  0.525897  1
  Pt  Pt17  1  0.994533  0.000108  0.250000  1
