# generated using pymatgen
data_Lu12Mn2Tl2Ga
_symmetry_space_group_name_H-M   'P 1'
_cell_length_a   8.24228269
_cell_length_b   8.24228364
_cell_length_c   8.24228400
_cell_angle_alpha   109.42095201
_cell_angle_beta   109.42095434
_cell_angle_gamma   109.57179835
_symmetry_Int_Tables_number   1
_chemical_formula_structural   Lu12Mn2Tl2Ga
_chemical_formula_sum   'Lu12 Mn2 Tl2 Ga1'
_cell_volume   431.04217213
_cell_formula_units_Z   1
loop_
 _symmetry_equiv_pos_site_id
 _symmetry_equiv_pos_as_xyz
  1  'x, y, z'
loop_
 _atom_site_type_symbol
 _atom_site_label
 _atom_site_symmetry_multiplicity
 _atom_site_fract_x
 _atom_site_fract_y
 _atom_site_fract_z
 _atom_site_occupancy
  Lu  Lu0  1  0.306326  0.306326  0.612658  1
  Lu  Lu1  1  0.693674  0.693674  0.387342  1
  Lu  Lu2  1  0.693669  0.306326  0.999999  1
  Lu  Lu3  1  0.306331  0.693674  0.000001  1
  Lu  Lu4  1  0.202521  0.445672  0.243151  1
  Lu  Lu5  1  0.797479  0.554328  0.756849  1
  Lu  Lu6  1  0.202521  0.959369  0.756850  1
  Lu  Lu7  1  0.959371  0.202512  0.756860  1
  Lu  Lu8  1  0.797479  0.040631  0.243150  1
  Lu  Lu9  1  0.040629  0.797488  0.243140  1
  Lu  Lu10  1  0.445652  0.202512  0.243139  1
  Lu  Lu11  1  0.554348  0.797488  0.756861  1
  Mn  Mn12  1  0.388815  0.388813  0.999998  1
  Mn  Mn13  1  0.611185  0.611187  0.000002  1
  Tl  Tl14  1  0.000000  0.500000  0.500000  1
  Tl  Tl15  1  0.500000  0.000000  0.500000  1
  Ga  Ga16  1  0.000000  0.000000  0.000000  1
