# generated using pymatgen
data_Ce3Pa(B4Os)4
_symmetry_space_group_name_H-M   'P 1'
_cell_length_a   3.62216300
_cell_length_b   6.01631814
_cell_length_c   11.67471501
_cell_angle_alpha   89.99020535
_cell_angle_beta   90.00000000
_cell_angle_gamma   90.00000000
_symmetry_Int_Tables_number   1
_chemical_formula_structural   Ce3Pa(B4Os)4
_chemical_formula_sum   'Ce3 Pa1 B16 Os4'
_cell_volume   254.41637774
_cell_formula_units_Z   1
loop_
 _symmetry_equiv_pos_site_id
 _symmetry_equiv_pos_as_xyz
  1  'x, y, z'
loop_
 _atom_site_type_symbol
 _atom_site_label
 _atom_site_symmetry_multiplicity
 _atom_site_fract_x
 _atom_site_fract_y
 _atom_site_fract_z
 _atom_site_occupancy
  Ce  Ce0  1  0.000000  0.871235  0.350306  1
  Ce  Ce1  1  0.000000  0.628640  0.850593  1
  Ce  Ce2  1  0.000000  0.371862  0.149704  1
  Pa  Pa3  1  0.000000  0.128307  0.649901  1
  B  B4  1  0.500000  0.471159  0.690451  1
  B  B5  1  0.500000  0.525648  0.309974  1
  B  B6  1  0.500000  0.972196  0.808841  1
  B  B7  1  0.500000  0.026061  0.190331  1
  B  B8  1  0.500000  0.286895  0.812049  1
  B  B9  1  0.500000  0.713957  0.186188  1
  B  B10  1  0.500000  0.790118  0.686761  1
  B  B11  1  0.500000  0.214164  0.313531  1
  B  B12  1  0.500000  0.362007  0.968116  1
  B  B13  1  0.500000  0.637008  0.031795  1
  B  B14  1  0.500000  0.864641  0.532358  1
  B  B15  1  0.500000  0.136596  0.468523  1
  B  B16  1  0.500000  0.386727  0.545630  1
  B  B17  1  0.500000  0.612036  0.454462  1
  B  B18  1  0.500000  0.887258  0.954590  1
  B  B19  1  0.500000  0.111530  0.045542  1
  Os  Os20  1  0.000000  0.140525  0.902878  1
  Os  Os21  1  0.000000  0.860780  0.093474  1
  Os  Os22  1  0.000000  0.641980  0.596310  1
  Os  Os23  1  0.000000  0.358672  0.407696  1
