# generated using pymatgen
data_Pr16MgHg3IrOs3
_symmetry_space_group_name_H-M   'P 1'
_cell_length_a   9.98416492
_cell_length_b   10.07017203
_cell_length_c   10.05086342
_cell_angle_alpha   59.93431061
_cell_angle_beta   59.71015658
_cell_angle_gamma   59.71348415
_symmetry_Int_Tables_number   1
_chemical_formula_structural   Pr16MgHg3IrOs3
_chemical_formula_sum   'Pr16 Mg1 Hg3 Ir1 Os3'
_cell_volume   711.07813682
_cell_formula_units_Z   1
loop_
 _symmetry_equiv_pos_site_id
 _symmetry_equiv_pos_as_xyz
  1  'x, y, z'
loop_
 _atom_site_type_symbol
 _atom_site_label
 _atom_site_symmetry_multiplicity
 _atom_site_fract_x
 _atom_site_fract_y
 _atom_site_fract_z
 _atom_site_occupancy
  Pr  Pr0  1  0.344628  0.346716  0.345829  1
  Pr  Pr1  1  0.345370  0.346670  0.961274  1
  Pr  Pr2  1  0.344627  0.962849  0.345816  1
  Pr  Pr3  1  0.957873  0.347638  0.346855  1
  Pr  Pr4  1  0.808133  0.192155  0.193549  1
  Pr  Pr5  1  0.189512  0.810348  0.809958  1
  Pr  Pr6  1  0.189435  0.809954  0.190679  1
  Pr  Pr7  1  0.808944  0.192449  0.806144  1
  Pr  Pr8  1  0.189516  0.190183  0.809967  1
  Pr  Pr9  1  0.808122  0.806174  0.193540  1
  Pr  Pr10  1  0.938189  0.559533  0.560779  1
  Pr  Pr11  1  0.557517  0.940207  0.941024  1
  Pr  Pr12  1  0.557500  0.939918  0.562650  1
  Pr  Pr13  1  0.939508  0.558837  0.942799  1
  Pr  Pr14  1  0.557501  0.561246  0.941033  1
  Pr  Pr15  1  0.938233  0.941510  0.560729  1
  Mg  Mg16  1  0.287536  0.571186  0.570085  1
  Hg  Hg17  1  0.579421  0.585758  0.585290  1
  Hg  Hg18  1  0.579120  0.585954  0.248965  1
  Hg  Hg19  1  0.579433  0.249517  0.585284  1
  Ir  Ir20  1  0.581421  0.139712  0.139179  1
  Os  Os21  1  0.139373  0.139087  0.137378  1
  Os  Os22  1  0.139691  0.138246  0.583829  1
  Os  Os23  1  0.139399  0.584153  0.137368  1
