# generated using pymatgen
data_Ac(BH4)2
_symmetry_space_group_name_H-M   'P 1'
_cell_length_a   7.36880800
_cell_length_b   7.36880800
_cell_length_c   4.39343500
_cell_angle_alpha   90.00000000
_cell_angle_beta   90.00000000
_cell_angle_gamma   90.00000000
_symmetry_Int_Tables_number   1
_chemical_formula_structural   Ac(BH4)2
_chemical_formula_sum   'Ac2 B4 H16'
_cell_volume   238.56058279
_cell_formula_units_Z   2
loop_
 _symmetry_equiv_pos_site_id
 _symmetry_equiv_pos_as_xyz
  1  'x, y, z'
loop_
 _atom_site_type_symbol
 _atom_site_label
 _atom_site_symmetry_multiplicity
 _atom_site_fract_x
 _atom_site_fract_y
 _atom_site_fract_z
 _atom_site_occupancy
  Ac  Ac0  1  0.000000  0.500001  0.000000  1
  Ac  Ac1  1  0.500001  0.000000  0.500000  1
  B  B2  1  0.307120  0.225503  0.000000  1
  B  B3  1  0.692880  0.774497  0.000000  1
  B  B4  1  0.774497  0.307120  0.500000  1
  B  B5  1  0.225503  0.692880  0.500000  1
  H  H6  1  0.470549  0.177699  0.000000  1
  H  H7  1  0.318960  0.392630  0.000000  1
  H  H8  1  0.681040  0.607370  0.000000  1
  H  H9  1  0.529451  0.822299  0.000000  1
  H  H10  1  0.228645  0.170103  0.229779  1
  H  H11  1  0.771355  0.829897  0.229779  1
  H  H12  1  0.829897  0.228645  0.270221  1
  H  H13  1  0.170103  0.771355  0.270221  1
  H  H14  1  0.607370  0.318960  0.500000  1
  H  H15  1  0.822299  0.470549  0.500000  1
  H  H16  1  0.177699  0.529451  0.500000  1
  H  H17  1  0.392630  0.681040  0.500000  1
  H  H18  1  0.829897  0.228645  0.729780  1
  H  H19  1  0.170103  0.771355  0.729780  1
  H  H20  1  0.228645  0.170103  0.770221  1
  H  H21  1  0.771355  0.829897  0.770221  1
