# generated using pymatgen
data_Tm8Os3WC8
_symmetry_space_group_name_H-M   'P 1'
_cell_length_a   5.02609000
_cell_length_b   6.48794156
_cell_length_c   9.70703783
_cell_angle_alpha   89.67023697
_cell_angle_beta   90.00000000
_cell_angle_gamma   90.00000000
_symmetry_Int_Tables_number   1
_chemical_formula_structural   Tm8Os3WC8
_chemical_formula_sum   'Tm8 Os3 W1 C8'
_cell_volume   316.53134232
_cell_formula_units_Z   1
loop_
 _symmetry_equiv_pos_site_id
 _symmetry_equiv_pos_as_xyz
  1  'x, y, z'
loop_
 _atom_site_type_symbol
 _atom_site_label
 _atom_site_symmetry_multiplicity
 _atom_site_fract_x
 _atom_site_fract_y
 _atom_site_fract_z
 _atom_site_occupancy
  Tm  Tm0  1  0.250000  0.677295  0.555689  1
  Tm  Tm1  1  0.750000  0.323981  0.443538  1
  Tm  Tm2  1  0.750000  0.825791  0.056578  1
  Tm  Tm3  1  0.250000  0.179292  0.943047  1
  Tm  Tm4  1  0.250000  0.532833  0.215234  1
  Tm  Tm5  1  0.750000  0.465729  0.779189  1
  Tm  Tm6  1  0.750000  0.968899  0.717434  1
  Tm  Tm7  1  0.250000  0.030872  0.284187  1
  Os  Os8  1  0.750000  0.281028  0.133137  1
  Os  Os9  1  0.750000  0.779520  0.365856  1
  Os  Os10  1  0.250000  0.221769  0.630240  1
  W  W11  1  0.250000  0.719090  0.869872  1
  C  C12  1  0.250000  0.451138  0.759806  1
  C  C13  1  0.750000  0.544694  0.242120  1
  C  C14  1  0.750000  0.046058  0.259146  1
  C  C15  1  0.250000  0.955865  0.739824  1
  C  C16  1  0.250000  0.826940  0.060559  1
  C  C17  1  0.750000  0.171865  0.946435  1
  C  C18  1  0.750000  0.670823  0.554216  1
  C  C19  1  0.250000  0.326519  0.443894  1
