# generated using pymatgen
data_HoTm7Re3B24Ir
_symmetry_space_group_name_H-M   'P 1'
_cell_length_a   3.64003700
_cell_length_b   9.10401193
_cell_length_c   11.47751403
_cell_angle_alpha   90.12160776
_cell_angle_beta   90.00000000
_cell_angle_gamma   90.00000000
_symmetry_Int_Tables_number   1
_chemical_formula_structural   HoTm7Re3B24Ir
_chemical_formula_sum   'Ho1 Tm7 Re3 B24 Ir1'
_cell_volume   380.35179517
_cell_formula_units_Z   1
loop_
 _symmetry_equiv_pos_site_id
 _symmetry_equiv_pos_as_xyz
  1  'x, y, z'
loop_
 _atom_site_type_symbol
 _atom_site_label
 _atom_site_symmetry_multiplicity
 _atom_site_fract_x
 _atom_site_fract_y
 _atom_site_fract_z
 _atom_site_occupancy
  Ho  Ho0  1  0.000000  0.317693  0.415498  1
  Tm  Tm1  1  0.000000  0.679053  0.591817  1
  Tm  Tm2  1  0.000000  0.827124  0.080950  1
  Tm  Tm3  1  0.000000  0.177734  0.912563  1
  Tm  Tm4  1  0.000000  0.944059  0.370639  1
  Tm  Tm5  1  0.000000  0.055760  0.628951  1
  Tm  Tm6  1  0.000000  0.440936  0.127807  1
  Tm  Tm7  1  0.000000  0.556781  0.871888  1
  Re  Re8  1  0.000000  0.362743  0.678009  1
  Re  Re9  1  0.000000  0.138048  0.179704  1
  Re  Re10  1  0.000000  0.861648  0.820783  1
  B  B11  1  0.500000  0.553971  0.434115  1
  B  B12  1  0.500000  0.447156  0.566580  1
  B  B13  1  0.500000  0.053055  0.066163  1
  B  B14  1  0.500000  0.947344  0.933081  1
  B  B15  1  0.500000  0.749665  0.420593  1
  B  B16  1  0.500000  0.249793  0.581018  1
  B  B17  1  0.500000  0.249558  0.080599  1
  B  B18  1  0.500000  0.751133  0.919403  1
  B  B19  1  0.500000  0.791820  0.264833  1
  B  B20  1  0.500000  0.207818  0.734607  1
  B  B21  1  0.500000  0.292128  0.234955  1
  B  B22  1  0.500000  0.707594  0.765667  1
  B  B23  1  0.500000  0.631672  0.183681  1
  B  B24  1  0.500000  0.369548  0.814886  1
  B  B25  1  0.500000  0.130308  0.315138  1
  B  B26  1  0.500000  0.868631  0.684897  1
  B  B27  1  0.500000  0.981824  0.212083  1
  B  B28  1  0.500000  0.018235  0.787012  1
  B  B29  1  0.500000  0.482508  0.287547  1
  B  B30  1  0.500000  0.519090  0.712630  1
  B  B31  1  0.500000  0.603392  0.029175  1
  B  B32  1  0.500000  0.397683  0.971963  1
  B  B33  1  0.500000  0.100797  0.471529  1
  B  B34  1  0.500000  0.895663  0.528197  1
  Ir  Ir35  1  0.000000  0.638036  0.321038  1
