# generated using pymatgen
data_Y2AlSi2NiIr4
_symmetry_space_group_name_H-M   'P 1'
_cell_length_a   4.05827800
_cell_length_b   4.05827800
_cell_length_c   10.35705900
_cell_angle_alpha   90.00000000
_cell_angle_beta   90.00000000
_cell_angle_gamma   90.00000000
_symmetry_Int_Tables_number   1
_chemical_formula_structural   Y2AlSi2NiIr4
_chemical_formula_sum   'Y2 Al1 Si2 Ni1 Ir4'
_cell_volume   170.57682942
_cell_formula_units_Z   1
loop_
 _symmetry_equiv_pos_site_id
 _symmetry_equiv_pos_as_xyz
  1  'x, y, z'
loop_
 _atom_site_type_symbol
 _atom_site_label
 _atom_site_symmetry_multiplicity
 _atom_site_fract_x
 _atom_site_fract_y
 _atom_site_fract_z
 _atom_site_occupancy
  Y  Y0  1  0.500000  0.000000  0.247346  1
  Y  Y1  1  0.000000  0.500000  0.752654  1
  Al  Al2  1  0.000000  0.000000  0.500000  1
  Si  Si3  1  0.000000  0.500000  0.126528  1
  Si  Si4  1  0.500000  0.000000  0.873472  1
  Ni  Ni5  1  0.500000  0.500000  0.500000  1
  Ir  Ir6  1  0.000000  0.500000  0.354262  1
  Ir  Ir7  1  0.500000  0.000000  0.645738  1
  Ir  Ir8  1  0.500000  0.500000  0.000000  1
  Ir  Ir9  1  0.000000  0.000000  0.000000  1
