# generated using pymatgen
data_Pr5AsPdO12
_symmetry_space_group_name_H-M   'P 1'
_cell_length_a   7.11693757
_cell_length_b   7.11693605
_cell_length_c   7.63777273
_cell_angle_alpha   74.46783287
_cell_angle_beta   74.46783512
_cell_angle_gamma   50.30855118
_symmetry_Int_Tables_number   1
_chemical_formula_structural   Pr5AsPdO12
_chemical_formula_sum   'Pr5 As1 Pd1 O12'
_cell_volume   284.36153753
_cell_formula_units_Z   1
loop_
 _symmetry_equiv_pos_site_id
 _symmetry_equiv_pos_as_xyz
  1  'x, y, z'
loop_
 _atom_site_type_symbol
 _atom_site_label
 _atom_site_symmetry_multiplicity
 _atom_site_fract_x
 _atom_site_fract_y
 _atom_site_fract_z
 _atom_site_occupancy
  Pr  Pr0  1  0.309375  0.299915  0.357405  1
  Pr  Pr1  1  0.700085  0.690625  0.642595  1
  Pr  Pr2  1  0.699242  0.692591  0.163340  1
  Pr  Pr3  1  0.307409  0.300758  0.836660  1
  Pr  Pr4  1  0.006279  0.993721  0.500000  1
  As  As5  1  0.237671  0.762329  0.000000  1
  Pd  Pd6  1  0.749481  0.250519  0.000000  1
  O  O7  1  0.100696  0.595255  0.574972  1
  O  O8  1  0.013016  0.986055  0.169839  1
  O  O9  1  0.404745  0.899304  0.425028  1
  O  O10  1  0.481704  0.519402  0.168574  1
  O  O11  1  0.106542  0.594246  0.075016  1
  O  O12  1  0.908320  0.400747  0.421049  1
  O  O13  1  0.013945  0.986984  0.830161  1
  O  O14  1  0.599253  0.091679  0.578951  1
  O  O15  1  0.480598  0.518296  0.831426  1
  O  O16  1  0.573359  0.097472  0.079599  1
  O  O17  1  0.405754  0.893458  0.924984  1
  O  O18  1  0.902528  0.426641  0.920401  1
