# generated using pymatgen
data_Li3Dy4Ho(P3Ir4)4
_symmetry_space_group_name_H-M   'P 1'
_cell_length_a   12.71414600
_cell_length_b   12.71462900
_cell_length_c   3.98241200
_cell_angle_alpha   90.00000000
_cell_angle_beta   90.00000000
_cell_angle_gamma   120.00125471
_symmetry_Int_Tables_number   1
_chemical_formula_structural   Li3Dy4Ho(P3Ir4)4
_chemical_formula_sum   'Li3 Dy4 Ho1 P12 Ir16'
_cell_volume   557.52226421
_cell_formula_units_Z   1
loop_
 _symmetry_equiv_pos_site_id
 _symmetry_equiv_pos_as_xyz
  1  'x, y, z'
loop_
 _atom_site_type_symbol
 _atom_site_label
 _atom_site_symmetry_multiplicity
 _atom_site_fract_x
 _atom_site_fract_y
 _atom_site_fract_z
 _atom_site_occupancy
  Li  Li0  1  0.000000  0.442186  0.500000  1
  Li  Li1  1  0.557812  0.557819  0.500000  1
  Li  Li2  1  0.442188  0.000007  0.500000  1
  Dy  Dy3  1  0.333348  0.666668  0.500000  1
  Dy  Dy4  1  0.666652  0.333319  0.500000  1
  Dy  Dy5  1  0.190828  0.190830  0.000000  1
  Dy  Dy6  1  0.809172  0.000002  0.000000  1
  Ho  Ho7  1  0.000000  0.809137  0.000000  1
  P  P8  1  0.000000  0.630193  0.500000  1
  P  P9  1  0.369923  0.369934  0.500000  1
  P  P10  1  0.630077  0.000011  0.500000  1
  P  P11  1  0.516348  0.687224  0.000000  1
  P  P12  1  0.312770  0.829095  0.000000  1
  P  P13  1  0.170888  0.483695  0.000000  1
  P  P14  1  0.483652  0.170876  0.000000  1
  P  P15  1  0.687230  0.516325  0.000000  1
  P  P16  1  0.829112  0.312807  0.000000  1
  P  P17  1  0.000000  0.179553  0.500000  1
  P  P18  1  0.820501  0.820412  0.500000  1
  P  P19  1  0.179499  0.999912  0.500000  1
  Ir  Ir20  1  0.509767  0.868463  0.000000  1
  Ir  Ir21  1  0.131502  0.641363  0.000000  1
  Ir  Ir22  1  0.358684  0.490235  0.000000  1
  Ir  Ir23  1  0.490233  0.358695  0.000000  1
  Ir  Ir24  1  0.868498  0.509861  0.000000  1
  Ir  Ir25  1  0.641316  0.131550  0.000000  1
  Ir  Ir26  1  0.000000  0.280455  0.000000  1
  Ir  Ir27  1  0.719704  0.719581  0.000000  1
  Ir  Ir28  1  0.280296  0.999877  0.000000  1
  Ir  Ir29  1  0.626980  0.807164  0.500000  1
  Ir  Ir30  1  0.192541  0.819732  0.500000  1
  Ir  Ir31  1  0.180194  0.373029  0.500000  1
  Ir  Ir32  1  0.373020  0.180185  0.500000  1
  Ir  Ir33  1  0.807459  0.627190  0.500000  1
  Ir  Ir34  1  0.819806  0.192835  0.500000  1
  Ir  Ir35  1  0.000000  0.999781  0.500000  1
