# generated using pymatgen
data_Sm3Dy3(BiO7)2
_symmetry_space_group_name_H-M   'P 1'
_cell_length_a   6.61687459
_cell_length_b   6.61730601
_cell_length_c   7.78173310
_cell_angle_alpha   106.93148536
_cell_angle_beta   89.79533375
_cell_angle_gamma   98.82286321
_symmetry_Int_Tables_number   1
_chemical_formula_structural   Sm3Dy3(BiO7)2
_chemical_formula_sum   'Sm3 Dy3 Bi2 O14'
_cell_volume   321.79914725
_cell_formula_units_Z   1
loop_
 _symmetry_equiv_pos_site_id
 _symmetry_equiv_pos_as_xyz
  1  'x, y, z'
loop_
 _atom_site_type_symbol
 _atom_site_label
 _atom_site_symmetry_multiplicity
 _atom_site_fract_x
 _atom_site_fract_y
 _atom_site_fract_z
 _atom_site_occupancy
  Sm  Sm0  1  0.728666  0.461631  0.115857  1
  Sm  Sm1  1  0.736183  0.478076  0.616139  1
  Sm  Sm2  1  0.262553  0.522762  0.385839  1
  Dy  Dy3  1  0.461780  0.005121  0.251848  1
  Dy  Dy4  1  0.536889  0.993941  0.747873  1
  Dy  Dy5  1  0.272278  0.538810  0.883264  1
  Bi  Bi6  1  0.000917  0.001546  0.501205  1
  Bi  Bi7  1  0.001713  0.000248  0.999095  1
  O  O8  1  0.442342  0.650973  0.163904  1
  O  O9  1  0.548141  0.347840  0.831940  1
  O  O10  1  0.302720  0.924318  0.952427  1
  O  O11  1  0.698906  0.071802  0.047457  1
  O  O12  1  0.299736  0.928558  0.513195  1
  O  O13  1  0.701566  0.071259  0.486249  1
  O  O14  1  0.544427  0.359183  0.344306  1
  O  O15  1  0.452623  0.640765  0.659773  1
  O  O16  1  0.930190  0.667405  0.955251  1
  O  O17  1  0.077075  0.331887  0.038972  1
  O  O18  1  0.073276  0.346403  0.622485  1
  O  O19  1  0.929246  0.655811  0.382629  1
  O  O20  1  0.874828  0.907064  0.726080  1
  O  O21  1  0.123947  0.094598  0.274214  1
