# generated using pymatgen
data_Er16Ga6FeRh
_symmetry_space_group_name_H-M   'P 1'
_cell_length_a   9.93313000
_cell_length_b   9.93313144
_cell_length_c   6.89723500
_cell_angle_alpha   90.00000000
_cell_angle_beta   90.00000000
_cell_angle_gamma   120.00000188
_symmetry_Int_Tables_number   1
_chemical_formula_structural   Er16Ga6FeRh
_chemical_formula_sum   'Er16 Ga6 Fe1 Rh1'
_cell_volume   589.35632439
_cell_formula_units_Z   1
loop_
 _symmetry_equiv_pos_site_id
 _symmetry_equiv_pos_as_xyz
  1  'x, y, z'
loop_
 _atom_site_type_symbol
 _atom_site_label
 _atom_site_symmetry_multiplicity
 _atom_site_fract_x
 _atom_site_fract_y
 _atom_site_fract_z
 _atom_site_occupancy
  Er  Er0  1  0.000000  0.000000  0.266851  1
  Er  Er1  1  0.000000  0.000000  0.768461  1
  Er  Er2  1  0.173127  0.826873  0.992315  1
  Er  Er3  1  0.829079  0.170921  0.489909  1
  Er  Er4  1  0.173127  0.346254  0.992315  1
  Er  Er5  1  0.653746  0.826873  0.992315  1
  Er  Er6  1  0.341841  0.170921  0.489909  1
  Er  Er7  1  0.829079  0.658159  0.489909  1
  Er  Er8  1  0.333333  0.666667  0.669365  1
  Er  Er9  1  0.666667  0.333333  0.162117  1
  Er  Er10  1  0.463528  0.536472  0.293267  1
  Er  Er11  1  0.533224  0.466776  0.796177  1
  Er  Er12  1  0.463528  0.927058  0.293267  1
  Er  Er13  1  0.072942  0.536472  0.293267  1
  Er  Er14  1  0.933554  0.466776  0.796177  1
  Er  Er15  1  0.533224  0.066446  0.796177  1
  Ga  Ga16  1  0.163648  0.836352  0.542053  1
  Ga  Ga17  1  0.836654  0.163346  0.041845  1
  Ga  Ga18  1  0.163648  0.327296  0.542053  1
  Ga  Ga19  1  0.672704  0.836352  0.542053  1
  Ga  Ga20  1  0.326692  0.163346  0.041845  1
  Ga  Ga21  1  0.836654  0.673308  0.041845  1
  Fe  Fe22  1  0.333333  0.666667  0.055795  1
  Rh  Rh23  1  0.666667  0.333333  0.556829  1
