# generated using pymatgen
data_Yb3(CeRu)2
_symmetry_space_group_name_H-M   'P 1'
_cell_length_a   8.85694168
_cell_length_b   8.85694229
_cell_length_c   7.24871355
_cell_angle_alpha   84.48869286
_cell_angle_beta   84.48868012
_cell_angle_gamma   43.23703993
_symmetry_Int_Tables_number   1
_chemical_formula_structural   Yb3(CeRu)2
_chemical_formula_sum   'Yb6 Ce4 Ru4'
_cell_volume   387.43658649
_cell_formula_units_Z   2
loop_
 _symmetry_equiv_pos_site_id
 _symmetry_equiv_pos_as_xyz
  1  'x, y, z'
loop_
 _atom_site_type_symbol
 _atom_site_label
 _atom_site_symmetry_multiplicity
 _atom_site_fract_x
 _atom_site_fract_y
 _atom_site_fract_z
 _atom_site_occupancy
  Yb  Yb0  1  0.359764  0.215076  0.817811  1
  Yb  Yb1  1  0.784924  0.640236  0.682189  1
  Yb  Yb2  1  0.640236  0.784924  0.182189  1
  Yb  Yb3  1  0.215076  0.359764  0.317811  1
  Yb  Yb4  1  0.577514  0.422486  0.750000  1
  Yb  Yb5  1  0.422486  0.577514  0.250000  1
  Ce  Ce6  1  0.007943  0.809696  0.902969  1
  Ce  Ce7  1  0.190304  0.992057  0.597031  1
  Ce  Ce8  1  0.992057  0.190304  0.097031  1
  Ce  Ce9  1  0.809696  0.007943  0.402969  1
  Ru  Ru10  1  0.128237  0.658490  0.605532  1
  Ru  Ru11  1  0.341510  0.871763  0.894468  1
  Ru  Ru12  1  0.871763  0.341510  0.394468  1
  Ru  Ru13  1  0.658490  0.128237  0.105532  1
