# generated using pymatgen
data_Lu2Re2B4Ru3
_symmetry_space_group_name_H-M   'P 1'
_cell_length_a   3.07539000
_cell_length_b   8.67745800
_cell_length_c   10.13358704
_cell_angle_alpha   90.00351318
_cell_angle_beta   90.00000000
_cell_angle_gamma   90.00000000
_symmetry_Int_Tables_number   1
_chemical_formula_structural   Lu2Re2B4Ru3
_chemical_formula_sum   'Lu4 Re4 B8 Ru6'
_cell_volume   270.43065487
_cell_formula_units_Z   2
loop_
 _symmetry_equiv_pos_site_id
 _symmetry_equiv_pos_as_xyz
  1  'x, y, z'
loop_
 _atom_site_type_symbol
 _atom_site_label
 _atom_site_symmetry_multiplicity
 _atom_site_fract_x
 _atom_site_fract_y
 _atom_site_fract_z
 _atom_site_occupancy
  Lu  Lu0  1  0.500000  0.842394  0.181530  1
  Lu  Lu1  1  0.500000  0.157606  0.818470  1
  Lu  Lu2  1  0.500000  0.657597  0.681376  1
  Lu  Lu3  1  0.500000  0.342403  0.318624  1
  Re  Re4  1  0.000000  0.658871  0.953669  1
  Re  Re5  1  0.000000  0.341129  0.046331  1
  Re  Re6  1  0.000000  0.841177  0.453615  1
  Re  Re7  1  0.000000  0.158823  0.546385  1
  B  B8  1  0.500000  0.964992  0.588011  1
  B  B9  1  0.500000  0.035008  0.411989  1
  B  B10  1  0.500000  0.847552  0.901893  1
  B  B11  1  0.500000  0.152448  0.098107  1
  B  B12  1  0.500000  0.652434  0.401834  1
  B  B13  1  0.500000  0.347566  0.598166  1
  B  B14  1  0.500000  0.465190  0.911986  1
  B  B15  1  0.500000  0.534810  0.088014  1
  Ru  Ru16  1  0.000000  0.000000  0.000000  1
  Ru  Ru17  1  0.000000  0.404826  0.759884  1
  Ru  Ru18  1  0.000000  0.595174  0.240116  1
  Ru  Ru19  1  0.000000  0.500000  0.500000  1
  Ru  Ru20  1  0.000000  0.904765  0.740147  1
  Ru  Ru21  1  0.000000  0.095235  0.259853  1
