# generated using pymatgen
data_K4HfTcI12
_symmetry_space_group_name_H-M   'P 1'
_cell_length_a   8.54915515
_cell_length_b   8.14491610
_cell_length_c   13.96799915
_cell_angle_alpha   54.25042711
_cell_angle_beta   89.97869627
_cell_angle_gamma   90.36384590
_symmetry_Int_Tables_number   1
_chemical_formula_structural   K4HfTcI12
_chemical_formula_sum   'K4 Hf1 Tc1 I12'
_cell_volume   789.33290894
_cell_formula_units_Z   1
loop_
 _symmetry_equiv_pos_site_id
 _symmetry_equiv_pos_as_xyz
  1  'x, y, z'
loop_
 _atom_site_type_symbol
 _atom_site_label
 _atom_site_symmetry_multiplicity
 _atom_site_fract_x
 _atom_site_fract_y
 _atom_site_fract_z
 _atom_site_occupancy
  K  K0  1  0.422402  0.728870  0.254077  1
  K  K1  1  0.923066  0.255139  0.258034  1
  K  K2  1  0.076934  0.744861  0.741966  1
  K  K3  1  0.577598  0.271130  0.745923  1
  Hf  Hf4  1  0.000000  0.000000  0.000000  1
  Tc  Tc5  1  0.500000  0.000000  0.500000  1
  I  I6  1  0.825125  0.333364  0.960171  1
  I  I7  1  0.512371  0.154703  0.265028  1
  I  I8  1  0.487629  0.845297  0.734972  1
  I  I9  1  0.287401  0.213174  0.963440  1
  I  I10  1  0.318801  0.680694  0.543029  1
  I  I11  1  0.231010  0.218715  0.459340  1
  I  I12  1  0.174875  0.666636  0.039829  1
  I  I13  1  0.768990  0.781285  0.540660  1
  I  I14  1  0.712599  0.786826  0.036560  1
  I  I15  1  0.010045  0.825054  0.246578  1
  I  I16  1  0.989955  0.174946  0.753422  1
  I  I17  1  0.681199  0.319306  0.456971  1
