# generated using pymatgen
data_Sm6Cd23Ge
_symmetry_space_group_name_H-M   'P 1'
_cell_length_a   10.00328481
_cell_length_b   10.00328456
_cell_length_c   10.00328500
_cell_angle_alpha   60.00000186
_cell_angle_beta   60.00000268
_cell_angle_gamma   60.00000479
_symmetry_Int_Tables_number   1
_chemical_formula_structural   Sm6Cd23Ge
_chemical_formula_sum   'Sm6 Cd23 Ge1'
_cell_volume   707.80386943
_cell_formula_units_Z   1
loop_
 _symmetry_equiv_pos_site_id
 _symmetry_equiv_pos_as_xyz
  1  'x, y, z'
loop_
 _atom_site_type_symbol
 _atom_site_label
 _atom_site_symmetry_multiplicity
 _atom_site_fract_x
 _atom_site_fract_y
 _atom_site_fract_z
 _atom_site_occupancy
  Sm  Sm0  1  0.791784  0.791784  0.208216  1
  Sm  Sm1  1  0.208216  0.791784  0.208216  1
  Sm  Sm2  1  0.791784  0.208216  0.208216  1
  Sm  Sm3  1  0.208216  0.208216  0.791784  1
  Sm  Sm4  1  0.791784  0.208216  0.791784  1
  Sm  Sm5  1  0.208216  0.791784  0.791784  1
  Cd  Cd6  1  0.837141  0.837141  0.488576  1
  Cd  Cd7  1  0.837141  0.488576  0.837141  1
  Cd  Cd8  1  0.488576  0.837141  0.837141  1
  Cd  Cd9  1  0.837141  0.837141  0.837141  1
  Cd  Cd10  1  0.162859  0.162859  0.511424  1
  Cd  Cd11  1  0.162859  0.511424  0.162859  1
  Cd  Cd12  1  0.511424  0.162859  0.162859  1
  Cd  Cd13  1  0.162859  0.162859  0.162859  1
  Cd  Cd14  1  0.622566  0.622566  0.132303  1
  Cd  Cd15  1  0.622566  0.132303  0.622566  1
  Cd  Cd16  1  0.132303  0.622566  0.622566  1
  Cd  Cd17  1  0.622566  0.622566  0.622566  1
  Cd  Cd18  1  0.377434  0.377434  0.867697  1
  Cd  Cd19  1  0.377434  0.867697  0.377434  1
  Cd  Cd20  1  0.867697  0.377434  0.377434  1
  Cd  Cd21  1  0.377434  0.377434  0.377434  1
  Cd  Cd22  1  0.000000  0.000000  0.500000  1
  Cd  Cd23  1  0.500000  0.000000  0.500000  1
  Cd  Cd24  1  0.000000  0.500000  0.500000  1
  Cd  Cd25  1  0.500000  0.500000  0.000000  1
  Cd  Cd26  1  0.000000  0.500000  0.000000  1
  Cd  Cd27  1  0.500000  0.000000  0.000000  1
  Cd  Cd28  1  0.500000  0.500000  0.500000  1
  Ge  Ge29  1  0.000000  0.000000  0.000000  1
