# generated using pymatgen
data_CaPr8Dy11Si16
_symmetry_space_group_name_H-M   'P 1'
_cell_length_a   7.55410400
_cell_length_b   7.82664100
_cell_length_c   14.87964800
_cell_angle_alpha   90.00000000
_cell_angle_beta   90.00000000
_cell_angle_gamma   89.99877014
_symmetry_Int_Tables_number   1
_chemical_formula_structural   CaPr8Dy11Si16
_chemical_formula_sum   'Ca1 Pr8 Dy11 Si16'
_cell_volume   879.73329867
_cell_formula_units_Z   1
loop_
 _symmetry_equiv_pos_site_id
 _symmetry_equiv_pos_as_xyz
  1  'x, y, z'
loop_
 _atom_site_type_symbol
 _atom_site_label
 _atom_site_symmetry_multiplicity
 _atom_site_fract_x
 _atom_site_fract_y
 _atom_site_fract_z
 _atom_site_occupancy
  Ca  Ca0  1  0.649313  0.989310  0.250000  1
  Pr  Pr1  1  0.972297  0.820979  0.098258  1
  Pr  Pr2  1  0.473962  0.680163  0.401180  1
  Pr  Pr3  1  0.525967  0.320334  0.901345  1
  Pr  Pr4  1  0.025758  0.179711  0.598762  1
  Pr  Pr5  1  0.025758  0.179711  0.901238  1
  Pr  Pr6  1  0.525967  0.320334  0.598655  1
  Pr  Pr7  1  0.473962  0.680163  0.098820  1
  Pr  Pr8  1  0.972297  0.820979  0.401742  1
  Dy  Dy9  1  0.148762  0.510290  0.250000  1
  Dy  Dy10  1  0.851564  0.489403  0.750000  1
  Dy  Dy11  1  0.349966  0.011271  0.750000  1
  Dy  Dy12  1  0.681751  0.820446  0.876342  1
  Dy  Dy13  1  0.181232  0.678723  0.623135  1
  Dy  Dy14  1  0.817989  0.320362  0.122092  1
  Dy  Dy15  1  0.320268  0.179085  0.377679  1
  Dy  Dy16  1  0.320268  0.179085  0.122321  1
  Dy  Dy17  1  0.817989  0.320362  0.377908  1
  Dy  Dy18  1  0.181232  0.678723  0.876865  1
  Dy  Dy19  1  0.681751  0.820446  0.623658  1
  Si  Si20  1  0.768290  0.610638  0.250000  1
  Si  Si21  1  0.259074  0.880274  0.250000  1
  Si  Si22  1  0.731286  0.120548  0.750000  1
  Si  Si23  1  0.232836  0.379790  0.750000  1
  Si  Si24  1  0.030635  0.114676  0.250000  1
  Si  Si25  1  0.523274  0.394309  0.250000  1
  Si  Si26  1  0.476671  0.611326  0.750000  1
  Si  Si27  1  0.976726  0.887135  0.750000  1
  Si  Si28  1  0.856999  0.530427  0.959996  1
  Si  Si29  1  0.357054  0.968278  0.539948  1
  Si  Si30  1  0.644164  0.032248  0.036101  1
  Si  Si31  1  0.143362  0.469759  0.459528  1
  Si  Si32  1  0.143362  0.469759  0.040472  1
  Si  Si33  1  0.644164  0.032248  0.463899  1
  Si  Si34  1  0.357054  0.968278  0.960052  1
  Si  Si35  1  0.856999  0.530427  0.540004  1
