# generated using pymatgen
data_Dy4GaI6
_symmetry_space_group_name_H-M   'P 1'
_cell_length_a   4.22330700
_cell_length_b   14.06644300
_cell_length_c   14.85584000
_cell_angle_alpha   90.00000000
_cell_angle_beta   90.00000000
_cell_angle_gamma   90.00000000
_symmetry_Int_Tables_number   1
_chemical_formula_structural   Dy4GaI6
_chemical_formula_sum   'Dy8 Ga2 I12'
_cell_volume   882.53950806
_cell_formula_units_Z   2
loop_
 _symmetry_equiv_pos_site_id
 _symmetry_equiv_pos_as_xyz
  1  'x, y, z'
loop_
 _atom_site_type_symbol
 _atom_site_label
 _atom_site_symmetry_multiplicity
 _atom_site_fract_x
 _atom_site_fract_y
 _atom_site_fract_z
 _atom_site_occupancy
  Dy  Dy0  1  0.500000  0.115374  0.345639  1
  Dy  Dy1  1  0.500000  0.884626  0.654361  1
  Dy  Dy2  1  0.500000  0.615374  0.154361  1
  Dy  Dy3  1  0.500000  0.384626  0.845639  1
  Dy  Dy4  1  0.000000  0.113902  0.576616  1
  Dy  Dy5  1  0.000000  0.886098  0.423384  1
  Dy  Dy6  1  0.000000  0.613902  0.923384  1
  Dy  Dy7  1  0.000000  0.386098  0.076616  1
  Ga  Ga8  1  0.500000  0.000000  0.500000  1
  Ga  Ga9  1  0.500000  0.500000  0.000000  1
  I  I10  1  0.500000  0.245846  0.163683  1
  I  I11  1  0.500000  0.754154  0.836317  1
  I  I12  1  0.500000  0.745846  0.336317  1
  I  I13  1  0.500000  0.254154  0.663683  1
  I  I14  1  0.000000  0.259094  0.414700  1
  I  I15  1  0.000000  0.740906  0.585300  1
  I  I16  1  0.000000  0.759094  0.085300  1
  I  I17  1  0.000000  0.240906  0.914700  1
  I  I18  1  0.000000  0.998752  0.239851  1
  I  I19  1  0.000000  0.001248  0.760149  1
  I  I20  1  0.000000  0.498752  0.260149  1
  I  I21  1  0.000000  0.501248  0.739851  1
