# generated using pymatgen
data_Tb2(CeOs)3
_symmetry_space_group_name_H-M   'P 1'
_cell_length_a   6.69096900
_cell_length_b   8.05806575
_cell_length_c   8.05806400
_cell_angle_alpha   120.00000922
_cell_angle_beta   90.00000000
_cell_angle_gamma   90.00000000
_symmetry_Int_Tables_number   1
_chemical_formula_structural   Tb2(CeOs)3
_chemical_formula_sum   'Tb4 Ce6 Os6'
_cell_volume   376.25400238
_cell_formula_units_Z   2
loop_
 _symmetry_equiv_pos_site_id
 _symmetry_equiv_pos_as_xyz
  1  'x, y, z'
loop_
 _atom_site_type_symbol
 _atom_site_label
 _atom_site_symmetry_multiplicity
 _atom_site_fract_x
 _atom_site_fract_y
 _atom_site_fract_z
 _atom_site_occupancy
  Tb  Tb0  1  0.000000  0.666667  0.333333  1
  Tb  Tb1  1  0.000000  0.333333  0.666667  1
  Tb  Tb2  1  0.500000  0.333333  0.666667  1
  Tb  Tb3  1  0.500000  0.666667  0.333333  1
  Ce  Ce4  1  0.750000  0.751327  0.751327  1
  Ce  Ce5  1  0.250000  0.248673  0.248673  1
  Ce  Ce6  1  0.750000  0.000000  0.248673  1
  Ce  Ce7  1  0.250000  0.000000  0.751327  1
  Ce  Ce8  1  0.750000  0.248673  0.000000  1
  Ce  Ce9  1  0.250000  0.751327  0.000000  1
  Os  Os10  1  0.750000  0.373065  0.373065  1
  Os  Os11  1  0.250000  0.626935  0.626935  1
  Os  Os12  1  0.750000  0.000000  0.626935  1
  Os  Os13  1  0.250000  0.000000  0.373065  1
  Os  Os14  1  0.750000  0.626935  0.000000  1
  Os  Os15  1  0.250000  0.373065  0.000000  1
