# generated using pymatgen
data_TmLu11Co5Hg
_symmetry_space_group_name_H-M   'P 1'
_cell_length_a   8.07546398
_cell_length_b   8.07126452
_cell_length_c   8.07546294
_cell_angle_alpha   111.10255495
_cell_angle_beta   110.86344270
_cell_angle_gamma   106.50832019
_symmetry_Int_Tables_number   1
_chemical_formula_structural   TmLu11Co5Hg
_chemical_formula_sum   'Tm1 Lu11 Co5 Hg1'
_cell_volume   404.27149923
_cell_formula_units_Z   1
loop_
 _symmetry_equiv_pos_site_id
 _symmetry_equiv_pos_as_xyz
  1  'x, y, z'
loop_
 _atom_site_type_symbol
 _atom_site_label
 _atom_site_symmetry_multiplicity
 _atom_site_fract_x
 _atom_site_fract_y
 _atom_site_fract_z
 _atom_site_occupancy
  Tm  Tm0  1  0.783762  0.976142  0.192380  1
  Lu  Lu1  1  0.287315  0.184986  0.471834  1
  Lu  Lu2  1  0.713126  0.815157  0.528837  1
  Lu  Lu3  1  0.286320  0.815157  0.102031  1
  Lu  Lu4  1  0.713152  0.184986  0.897672  1
  Lu  Lu5  1  0.618219  0.314914  0.304094  1
  Lu  Lu6  1  0.381363  0.685211  0.695631  1
  Lu  Lu7  1  0.010820  0.314914  0.696696  1
  Lu  Lu8  1  0.989580  0.685211  0.303847  1
  Lu  Lu9  1  0.215895  0.408299  0.192405  1
  Lu  Lu10  1  0.784252  0.591416  0.807165  1
  Lu  Lu11  1  0.215825  0.023317  0.807492  1
  Co  Co12  1  0.000195  0.375613  0.375418  1
  Co  Co13  1  0.000002  0.624942  0.624940  1
  Co  Co14  1  0.385509  0.885634  0.500124  1
  Co  Co15  1  0.614395  0.114490  0.500095  1
  Co  Co16  1  0.000448  0.999939  0.999490  1
  Hg  Hg17  1  0.499823  0.499671  0.999848  1
