# generated using pymatgen
data_Tb6Nd4B2Cl15
_symmetry_space_group_name_H-M   'P 1'
_cell_length_a   8.95454717
_cell_length_b   9.67797240
_cell_length_c   10.42929463
_cell_angle_alpha   90.91549497
_cell_angle_beta   114.29778323
_cell_angle_gamma   111.32250926
_symmetry_Int_Tables_number   1
_chemical_formula_structural   Tb6Nd4B2Cl15
_chemical_formula_sum   'Tb6 Nd4 B2 Cl15'
_cell_volume   752.63526493
_cell_formula_units_Z   1
loop_
 _symmetry_equiv_pos_site_id
 _symmetry_equiv_pos_as_xyz
  1  'x, y, z'
loop_
 _atom_site_type_symbol
 _atom_site_label
 _atom_site_symmetry_multiplicity
 _atom_site_fract_x
 _atom_site_fract_y
 _atom_site_fract_z
 _atom_site_occupancy
  Tb  Tb0  1  0.525188  0.702662  0.097692  1
  Tb  Tb1  1  0.474812  0.297338  0.902308  1
  Tb  Tb2  1  0.588203  0.038700  0.329682  1
  Tb  Tb3  1  0.411797  0.961300  0.670318  1
  Tb  Tb4  1  0.727668  0.076353  0.047978  1
  Tb  Tb5  1  0.272332  0.923647  0.952022  1
  Nd  Nd6  1  0.812080  0.420627  0.282873  1
  Nd  Nd7  1  0.187920  0.579373  0.717127  1
  Nd  Nd8  1  0.679883  0.744169  0.814379  1
  Nd  Nd9  1  0.320117  0.255831  0.185621  1
  B  B10  1  0.466449  0.820697  0.876894  1
  B  B11  1  0.533551  0.179303  0.123106  1
  Cl  Cl12  1  0.000000  0.000000  0.000000  1
  Cl  Cl13  1  0.629054  0.890242  0.579860  1
  Cl  Cl14  1  0.370946  0.109758  0.420140  1
  Cl  Cl15  1  0.875270  0.287790  0.524989  1
  Cl  Cl16  1  0.124730  0.712210  0.475011  1
  Cl  Cl17  1  0.301515  0.767388  0.179406  1
  Cl  Cl18  1  0.698485  0.232612  0.820594  1
  Cl  Cl19  1  0.047895  0.338107  0.222308  1
  Cl  Cl20  1  0.178793  0.059134  0.709963  1
  Cl  Cl21  1  0.821207  0.940866  0.290037  1
  Cl  Cl22  1  0.247440  0.413667  0.948608  1
  Cl  Cl23  1  0.752560  0.586333  0.051392  1
  Cl  Cl24  1  0.406868  0.456555  0.662313  1
  Cl  Cl25  1  0.593132  0.543445  0.337687  1
  Cl  Cl26  1  0.952105  0.661893  0.777692  1
