# generated using pymatgen
data_Hf18Re7Pt2W
_symmetry_space_group_name_H-M   'P 1'
_cell_length_a   8.70080300
_cell_length_b   8.70080288
_cell_length_c   8.52988500
_cell_angle_alpha   90.00000000
_cell_angle_beta   90.00000000
_cell_angle_gamma   120.00000427
_symmetry_Int_Tables_number   1
_chemical_formula_structural   Hf18Re7Pt2W
_chemical_formula_sum   'Hf18 Re7 Pt2 W1'
_cell_volume   559.23256635
_cell_formula_units_Z   1
loop_
 _symmetry_equiv_pos_site_id
 _symmetry_equiv_pos_as_xyz
  1  'x, y, z'
loop_
 _atom_site_type_symbol
 _atom_site_label
 _atom_site_symmetry_multiplicity
 _atom_site_fract_x
 _atom_site_fract_y
 _atom_site_fract_z
 _atom_site_occupancy
  Hf  Hf0  1  0.195537  0.804463  0.448245  1
  Hf  Hf1  1  0.195537  0.391074  0.448245  1
  Hf  Hf2  1  0.608926  0.804463  0.448245  1
  Hf  Hf3  1  0.804463  0.195537  0.551755  1
  Hf  Hf4  1  0.804463  0.608926  0.551755  1
  Hf  Hf5  1  0.391074  0.195537  0.551755  1
  Hf  Hf6  1  0.806206  0.193794  0.947637  1
  Hf  Hf7  1  0.806206  0.612413  0.947637  1
  Hf  Hf8  1  0.387587  0.193794  0.947637  1
  Hf  Hf9  1  0.193794  0.806206  0.052363  1
  Hf  Hf10  1  0.193794  0.387587  0.052363  1
  Hf  Hf11  1  0.612413  0.806206  0.052363  1
  Hf  Hf12  1  0.541637  0.458363  0.249192  1
  Hf  Hf13  1  0.541637  0.083273  0.249192  1
  Hf  Hf14  1  0.916727  0.458363  0.249192  1
  Hf  Hf15  1  0.458363  0.541637  0.750808  1
  Hf  Hf16  1  0.458363  0.916727  0.750808  1
  Hf  Hf17  1  0.083273  0.541637  0.750808  1
  Re  Re18  1  0.889739  0.110261  0.250826  1
  Re  Re19  1  0.889739  0.779476  0.250826  1
  Re  Re20  1  0.220524  0.110261  0.250826  1
  Re  Re21  1  0.110261  0.889739  0.749174  1
  Re  Re22  1  0.110261  0.220524  0.749174  1
  Re  Re23  1  0.779476  0.889739  0.749174  1
  Re  Re24  1  0.000000  0.000000  0.000000  1
  Pt  Pt25  1  0.333333  0.666667  0.248264  1
  Pt  Pt26  1  0.666667  0.333333  0.751736  1
  W  W27  1  0.000000  0.000000  0.500000  1
