# generated using pymatgen
data_Nb3(Se4Br3)2
_symmetry_space_group_name_H-M   'P 1'
_cell_length_a   7.74522119
_cell_length_b   11.56013194
_cell_length_c   13.10347237
_cell_angle_alpha   71.39914484
_cell_angle_beta   79.75236059
_cell_angle_gamma   82.76152158
_symmetry_Int_Tables_number   1
_chemical_formula_structural   Nb3(Se4Br3)2
_chemical_formula_sum   'Nb6 Se16 Br12'
_cell_volume   1091.18591056
_cell_formula_units_Z   2
loop_
 _symmetry_equiv_pos_site_id
 _symmetry_equiv_pos_as_xyz
  1  'x, y, z'
loop_
 _atom_site_type_symbol
 _atom_site_label
 _atom_site_symmetry_multiplicity
 _atom_site_fract_x
 _atom_site_fract_y
 _atom_site_fract_z
 _atom_site_occupancy
  Nb  Nb0  1  0.399854  0.500248  0.245464  1
  Nb  Nb1  1  0.600146  0.499752  0.754536  1
  Nb  Nb2  1  0.997566  0.002372  0.123955  1
  Nb  Nb3  1  0.002434  0.997628  0.876045  1
  Nb  Nb4  1  0.998549  0.001592  0.375072  1
  Nb  Nb5  1  0.001451  0.998408  0.624928  1
  Se  Se6  1  0.785678  0.887981  0.311155  1
  Se  Se7  1  0.214322  0.112019  0.688845  1
  Se  Se8  1  0.240858  0.896645  0.246046  1
  Se  Se9  1  0.759142  0.103355  0.753954  1
  Se  Se10  1  0.213220  0.115523  0.203142  1
  Se  Se11  1  0.786780  0.884477  0.796858  1
  Se  Se12  1  0.997228  0.804063  0.058373  1
  Se  Se13  1  0.002772  0.195937  0.941627  1
  Se  Se14  1  0.743346  0.941327  0.042800  1
  Se  Se15  1  0.256654  0.058673  0.957200  1
  Se  Se16  1  0.272215  0.952502  0.483294  1
  Se  Se17  1  0.727785  0.047498  0.516706  1
  Se  Se18  1  0.061338  0.805580  0.546602  1
  Se  Se19  1  0.251952  0.894937  0.760339  1
  Se  Se20  1  0.938662  0.194420  0.453398  1
  Se  Se21  1  0.748048  0.105063  0.239661  1
  Br  Br22  1  0.809266  0.577337  0.845199  1
  Br  Br23  1  0.190734  0.422663  0.154801  1
  Br  Br24  1  0.331872  0.597695  0.845836  1
  Br  Br25  1  0.639533  0.696568  0.594266  1
  Br  Br26  1  0.597047  0.577543  0.338026  1
  Br  Br27  1  0.402953  0.422457  0.661974  1
  Br  Br28  1  0.134185  0.606649  0.337874  1
  Br  Br29  1  0.865815  0.393351  0.662126  1
  Br  Br30  1  0.419409  0.692805  0.079433  1
  Br  Br31  1  0.580591  0.307195  0.920567  1
  Br  Br32  1  0.360467  0.303432  0.405734  1
  Br  Br33  1  0.668128  0.402305  0.154164  1
