# generated using pymatgen
data_Ti6ZnGa3O2
_symmetry_space_group_name_H-M   'P 1'
_cell_length_a   6.87359259
_cell_length_b   6.87534358
_cell_length_c   6.87425500
_cell_angle_alpha   90.00000000
_cell_angle_beta   90.00000000
_cell_angle_gamma   90.31261369
_symmetry_Int_Tables_number   1
_chemical_formula_structural   Ti6ZnGa3O2
_chemical_formula_sum   'Ti12 Zn2 Ga6 O4'
_cell_volume   324.86084263
_cell_formula_units_Z   2
loop_
 _symmetry_equiv_pos_site_id
 _symmetry_equiv_pos_as_xyz
  1  'x, y, z'
loop_
 _atom_site_type_symbol
 _atom_site_label
 _atom_site_symmetry_multiplicity
 _atom_site_fract_x
 _atom_site_fract_y
 _atom_site_fract_z
 _atom_site_occupancy
  Ti  Ti0  1  0.790478  0.959814  0.375227  1
  Ti  Ti1  1  0.709522  0.040186  0.875227  1
  Ti  Ti2  1  0.208977  0.457272  0.124707  1
  Ti  Ti3  1  0.291023  0.542728  0.624707  1
  Ti  Ti4  1  0.957946  0.375199  0.791238  1
  Ti  Ti5  1  0.040828  0.875415  0.709715  1
  Ti  Ti6  1  0.459172  0.124585  0.209715  1
  Ti  Ti7  1  0.542054  0.624801  0.291238  1
  Ti  Ti8  1  0.375772  0.789301  0.958324  1
  Ti  Ti9  1  0.874583  0.707680  0.041123  1
  Ti  Ti10  1  0.124228  0.210699  0.458324  1
  Ti  Ti11  1  0.625417  0.292320  0.541123  1
  Zn  Zn12  1  0.180391  0.820507  0.319801  1
  Zn  Zn13  1  0.319609  0.179493  0.819801  1
  Ga  Ga14  1  0.821003  0.319897  0.179363  1
  Ga  Ga15  1  0.678997  0.680103  0.679363  1
  Ga  Ga16  1  0.566611  0.426202  0.928891  1
  Ga  Ga17  1  0.424486  0.931734  0.570984  1
  Ga  Ga18  1  0.933389  0.573798  0.428891  1
  Ga  Ga19  1  0.075514  0.068266  0.070984  1
  O  O20  1  0.876007  0.125043  0.625107  1
  O  O21  1  0.623993  0.874957  0.125107  1
  O  O22  1  0.125438  0.624383  0.875519  1
  O  O23  1  0.374562  0.375617  0.375519  1
