# generated using pymatgen
data_Th2Zn19Pd3
_symmetry_space_group_name_H-M   'P 1'
_cell_length_a   8.29570248
_cell_length_b   8.29980832
_cell_length_c   8.29570443
_cell_angle_alpha   99.70105253
_cell_angle_beta   99.98997466
_cell_angle_gamma   131.11768445
_symmetry_Int_Tables_number   1
_chemical_formula_structural   Th2Zn19Pd3
_chemical_formula_sum   'Th2 Zn19 Pd3'
_cell_volume   391.83957255
_cell_formula_units_Z   1
loop_
 _symmetry_equiv_pos_site_id
 _symmetry_equiv_pos_as_xyz
  1  'x, y, z'
loop_
 _atom_site_type_symbol
 _atom_site_label
 _atom_site_symmetry_multiplicity
 _atom_site_fract_x
 _atom_site_fract_y
 _atom_site_fract_z
 _atom_site_occupancy
  Th  Th0  1  0.249378  0.752052  0.502673  1
  Th  Th1  1  0.000622  0.997948  0.997327  1
  Zn  Zn2  1  0.425423  0.098871  0.916998  1
  Zn  Zn3  1  0.180370  0.508465  0.084274  1
  Zn  Zn4  1  0.496235  0.499485  0.003248  1
  Zn  Zn5  1  0.753765  0.250515  0.496752  1
  Zn  Zn6  1  0.625000  0.375000  0.750000  1
  Zn  Zn7  1  0.181875  0.098871  0.673449  1
  Zn  Zn8  1  0.756873  0.931014  0.584439  1
  Zn  Zn9  1  0.346424  0.173978  0.414628  1
  Zn  Zn10  1  0.424190  0.508465  0.328093  1
  Zn  Zn11  1  0.903425  0.818986  0.325858  1
  Zn  Zn12  1  0.490650  0.576022  0.672447  1
  Zn  Zn13  1  0.069630  0.241535  0.415726  1
  Zn  Zn14  1  0.824577  0.651129  0.583002  1
  Zn  Zn15  1  0.068125  0.651129  0.826551  1
  Zn  Zn16  1  0.493127  0.818986  0.915561  1
  Zn  Zn17  1  0.903576  0.576022  0.085372  1
  Zn  Zn18  1  0.825810  0.241535  0.171907  1
  Zn  Zn19  1  0.346575  0.931014  0.174142  1
  Zn  Zn20  1  0.759350  0.173978  0.827553  1
  Pd  Pd21  1  0.125000  0.375000  0.750000  1
  Pd  Pd22  1  0.625000  0.375000  0.250000  1
  Pd  Pd23  1  0.625000  0.875000  0.250000  1
