# generated using pymatgen
data_KRb(POs)2
_symmetry_space_group_name_H-M   'P 1'
_cell_length_a   4.02465900
_cell_length_b   4.02465900
_cell_length_c   10.99725100
_cell_angle_alpha   90.00000000
_cell_angle_beta   90.00000000
_cell_angle_gamma   90.00000000
_symmetry_Int_Tables_number   1
_chemical_formula_structural   KRb(POs)2
_chemical_formula_sum   'K1 Rb1 P2 Os2'
_cell_volume   178.13215276
_cell_formula_units_Z   1
loop_
 _symmetry_equiv_pos_site_id
 _symmetry_equiv_pos_as_xyz
  1  'x, y, z'
loop_
 _atom_site_type_symbol
 _atom_site_label
 _atom_site_symmetry_multiplicity
 _atom_site_fract_x
 _atom_site_fract_y
 _atom_site_fract_z
 _atom_site_occupancy
  K  K0  1  0.000000  0.500000  0.272149  1
  Rb  Rb1  1  0.500000  0.000000  0.717506  1
  P  P2  1  0.000000  0.500000  0.890100  1
  P  P3  1  0.500000  0.000000  0.115006  1
  Os  Os4  1  0.000000  0.000000  0.002620  1
  Os  Os5  1  0.500000  0.500000  0.002620  1
