# generated using pymatgen
data_K4CuAs2Au
_symmetry_space_group_name_H-M   'P 1'
_cell_length_a   6.34110580
_cell_length_b   6.34110573
_cell_length_c   6.04748850
_cell_angle_alpha   89.04764816
_cell_angle_beta   89.04765162
_cell_angle_gamma   105.16477743
_symmetry_Int_Tables_number   1
_chemical_formula_structural   K4CuAs2Au
_chemical_formula_sum   'K4 Cu1 As2 Au1'
_cell_volume   234.61171314
_cell_formula_units_Z   1
loop_
 _symmetry_equiv_pos_site_id
 _symmetry_equiv_pos_as_xyz
  1  'x, y, z'
loop_
 _atom_site_type_symbol
 _atom_site_label
 _atom_site_symmetry_multiplicity
 _atom_site_fract_x
 _atom_site_fract_y
 _atom_site_fract_z
 _atom_site_occupancy
  K  K0  1  0.976885  0.318882  0.748810  1
  K  K1  1  0.023115  0.681118  0.251190  1
  K  K2  1  0.681118  0.023115  0.251190  1
  K  K3  1  0.318882  0.976885  0.748810  1
  Cu  Cu4  1  0.500000  0.500000  0.000000  1
  As  As5  1  0.750216  0.750216  0.764102  1
  As  As6  1  0.249784  0.249784  0.235898  1
  Au  Au7  1  0.500000  0.500000  0.500000  1
