# generated using pymatgen
data_Y8Tm2Si6O
_symmetry_space_group_name_H-M   'P 1'
_cell_length_a   8.39986600
_cell_length_b   8.39986520
_cell_length_c   6.27159100
_cell_angle_alpha   90.00000000
_cell_angle_beta   90.00000000
_cell_angle_gamma   119.99999527
_symmetry_Int_Tables_number   1
_chemical_formula_structural   Y8Tm2Si6O
_chemical_formula_sum   'Y8 Tm2 Si6 O1'
_cell_volume   383.22431385
_cell_formula_units_Z   1
loop_
 _symmetry_equiv_pos_site_id
 _symmetry_equiv_pos_as_xyz
  1  'x, y, z'
loop_
 _atom_site_type_symbol
 _atom_site_label
 _atom_site_symmetry_multiplicity
 _atom_site_fract_x
 _atom_site_fract_y
 _atom_site_fract_z
 _atom_site_occupancy
  Y  Y0  1  0.666667  0.333333  0.000000  1
  Y  Y1  1  0.333333  0.666667  0.000000  1
  Y  Y2  1  0.000000  0.762674  0.259586  1
  Y  Y3  1  0.237326  0.237326  0.259586  1
  Y  Y4  1  0.762674  0.000000  0.259586  1
  Y  Y5  1  0.000000  0.237326  0.740414  1
  Y  Y6  1  0.762674  0.762674  0.740414  1
  Y  Y7  1  0.237326  0.000000  0.740414  1
  Tm  Tm8  1  0.333333  0.666667  0.500000  1
  Tm  Tm9  1  0.666667  0.333333  0.500000  1
  Si  Si10  1  0.000000  0.398297  0.253004  1
  Si  Si11  1  0.601703  0.601703  0.253004  1
  Si  Si12  1  0.398297  0.000000  0.253004  1
  Si  Si13  1  0.000000  0.601703  0.746996  1
  Si  Si14  1  0.398297  0.398297  0.746996  1
  Si  Si15  1  0.601703  0.000000  0.746996  1
  O  O16  1  0.000000  0.000000  0.500000  1
