# generated using pymatgen
data_Nd16Er4Bi5Pb11
_symmetry_space_group_name_H-M   'P 1'
_cell_length_a   8.40822346
_cell_length_b   8.45519524
_cell_length_c   16.14695427
_cell_angle_alpha   90.10738779
_cell_angle_beta   89.98162862
_cell_angle_gamma   89.83797651
_symmetry_Int_Tables_number   1
_chemical_formula_structural   Nd16Er4Bi5Pb11
_chemical_formula_sum   'Nd16 Er4 Bi5 Pb11'
_cell_volume   1147.93151326
_cell_formula_units_Z   1
loop_
 _symmetry_equiv_pos_site_id
 _symmetry_equiv_pos_as_xyz
  1  'x, y, z'
loop_
 _atom_site_type_symbol
 _atom_site_label
 _atom_site_symmetry_multiplicity
 _atom_site_fract_x
 _atom_site_fract_y
 _atom_site_fract_z
 _atom_site_occupancy
  Nd  Nd0  1  0.380781  0.841937  0.880267  1
  Nd  Nd1  1  0.881701  0.656910  0.620180  1
  Nd  Nd2  1  0.618394  0.156162  0.379837  1
  Nd  Nd3  1  0.116274  0.341914  0.119715  1
  Nd  Nd4  1  0.621408  0.160420  0.120037  1
  Nd  Nd5  1  0.121820  0.340221  0.380894  1
  Nd  Nd6  1  0.377189  0.841621  0.619815  1
  Nd  Nd7  1  0.879091  0.657140  0.880248  1
  Nd  Nd8  1  0.549412  0.332411  0.894697  1
  Nd  Nd9  1  0.048024  0.172679  0.604553  1
  Nd  Nd10  1  0.451735  0.672437  0.395210  1
  Nd  Nd11  1  0.953935  0.826295  0.104779  1
  Nd  Nd12  1  0.456250  0.669781  0.105321  1
  Nd  Nd13  1  0.961639  0.825674  0.397305  1
  Nd  Nd14  1  0.538658  0.326770  0.603225  1
  Nd  Nd15  1  0.043407  0.175576  0.896003  1
  Er  Er16  1  0.212335  0.500267  0.746830  1
  Er  Er17  1  0.712809  0.001401  0.749637  1
  Er  Er18  1  0.787700  0.499209  0.248418  1
  Er  Er19  1  0.287904  0.998805  0.252763  1
  Bi  Bi20  1  0.275040  0.021513  0.049592  1
  Bi  Bi21  1  0.774123  0.475323  0.451495  1
  Bi  Bi22  1  0.725270  0.976292  0.548695  1
  Bi  Bi23  1  0.224779  0.523950  0.951226  1
  Bi  Bi24  1  0.725017  0.978573  0.950488  1
  Pb  Pb25  1  0.223322  0.527016  0.546738  1
  Pb  Pb26  1  0.277380  0.025534  0.452991  1
  Pb  Pb27  1  0.774381  0.475742  0.047274  1
  Pb  Pb28  1  0.573591  0.628556  0.749505  1
  Pb  Pb29  1  0.073465  0.872292  0.751206  1
  Pb  Pb30  1  0.425265  0.370676  0.250075  1
  Pb  Pb31  1  0.926539  0.127346  0.250464  1
  Pb  Pb32  1  0.351562  0.150475  0.751159  1
  Pb  Pb33  1  0.851195  0.349805  0.749175  1
  Pb  Pb34  1  0.650453  0.849320  0.250688  1
  Pb  Pb35  1  0.148152  0.649953  0.249497  1
