# generated using pymatgen
data_Ho3Er4Lu(OsBr4)2
_symmetry_space_group_name_H-M   'P 1'
_cell_length_a   8.89156432
_cell_length_b   8.92339218
_cell_length_c   6.51004708
_cell_angle_alpha   89.43938692
_cell_angle_beta   89.61308329
_cell_angle_gamma   89.32509374
_symmetry_Int_Tables_number   1
_chemical_formula_structural   Ho3Er4Lu(OsBr4)2
_chemical_formula_sum   'Ho3 Er4 Lu1 Os2 Br8'
_cell_volume   516.45417731
_cell_formula_units_Z   1
loop_
 _symmetry_equiv_pos_site_id
 _symmetry_equiv_pos_as_xyz
  1  'x, y, z'
loop_
 _atom_site_type_symbol
 _atom_site_label
 _atom_site_symmetry_multiplicity
 _atom_site_fract_x
 _atom_site_fract_y
 _atom_site_fract_z
 _atom_site_occupancy
  Ho  Ho0  1  0.750628  0.098581  0.989664  1
  Ho  Ho1  1  0.099749  0.750628  0.490555  1
  Ho  Ho2  1  0.901921  0.248869  0.510049  1
  Er  Er3  1  0.752745  0.902827  0.508641  1
  Er  Er4  1  0.248238  0.096068  0.492253  1
  Er  Er5  1  0.097711  0.246787  0.992311  1
  Er  Er6  1  0.902990  0.752645  0.008935  1
  Lu  Lu7  1  0.244022  0.902993  0.011816  1
  Os  Os8  1  0.995394  0.004418  0.250176  1
  Os  Os9  1  0.005385  0.994942  0.750927  1
  Br  Br10  1  0.420061  0.817300  0.405155  1
  Br  Br11  1  0.580806  0.183418  0.590298  1
  Br  Br12  1  0.184293  0.582020  0.090418  1
  Br  Br13  1  0.817049  0.419193  0.909560  1
  Br  Br14  1  0.414172  0.188685  0.093774  1
  Br  Br15  1  0.583668  0.811283  0.905043  1
  Br  Br16  1  0.809894  0.585901  0.406595  1
  Br  Br17  1  0.191274  0.413440  0.593831  1
