# generated using pymatgen
data_Cr7S8
_symmetry_space_group_name_H-M   'P 1'
_cell_length_a   6.13154470
_cell_length_b   6.14449429
_cell_length_c   12.34487470
_cell_angle_alpha   93.32215504
_cell_angle_beta   93.12690517
_cell_angle_gamma   95.48095373
_symmetry_Int_Tables_number   1
_chemical_formula_structural   Cr7S8
_chemical_formula_sum   'Cr14 S16'
_cell_volume   461.34615453
_cell_formula_units_Z   2
loop_
 _symmetry_equiv_pos_site_id
 _symmetry_equiv_pos_as_xyz
  1  'x, y, z'
loop_
 _atom_site_type_symbol
 _atom_site_label
 _atom_site_symmetry_multiplicity
 _atom_site_fract_x
 _atom_site_fract_y
 _atom_site_fract_z
 _atom_site_occupancy
  Cr  Cr0  1  0.174683  0.903277  0.004518  1
  Cr  Cr1  1  0.210386  0.422275  0.274823  1
  Cr  Cr2  1  0.227614  0.380333  0.772871  1
  Cr  Cr3  1  0.403470  0.561037  0.108818  1
  Cr  Cr4  1  0.409935  0.537492  0.609917  1
  Cr  Cr5  1  0.440651  0.796267  0.295045  1
  Cr  Cr6  1  0.471996  0.763397  0.797620  1
  Cr  Cr7  1  0.535845  0.238134  0.204237  1
  Cr  Cr8  1  0.548795  0.211950  0.701857  1
  Cr  Cr9  1  0.584970  0.471080  0.388527  1
  Cr  Cr10  1  0.603887  0.440884  0.889622  1
  Cr  Cr11  1  0.770811  0.613218  0.223359  1
  Cr  Cr12  1  0.784361  0.580699  0.726207  1
  Cr  Cr13  1  0.005153  0.825385  0.544257  1
  S  S14  1  0.126654  0.743820  0.184893  1
  S  S15  1  0.148024  0.708381  0.702155  1
  S  S16  1  0.195922  0.235228  0.110237  1
  S  S17  1  0.212169  0.189513  0.607066  1
  S  S18  1  0.261167  0.634658  0.435527  1
  S  S19  1  0.281112  0.584681  0.930087  1
  S  S20  1  0.366317  0.149817  0.360006  1
  S  S21  1  0.383830  0.112722  0.867464  1
  S  S22  1  0.612814  0.888861  0.138375  1
  S  S23  1  0.632318  0.861060  0.635855  1
  S  S24  1  0.715399  0.396601  0.067886  1
  S  S25  1  0.718698  0.381453  0.562863  1
  S  S26  1  0.780216  0.813444  0.384466  1
  S  S27  1  0.809545  0.773767  0.893048  1
  S  S28  1  0.852727  0.304597  0.309264  1
  S  S29  1  0.865930  0.264268  0.807279  1
