# generated using pymatgen
data_Y4Ga18Ir5Pd
_symmetry_space_group_name_H-M   'P 1'
_cell_length_a   7.61049555
_cell_length_b   7.61049521
_cell_length_c   9.50631397
_cell_angle_alpha   90.05853927
_cell_angle_beta   90.05854005
_cell_angle_gamma   119.89221019
_symmetry_Int_Tables_number   1
_chemical_formula_structural   Y4Ga18Ir5Pd
_chemical_formula_sum   'Y4 Ga18 Ir5 Pd1'
_cell_volume   477.35164672
_cell_formula_units_Z   1
loop_
 _symmetry_equiv_pos_site_id
 _symmetry_equiv_pos_as_xyz
  1  'x, y, z'
loop_
 _atom_site_type_symbol
 _atom_site_label
 _atom_site_symmetry_multiplicity
 _atom_site_fract_x
 _atom_site_fract_y
 _atom_site_fract_z
 _atom_site_occupancy
  Y  Y0  1  0.996827  0.668292  0.250976  1
  Y  Y1  1  0.003173  0.331708  0.749024  1
  Y  Y2  1  0.668292  0.996827  0.250976  1
  Y  Y3  1  0.331708  0.003173  0.749024  1
  Ga  Ga4  1  0.127388  0.127388  0.251181  1
  Ga  Ga5  1  0.872612  0.872612  0.748819  1
  Ga  Ga6  1  0.999397  0.336502  0.081771  1
  Ga  Ga7  1  0.000603  0.663498  0.918229  1
  Ga  Ga8  1  0.001183  0.666163  0.579550  1
  Ga  Ga9  1  0.333837  0.998817  0.420450  1
  Ga  Ga10  1  0.998817  0.333837  0.420450  1
  Ga  Ga11  1  0.666163  0.001183  0.579550  1
  Ga  Ga12  1  0.663498  0.000603  0.918229  1
  Ga  Ga13  1  0.336502  0.999397  0.081771  1
  Ga  Ga14  1  0.332328  0.332328  0.563877  1
  Ga  Ga15  1  0.667672  0.667672  0.436123  1
  Ga  Ga16  1  0.664580  0.664580  0.065946  1
  Ga  Ga17  1  0.335420  0.335420  0.934054  1
  Ga  Ga18  1  0.338734  0.546508  0.250277  1
  Ga  Ga19  1  0.661266  0.453492  0.749723  1
  Ga  Ga20  1  0.546508  0.338734  0.250277  1
  Ga  Ga21  1  0.453492  0.661266  0.749723  1
  Ir  Ir22  1  0.671659  0.328341  0.000000  1
  Ir  Ir23  1  0.328341  0.671659  0.000000  1
  Ir  Ir24  1  0.328519  0.671481  0.500000  1
  Ir  Ir25  1  0.671481  0.328519  0.500000  1
  Ir  Ir26  1  0.000000  0.000000  0.500000  1
  Pd  Pd27  1  0.000000  0.000000  0.000000  1
