# generated using pymatgen
data_Sm4Y4Tc3B24Ru
_symmetry_space_group_name_H-M   'P 1'
_cell_length_a   3.71626400
_cell_length_b   9.21261803
_cell_length_c   11.63617101
_cell_angle_alpha   89.92203534
_cell_angle_beta   90.00000000
_cell_angle_gamma   90.00000000
_symmetry_Int_Tables_number   1
_chemical_formula_structural   Sm4Y4Tc3B24Ru
_chemical_formula_sum   'Sm4 Y4 Tc3 B24 Ru1'
_cell_volume   398.38164104
_cell_formula_units_Z   1
loop_
 _symmetry_equiv_pos_site_id
 _symmetry_equiv_pos_as_xyz
  1  'x, y, z'
loop_
 _atom_site_type_symbol
 _atom_site_label
 _atom_site_symmetry_multiplicity
 _atom_site_fract_x
 _atom_site_fract_y
 _atom_site_fract_z
 _atom_site_occupancy
  Sm  Sm0  1  0.000000  0.323567  0.414034  1
  Sm  Sm1  1  0.000000  0.675323  0.584297  1
  Sm  Sm2  1  0.000000  0.823216  0.087050  1
  Sm  Sm3  1  0.000000  0.177632  0.914597  1
  Y  Y4  1  0.000000  0.942393  0.369882  1
  Y  Y5  1  0.000000  0.058021  0.630980  1
  Y  Y6  1  0.000000  0.442968  0.130438  1
  Y  Y7  1  0.000000  0.557747  0.868827  1
  Tc  Tc8  1  0.000000  0.638709  0.319795  1
  Tc  Tc9  1  0.000000  0.361330  0.680609  1
  Tc  Tc10  1  0.000000  0.138279  0.179217  1
  B  B11  1  0.500000  0.553937  0.431389  1
  B  B12  1  0.500000  0.445774  0.568190  1
  B  B13  1  0.500000  0.053988  0.068311  1
  B  B14  1  0.500000  0.945315  0.931436  1
  B  B15  1  0.500000  0.748435  0.417140  1
  B  B16  1  0.500000  0.250886  0.582969  1
  B  B17  1  0.500000  0.249162  0.082774  1
  B  B18  1  0.500000  0.751518  0.916872  1
  B  B19  1  0.500000  0.790975  0.265949  1
  B  B20  1  0.500000  0.209412  0.734614  1
  B  B21  1  0.500000  0.290971  0.234180  1
  B  B22  1  0.500000  0.710026  0.765676  1
  B  B23  1  0.500000  0.630498  0.186079  1
  B  B24  1  0.500000  0.369693  0.814364  1
  B  B25  1  0.500000  0.129939  0.313598  1
  B  B26  1  0.500000  0.869489  0.686284  1
  B  B27  1  0.500000  0.982911  0.212400  1
  B  B28  1  0.500000  0.015558  0.787910  1
  B  B29  1  0.500000  0.483433  0.287348  1
  B  B30  1  0.500000  0.516355  0.712160  1
  B  B31  1  0.500000  0.599972  0.027409  1
  B  B32  1  0.500000  0.401589  0.972237  1
  B  B33  1  0.500000  0.099267  0.472786  1
  B  B34  1  0.500000  0.900502  0.528077  1
  Ru  Ru35  1  0.000000  0.861208  0.820122  1
