# generated using pymatgen
data_YbPrGa12Pd
_symmetry_space_group_name_H-M   'P 1'
_cell_length_a   6.14568300
_cell_length_b   6.14568300
_cell_length_c   15.52346500
_cell_angle_alpha   90.00000000
_cell_angle_beta   90.00000000
_cell_angle_gamma   90.00000000
_symmetry_Int_Tables_number   1
_chemical_formula_structural   YbPrGa12Pd
_chemical_formula_sum   'Yb2 Pr2 Ga24 Pd2'
_cell_volume   586.31226225
_cell_formula_units_Z   2
loop_
 _symmetry_equiv_pos_site_id
 _symmetry_equiv_pos_as_xyz
  1  'x, y, z'
loop_
 _atom_site_type_symbol
 _atom_site_label
 _atom_site_symmetry_multiplicity
 _atom_site_fract_x
 _atom_site_fract_y
 _atom_site_fract_z
 _atom_site_occupancy
  Yb  Yb0  1  0.750000  0.250000  0.244203  1
  Yb  Yb1  1  0.250000  0.750000  0.244203  1
  Pr  Pr2  1  0.250000  0.750000  0.755610  1
  Pr  Pr3  1  0.750000  0.250000  0.755610  1
  Ga  Ga4  1  0.250000  0.250000  0.187878  1
  Ga  Ga5  1  0.750000  0.750000  0.187878  1
  Ga  Ga6  1  0.750000  0.750000  0.812616  1
  Ga  Ga7  1  0.250000  0.250000  0.812616  1
  Ga  Ga8  1  0.250000  0.250000  0.345782  1
  Ga  Ga9  1  0.750000  0.750000  0.345782  1
  Ga  Ga10  1  0.750000  0.750000  0.652613  1
  Ga  Ga11  1  0.250000  0.250000  0.652613  1
  Ga  Ga12  1  0.499927  0.999927  0.911804  1
  Ga  Ga13  1  0.999927  0.000073  0.911804  1
  Ga  Ga14  1  0.500073  0.499927  0.911804  1
  Ga  Ga15  1  0.000073  0.500073  0.911804  1
  Ga  Ga16  1  0.500366  0.000366  0.091989  1
  Ga  Ga17  1  0.000366  0.999634  0.091989  1
  Ga  Ga18  1  0.499634  0.500366  0.091989  1
  Ga  Ga19  1  0.999634  0.499634  0.091989  1
  Ga  Ga20  1  0.581817  0.081817  0.429949  1
  Ga  Ga21  1  0.081817  0.918183  0.429949  1
  Ga  Ga22  1  0.418183  0.581817  0.429949  1
  Ga  Ga23  1  0.918183  0.418183  0.429949  1
  Ga  Ga24  1  0.416549  0.916549  0.567359  1
  Ga  Ga25  1  0.916549  0.083451  0.567359  1
  Ga  Ga26  1  0.583451  0.416549  0.567359  1
  Ga  Ga27  1  0.083451  0.583451  0.567359  1
  Pd  Pd28  1  0.750000  0.250000  0.999096  1
  Pd  Pd29  1  0.250000  0.750000  0.999096  1
