# generated using pymatgen
data_Zr2FeCo5P4
_symmetry_space_group_name_H-M   'P 1'
_cell_length_a   3.62040400
_cell_length_b   10.33094700
_cell_length_c   11.89800900
_cell_angle_alpha   90.00000000
_cell_angle_beta   90.00000000
_cell_angle_gamma   90.00000000
_symmetry_Int_Tables_number   1
_chemical_formula_structural   Zr2FeCo5P4
_chemical_formula_sum   'Zr6 Fe3 Co15 P12'
_cell_volume   445.01173414
_cell_formula_units_Z   3
loop_
 _symmetry_equiv_pos_site_id
 _symmetry_equiv_pos_as_xyz
  1  'x, y, z'
loop_
 _atom_site_type_symbol
 _atom_site_label
 _atom_site_symmetry_multiplicity
 _atom_site_fract_x
 _atom_site_fract_y
 _atom_site_fract_z
 _atom_site_occupancy
  Zr  Zr0  1  0.000000  0.500000  0.524813  1
  Zr  Zr1  1  0.500000  0.000000  0.474057  1
  Zr  Zr2  1  0.500000  0.820553  0.206897  1
  Zr  Zr3  1  0.500000  0.179447  0.206897  1
  Zr  Zr4  1  0.000000  0.677650  0.793753  1
  Zr  Zr5  1  0.000000  0.322350  0.793753  1
  Fe  Fe6  1  0.500000  0.500000  0.159263  1
  Fe  Fe7  1  0.000000  0.000000  0.839325  1
  Fe  Fe8  1  0.000000  0.500000  0.988629  1
  Co  Co9  1  0.500000  0.500000  0.703314  1
  Co  Co10  1  0.000000  0.000000  0.298054  1
  Co  Co11  1  0.500000  0.000000  0.012427  1
  Co  Co12  1  0.500000  0.330326  0.994256  1
  Co  Co13  1  0.500000  0.669674  0.994256  1
  Co  Co14  1  0.000000  0.166549  0.006061  1
  Co  Co15  1  0.000000  0.833451  0.006061  1
  Co  Co16  1  0.500000  0.299695  0.432328  1
  Co  Co17  1  0.500000  0.700305  0.432328  1
  Co  Co18  1  0.000000  0.200982  0.567580  1
  Co  Co19  1  0.000000  0.799018  0.567580  1
  Co  Co20  1  0.500000  0.876118  0.706974  1
  Co  Co21  1  0.500000  0.123882  0.706974  1
  Co  Co22  1  0.000000  0.623895  0.292246  1
  Co  Co23  1  0.000000  0.376105  0.292246  1
  P  P24  1  0.500000  0.500000  0.882226  1
  P  P25  1  0.000000  0.000000  0.120662  1
  P  P26  1  0.500000  0.500000  0.348281  1
  P  P27  1  0.000000  0.000000  0.650229  1
  P  P28  1  0.500000  0.315903  0.617474  1
  P  P29  1  0.500000  0.684097  0.617474  1
  P  P30  1  0.000000  0.184431  0.382737  1
  P  P31  1  0.000000  0.815569  0.382737  1
  P  P32  1  0.500000  0.845049  0.889150  1
  P  P33  1  0.500000  0.154951  0.889150  1
  P  P34  1  0.000000  0.655552  0.109903  1
  P  P35  1  0.000000  0.344448  0.109903  1
