# generated using pymatgen
data_Tb6YPa(ReB6)4
_symmetry_space_group_name_H-M   'P 1'
_cell_length_a   3.70821900
_cell_length_b   9.20370342
_cell_length_c   11.57723906
_cell_angle_alpha   89.81222920
_cell_angle_beta   90.00000000
_cell_angle_gamma   90.00000000
_symmetry_Int_Tables_number   1
_chemical_formula_structural   Tb6YPa(ReB6)4
_chemical_formula_sum   'Tb6 Y1 Pa1 Re4 B24'
_cell_volume   395.12149765
_cell_formula_units_Z   1
loop_
 _symmetry_equiv_pos_site_id
 _symmetry_equiv_pos_as_xyz
  1  'x, y, z'
loop_
 _atom_site_type_symbol
 _atom_site_label
 _atom_site_symmetry_multiplicity
 _atom_site_fract_x
 _atom_site_fract_y
 _atom_site_fract_z
 _atom_site_occupancy
  Tb  Tb0  1  0.000000  0.178779  0.913161  1
  Tb  Tb1  1  0.000000  0.323635  0.414409  1
  Tb  Tb2  1  0.000000  0.675814  0.586506  1
  Tb  Tb3  1  0.000000  0.442270  0.128232  1
  Tb  Tb4  1  0.000000  0.555666  0.870954  1
  Tb  Tb5  1  0.000000  0.943100  0.372362  1
  Y  Y6  1  0.000000  0.057414  0.629964  1
  Pa  Pa7  1  0.000000  0.823542  0.085945  1
  Re  Re8  1  0.000000  0.134731  0.177658  1
  Re  Re9  1  0.000000  0.862666  0.824468  1
  Re  Re10  1  0.000000  0.640849  0.317972  1
  Re  Re11  1  0.000000  0.362132  0.678661  1
  B  B12  1  0.500000  0.052062  0.068138  1
  B  B13  1  0.500000  0.945647  0.933226  1
  B  B14  1  0.500000  0.553900  0.431921  1
  B  B15  1  0.500000  0.447194  0.566616  1
  B  B16  1  0.500000  0.247284  0.081591  1
  B  B17  1  0.500000  0.751925  0.919266  1
  B  B18  1  0.500000  0.747793  0.418647  1
  B  B19  1  0.500000  0.251958  0.581264  1
  B  B20  1  0.500000  0.290384  0.233562  1
  B  B21  1  0.500000  0.709112  0.766049  1
  B  B22  1  0.500000  0.791237  0.265272  1
  B  B23  1  0.500000  0.208958  0.734087  1
  B  B24  1  0.500000  0.130992  0.314343  1
  B  B25  1  0.500000  0.869577  0.686746  1
  B  B26  1  0.500000  0.632468  0.185272  1
  B  B27  1  0.500000  0.368589  0.813366  1
  B  B28  1  0.500000  0.483290  0.287478  1
  B  B29  1  0.500000  0.517291  0.711771  1
  B  B30  1  0.500000  0.982666  0.212212  1
  B  B31  1  0.500000  0.017438  0.787708  1
  B  B32  1  0.500000  0.102604  0.472031  1
  B  B33  1  0.500000  0.897678  0.529731  1
  B  B34  1  0.500000  0.607284  0.029653  1
  B  B35  1  0.500000  0.392076  0.969761  1
