# generated using pymatgen
data_LaAl10RuRh
_symmetry_space_group_name_H-M   'P 1'
_cell_length_a   6.92093029
_cell_length_b   6.91937912
_cell_length_c   9.20276400
_cell_angle_alpha   90.00000000
_cell_angle_beta   90.00000000
_cell_angle_gamma   97.24118322
_symmetry_Int_Tables_number   1
_chemical_formula_structural   LaAl10RuRh
_chemical_formula_sum   'La2 Al20 Ru2 Rh2'
_cell_volume   437.19201635
_cell_formula_units_Z   2
loop_
 _symmetry_equiv_pos_site_id
 _symmetry_equiv_pos_as_xyz
  1  'x, y, z'
loop_
 _atom_site_type_symbol
 _atom_site_label
 _atom_site_symmetry_multiplicity
 _atom_site_fract_x
 _atom_site_fract_y
 _atom_site_fract_z
 _atom_site_occupancy
  La  La0  1  0.873605  0.120976  0.750000  1
  La  La1  1  0.126395  0.879024  0.250000  1
  Al  Al2  1  0.619708  0.376622  0.550684  1
  Al  Al3  1  0.380292  0.623378  0.449316  1
  Al  Al4  1  0.380292  0.623378  0.050684  1
  Al  Al5  1  0.619708  0.376622  0.949316  1
  Al  Al6  1  0.228965  0.226766  0.499148  1
  Al  Al7  1  0.771035  0.773234  0.500852  1
  Al  Al8  1  0.771035  0.773234  0.999148  1
  Al  Al9  1  0.228965  0.226766  0.000852  1
  Al  Al10  1  0.838245  0.159953  0.103106  1
  Al  Al11  1  0.161755  0.840047  0.896894  1
  Al  Al12  1  0.161755  0.840047  0.603106  1
  Al  Al13  1  0.838245  0.159953  0.396894  1
  Al  Al14  1  0.858112  0.589604  0.750000  1
  Al  Al15  1  0.141888  0.410396  0.250000  1
  Al  Al16  1  0.410464  0.140091  0.750000  1
  Al  Al17  1  0.589536  0.859909  0.250000  1
  Al  Al18  1  0.225485  0.481563  0.750000  1
  Al  Al19  1  0.774515  0.518437  0.250000  1
  Al  Al20  1  0.517435  0.777505  0.750000  1
  Al  Al21  1  0.482565  0.222495  0.250000  1
  Ru  Ru22  1  0.500000  0.000000  0.000000  1
  Ru  Ru23  1  0.500000  0.000000  0.500000  1
  Rh  Rh24  1  0.000000  0.500000  0.500000  1
  Rh  Rh25  1  0.000000  0.500000  0.000000  1
