# generated using pymatgen
data_Lu4Ga4PtAu3
_symmetry_space_group_name_H-M   'P 1'
_cell_length_a   4.43089300
_cell_length_b   6.95687477
_cell_length_c   7.73511654
_cell_angle_alpha   89.80500931
_cell_angle_beta   90.00000000
_cell_angle_gamma   90.00000000
_symmetry_Int_Tables_number   1
_chemical_formula_structural   Lu4Ga4PtAu3
_chemical_formula_sum   'Lu4 Ga4 Pt1 Au3'
_cell_volume   238.43488387
_cell_formula_units_Z   1
loop_
 _symmetry_equiv_pos_site_id
 _symmetry_equiv_pos_as_xyz
  1  'x, y, z'
loop_
 _atom_site_type_symbol
 _atom_site_label
 _atom_site_symmetry_multiplicity
 _atom_site_fract_x
 _atom_site_fract_y
 _atom_site_fract_z
 _atom_site_occupancy
  Lu  Lu0  1  0.250000  0.002712  0.296117  1
  Lu  Lu1  1  0.250000  0.491076  0.212876  1
  Lu  Lu2  1  0.750000  0.010366  0.700462  1
  Lu  Lu3  1  0.750000  0.502606  0.788400  1
  Ga  Ga4  1  0.250000  0.311093  0.579295  1
  Ga  Ga5  1  0.250000  0.810288  0.917101  1
  Ga  Ga6  1  0.750000  0.679883  0.416474  1
  Ga  Ga7  1  0.750000  0.194418  0.088065  1
  Pt  Pt8  1  0.750000  0.278730  0.412240  1
  Au  Au9  1  0.250000  0.217746  0.910547  1
  Au  Au10  1  0.250000  0.720505  0.588884  1
  Au  Au11  1  0.750000  0.780578  0.089538  1
