# generated using pymatgen
data_Pr16Cd4PtRh3
_symmetry_space_group_name_H-M   'P 1'
_cell_length_a   10.03998772
_cell_length_b   10.03390518
_cell_length_c   10.03390500
_cell_angle_alpha   59.99999731
_cell_angle_beta   60.02003603
_cell_angle_gamma   60.02003709
_symmetry_Int_Tables_number   1
_chemical_formula_structural   Pr16Cd4PtRh3
_chemical_formula_sum   'Pr16 Cd4 Pt1 Rh3'
_cell_volume   714.97295374
_cell_formula_units_Z   1
loop_
 _symmetry_equiv_pos_site_id
 _symmetry_equiv_pos_as_xyz
  1  'x, y, z'
loop_
 _atom_site_type_symbol
 _atom_site_label
 _atom_site_symmetry_multiplicity
 _atom_site_fract_x
 _atom_site_fract_y
 _atom_site_fract_z
 _atom_site_occupancy
  Pr  Pr0  1  0.345484  0.350795  0.350795  1
  Pr  Pr1  1  0.345484  0.350795  0.952926  1
  Pr  Pr2  1  0.345484  0.952926  0.350795  1
  Pr  Pr3  1  0.957214  0.347595  0.347595  1
  Pr  Pr4  1  0.813978  0.190045  0.190045  1
  Pr  Pr5  1  0.190780  0.810532  0.810532  1
  Pr  Pr6  1  0.190780  0.810532  0.188157  1
  Pr  Pr7  1  0.813978  0.190045  0.805932  1
  Pr  Pr8  1  0.190780  0.188157  0.810532  1
  Pr  Pr9  1  0.813978  0.805932  0.190045  1
  Pr  Pr10  1  0.935600  0.563294  0.563294  1
  Pr  Pr11  1  0.561432  0.937576  0.937576  1
  Pr  Pr12  1  0.561432  0.937576  0.563416  1
  Pr  Pr13  1  0.935600  0.563294  0.937812  1
  Pr  Pr14  1  0.561432  0.563416  0.937576  1
  Pr  Pr15  1  0.935600  0.937812  0.563294  1
  Cd  Cd16  1  0.579732  0.579005  0.579005  1
  Cd  Cd17  1  0.579732  0.579005  0.262258  1
  Cd  Cd18  1  0.579732  0.262258  0.579005  1
  Cd  Cd19  1  0.262007  0.579331  0.579331  1
  Pt  Pt20  1  0.572063  0.142646  0.142646  1
  Rh  Rh21  1  0.142566  0.142058  0.142058  1
  Rh  Rh22  1  0.142566  0.142058  0.573318  1
  Rh  Rh23  1  0.142566  0.573318  0.142058  1
