# generated using pymatgen
data_TbCe(Dy2Ru)4
_symmetry_space_group_name_H-M   'P 1'
_cell_length_a   8.59979940
_cell_length_b   8.57985634
_cell_length_c   7.21879656
_cell_angle_alpha   82.98070331
_cell_angle_beta   84.05679466
_cell_angle_gamma   43.52542998
_symmetry_Int_Tables_number   1
_chemical_formula_structural   TbCe(Dy2Ru)4
_chemical_formula_sum   'Tb1 Ce1 Dy8 Ru4'
_cell_volume   363.97988284
_cell_formula_units_Z   1
loop_
 _symmetry_equiv_pos_site_id
 _symmetry_equiv_pos_as_xyz
  1  'x, y, z'
loop_
 _atom_site_type_symbol
 _atom_site_label
 _atom_site_symmetry_multiplicity
 _atom_site_fract_x
 _atom_site_fract_y
 _atom_site_fract_z
 _atom_site_occupancy
  Tb  Tb0  1  0.018259  0.791720  0.916911  1
  Ce  Ce1  1  0.198016  0.991971  0.598842  1
  Dy  Dy2  1  0.212526  0.355950  0.312405  1
  Dy  Dy3  1  0.643086  0.791988  0.186467  1
  Dy  Dy4  1  0.797290  0.639953  0.683581  1
  Dy  Dy5  1  0.359839  0.208710  0.814085  1
  Dy  Dy6  1  0.974865  0.209284  0.084927  1
  Dy  Dy7  1  0.793033  0.021804  0.415685  1
  Dy  Dy8  1  0.573081  0.424482  0.751317  1
  Dy  Dy9  1  0.421717  0.579652  0.252067  1
  Ru  Ru10  1  0.174450  0.602826  0.573390  1
  Ru  Ru11  1  0.382135  0.837279  0.901464  1
  Ru  Ru12  1  0.851254  0.367718  0.433725  1
  Ru  Ru13  1  0.600450  0.176665  0.075134  1
