# generated using pymatgen
data_TbSc7Ti5Si16Mo7
_symmetry_space_group_name_H-M   'P 1'
_cell_length_a   6.79755226
_cell_length_b   6.79652761
_cell_length_c   12.54914237
_cell_angle_alpha   89.75663902
_cell_angle_beta   90.03883024
_cell_angle_gamma   89.95562641
_symmetry_Int_Tables_number   1
_chemical_formula_structural   TbSc7Ti5Si16Mo7
_chemical_formula_sum   'Tb1 Sc7 Ti5 Si16 Mo7'
_cell_volume   579.76172200
_cell_formula_units_Z   1
loop_
 _symmetry_equiv_pos_site_id
 _symmetry_equiv_pos_as_xyz
  1  'x, y, z'
loop_
 _atom_site_type_symbol
 _atom_site_label
 _atom_site_symmetry_multiplicity
 _atom_site_fract_x
 _atom_site_fract_y
 _atom_site_fract_z
 _atom_site_occupancy
  Tb  Tb0  1  0.994040  0.662517  0.030681  1
  Sc  Sc1  1  0.341477  0.000758  0.468219  1
  Sc  Sc2  1  0.499850  0.841774  0.718349  1
  Sc  Sc3  1  0.498470  0.159683  0.220671  1
  Sc  Sc4  1  0.840638  0.499116  0.281165  1
  Sc  Sc5  1  0.159140  0.499399  0.781828  1
  Sc  Sc6  1  0.656293  0.001193  0.967685  1
  Sc  Sc7  1  0.000295  0.340791  0.531268  1
  Ti  Ti8  1  0.330228  0.330278  0.999226  1
  Ti  Ti9  1  0.168767  0.830571  0.251233  1
  Ti  Ti10  1  0.828256  0.170295  0.748978  1
  Ti  Ti11  1  0.669972  0.667102  0.499300  1
  Ti  Ti12  1  0.996249  0.844864  0.625868  1
  Si  Si13  1  0.204380  0.135835  0.678327  1
  Si  Si14  1  0.370954  0.704544  0.928396  1
  Si  Si15  1  0.636817  0.296924  0.429861  1
  Si  Si16  1  0.698719  0.360106  0.070549  1
  Si  Si17  1  0.298430  0.635161  0.569988  1
  Si  Si18  1  0.792203  0.871023  0.183206  1
  Si  Si19  1  0.133312  0.202690  0.321768  1
  Si  Si20  1  0.864166  0.798829  0.817196  1
  Si  Si21  1  0.298869  0.961079  0.063527  1
  Si  Si22  1  0.538789  0.796257  0.314209  1
  Si  Si23  1  0.457837  0.203990  0.812025  1
  Si  Si24  1  0.797902  0.542601  0.686566  1
  Si  Si25  1  0.206978  0.456603  0.189076  1
  Si  Si26  1  0.704729  0.042395  0.563626  1
  Si  Si27  1  0.957550  0.289564  0.935396  1
  Si  Si28  1  0.043411  0.703679  0.437742  1
  Mo  Mo29  1  0.159316  0.006011  0.872434  1
  Mo  Mo30  1  0.495059  0.655995  0.124216  1
  Mo  Mo31  1  0.507138  0.344710  0.623152  1
  Mo  Mo32  1  0.654215  0.490414  0.876325  1
  Mo  Mo33  1  0.346498  0.503209  0.376194  1
  Mo  Mo34  1  0.842751  0.993304  0.374159  1
  Mo  Mo35  1  0.006299  0.156738  0.127591  1
