# generated using pymatgen
data_Hf18TaRe7SiAs
_symmetry_space_group_name_H-M   'P 1'
_cell_length_a   8.62085148
_cell_length_b   8.62085216
_cell_length_c   8.70285300
_cell_angle_alpha   90.00000000
_cell_angle_beta   90.00000000
_cell_angle_gamma   120.26972495
_symmetry_Int_Tables_number   1
_chemical_formula_structural   Hf18TaRe7SiAs
_chemical_formula_sum   'Hf18 Ta1 Re7 Si1 As1'
_cell_volume   558.60630205
_cell_formula_units_Z   1
loop_
 _symmetry_equiv_pos_site_id
 _symmetry_equiv_pos_as_xyz
  1  'x, y, z'
loop_
 _atom_site_type_symbol
 _atom_site_label
 _atom_site_symmetry_multiplicity
 _atom_site_fract_x
 _atom_site_fract_y
 _atom_site_fract_z
 _atom_site_occupancy
  Hf  Hf0  1  0.194125  0.805875  0.454774  1
  Hf  Hf1  1  0.194764  0.388563  0.456162  1
  Hf  Hf2  1  0.611437  0.805236  0.456162  1
  Hf  Hf3  1  0.804566  0.195434  0.550911  1
  Hf  Hf4  1  0.805009  0.610635  0.548626  1
  Hf  Hf5  1  0.389365  0.194991  0.548626  1
  Hf  Hf6  1  0.804566  0.195434  0.949089  1
  Hf  Hf7  1  0.805009  0.610635  0.951374  1
  Hf  Hf8  1  0.389365  0.194991  0.951374  1
  Hf  Hf9  1  0.194125  0.805875  0.045226  1
  Hf  Hf10  1  0.194764  0.388563  0.043838  1
  Hf  Hf11  1  0.611437  0.805236  0.043838  1
  Hf  Hf12  1  0.540555  0.459445  0.250000  1
  Hf  Hf13  1  0.537270  0.080030  0.250000  1
  Hf  Hf14  1  0.919970  0.462730  0.250000  1
  Hf  Hf15  1  0.460601  0.539399  0.750000  1
  Hf  Hf16  1  0.459955  0.921095  0.750000  1
  Hf  Hf17  1  0.078905  0.540045  0.750000  1
  Ta  Ta18  1  0.892400  0.107600  0.250000  1
  Re  Re19  1  0.889787  0.779182  0.250000  1
  Re  Re20  1  0.220818  0.110213  0.250000  1
  Re  Re21  1  0.109172  0.890828  0.750000  1
  Re  Re22  1  0.110054  0.218956  0.750000  1
  Re  Re23  1  0.781044  0.889946  0.750000  1
  Re  Re24  1  0.000989  0.999011  0.501810  1
  Re  Re25  1  0.000989  0.999011  0.998190  1
  Si  Si26  1  0.666277  0.333723  0.750000  1
  As  As27  1  0.332681  0.667319  0.250000  1
