# generated using pymatgen
data_Ba3NbP3O
_symmetry_space_group_name_H-M   'P 1'
_cell_length_a   6.68725600
_cell_length_b   11.01576500
_cell_length_c   13.42783200
_cell_angle_alpha   90.00000000
_cell_angle_beta   90.00000000
_cell_angle_gamma   90.00000000
_symmetry_Int_Tables_number   1
_chemical_formula_structural   Ba3NbP3O
_chemical_formula_sum   'Ba12 Nb4 P12 O4'
_cell_volume   989.16447489
_cell_formula_units_Z   4
loop_
 _symmetry_equiv_pos_site_id
 _symmetry_equiv_pos_as_xyz
  1  'x, y, z'
loop_
 _atom_site_type_symbol
 _atom_site_label
 _atom_site_symmetry_multiplicity
 _atom_site_fract_x
 _atom_site_fract_y
 _atom_site_fract_z
 _atom_site_occupancy
  Ba  Ba0  1  0.245664  0.043592  0.132066  1
  Ba  Ba1  1  0.254336  0.543592  0.632066  1
  Ba  Ba2  1  0.245664  0.456408  0.132066  1
  Ba  Ba3  1  0.745664  0.043592  0.367934  1
  Ba  Ba4  1  0.754336  0.956408  0.867934  1
  Ba  Ba5  1  0.745664  0.456408  0.367934  1
  Ba  Ba6  1  0.754336  0.543592  0.867934  1
  Ba  Ba7  1  0.254336  0.956408  0.632066  1
  Ba  Ba8  1  0.274628  0.250000  0.870344  1
  Ba  Ba9  1  0.774628  0.250000  0.629656  1
  Ba  Ba10  1  0.725372  0.750000  0.129656  1
  Ba  Ba11  1  0.225372  0.750000  0.370343  1
  Nb  Nb12  1  0.666032  0.750000  0.545447  1
  Nb  Nb13  1  0.333968  0.250000  0.454553  1
  Nb  Nb14  1  0.166032  0.750000  0.954553  1
  Nb  Nb15  1  0.833968  0.250000  0.045447  1
  P  P16  1  0.273361  0.250000  0.630652  1
  P  P17  1  0.773361  0.250000  0.869348  1
  P  P18  1  0.726639  0.750000  0.369348  1
  P  P19  1  0.226639  0.750000  0.130652  1
  P  P20  1  0.736743  0.441429  0.116120  1
  P  P21  1  0.236743  0.441429  0.383880  1
  P  P22  1  0.263257  0.941429  0.883880  1
  P  P23  1  0.763257  0.558571  0.616120  1
  P  P24  1  0.263257  0.558571  0.883880  1
  P  P25  1  0.763257  0.941429  0.616120  1
  P  P26  1  0.736743  0.058571  0.116120  1
  P  P27  1  0.236743  0.058571  0.383880  1
  O  O28  1  0.119317  0.250000  0.053323  1
  O  O29  1  0.619317  0.250000  0.446677  1
  O  O30  1  0.880683  0.750000  0.946677  1
  O  O31  1  0.380683  0.750000  0.553323  1
