# generated using pymatgen
data_Ce3PaBeRh12
_symmetry_space_group_name_H-M   'P 1'
_cell_length_a   7.17156131
_cell_length_b   7.11951145
_cell_length_c   7.11951181
_cell_angle_alpha   109.32265263
_cell_angle_beta   109.61938352
_cell_angle_gamma   109.61937836
_symmetry_Int_Tables_number   1
_chemical_formula_structural   Ce3PaBeRh12
_chemical_formula_sum   'Ce3 Pa1 Be1 Rh12'
_cell_volume   279.31539206
_cell_formula_units_Z   1
loop_
 _symmetry_equiv_pos_site_id
 _symmetry_equiv_pos_as_xyz
  1  'x, y, z'
loop_
 _atom_site_type_symbol
 _atom_site_label
 _atom_site_symmetry_multiplicity
 _atom_site_fract_x
 _atom_site_fract_y
 _atom_site_fract_z
 _atom_site_occupancy
  Ce  Ce0  1  0.000000  0.000000  0.500000  1
  Ce  Ce1  1  0.000000  0.500000  0.000000  1
  Ce  Ce2  1  0.500000  0.500000  0.500000  1
  Pa  Pa3  1  0.500000  0.000000  0.000000  1
  Be  Be4  1  0.000000  0.000000  0.000000  1
  Rh  Rh5  1  0.747512  0.247512  0.495023  1
  Rh  Rh6  1  0.747512  0.495023  0.247512  1
  Rh  Rh7  1  0.500000  0.247512  0.752488  1
  Rh  Rh8  1  0.252488  0.504977  0.752488  1
  Rh  Rh9  1  0.252488  0.752488  0.504977  1
  Rh  Rh10  1  0.500000  0.752488  0.247512  1
  Rh  Rh11  1  0.730802  0.736571  0.000000  1
  Rh  Rh12  1  0.269198  0.000000  0.263429  1
  Rh  Rh13  1  0.994232  0.263429  0.263429  1
  Rh  Rh14  1  0.269198  0.263429  0.000000  1
  Rh  Rh15  1  0.730802  0.000000  0.736571  1
  Rh  Rh16  1  0.005768  0.736571  0.736571  1
