# generated using pymatgen
data_U2AlCuRu2
_symmetry_space_group_name_H-M   'P 1'
_cell_length_a   5.70925300
_cell_length_b   5.29762808
_cell_length_c   7.84966800
_cell_angle_alpha   90.00000000
_cell_angle_beta   90.00000000
_cell_angle_gamma   122.60538902
_symmetry_Int_Tables_number   1
_chemical_formula_structural   U2AlCuRu2
_chemical_formula_sum   'U4 Al2 Cu2 Ru4'
_cell_volume   200.00059477
_cell_formula_units_Z   2
loop_
 _symmetry_equiv_pos_site_id
 _symmetry_equiv_pos_as_xyz
  1  'x, y, z'
loop_
 _atom_site_type_symbol
 _atom_site_label
 _atom_site_symmetry_multiplicity
 _atom_site_fract_x
 _atom_site_fract_y
 _atom_site_fract_z
 _atom_site_occupancy
  U  U0  1  0.349165  0.698331  0.417181  1
  U  U1  1  0.650835  0.301669  0.917181  1
  U  U2  1  0.650835  0.301669  0.582819  1
  U  U3  1  0.349165  0.698331  0.082819  1
  Al  Al4  1  0.000000  0.000000  0.500000  1
  Al  Al5  1  0.000000  0.000000  0.000000  1
  Cu  Cu6  1  0.163055  0.326111  0.750000  1
  Cu  Cu7  1  0.836945  0.673889  0.250000  1
  Ru  Ru8  1  0.153533  0.805905  0.750000  1
  Ru  Ru9  1  0.347627  0.194095  0.250000  1
  Ru  Ru10  1  0.846467  0.194095  0.250000  1
  Ru  Ru11  1  0.652373  0.805905  0.750000  1
