# generated using pymatgen
data_Hf3Co4Ni16BP5
_symmetry_space_group_name_H-M   'P 1'
_cell_length_a   7.83783889
_cell_length_b   7.78589712
_cell_length_c   7.78589648
_cell_angle_alpha   60.33372472
_cell_angle_beta   59.77905998
_cell_angle_gamma   59.77906790
_symmetry_Int_Tables_number   1
_chemical_formula_structural   Hf3Co4Ni16BP5
_chemical_formula_sum   'Hf3 Co4 Ni16 B1 P5'
_cell_volume   335.67281432
_cell_formula_units_Z   1
loop_
 _symmetry_equiv_pos_site_id
 _symmetry_equiv_pos_as_xyz
  1  'x, y, z'
loop_
 _atom_site_type_symbol
 _atom_site_label
 _atom_site_symmetry_multiplicity
 _atom_site_fract_x
 _atom_site_fract_y
 _atom_site_fract_z
 _atom_site_occupancy
  Hf  Hf0  1  0.001948  0.998052  0.998052  1
  Hf  Hf1  1  0.750391  0.749609  0.749609  1
  Hf  Hf2  1  0.252193  0.247807  0.247807  1
  Co  Co3  1  0.616297  0.618302  0.149105  1
  Co  Co4  1  0.616297  0.149105  0.618302  1
  Co  Co5  1  0.150196  0.619683  0.619683  1
  Co  Co6  1  0.610440  0.619683  0.619683  1
  Ni  Ni7  1  0.379115  0.396328  0.845439  1
  Ni  Ni8  1  0.379115  0.845439  0.396328  1
  Ni  Ni9  1  0.851395  0.383095  0.383095  1
  Ni  Ni10  1  0.382412  0.383095  0.383095  1
  Ni  Ni11  1  0.001846  0.002075  0.349585  1
  Ni  Ni12  1  0.646493  0.002075  0.349585  1
  Ni  Ni13  1  0.001670  0.649750  0.346910  1
  Ni  Ni14  1  0.646493  0.349585  0.002075  1
  Ni  Ni15  1  0.001846  0.349585  0.002075  1
  Ni  Ni16  1  0.001670  0.346910  0.649750  1
  Ni  Ni17  1  0.342385  0.656241  0.989981  1
  Ni  Ni18  1  0.342385  0.989981  0.656241  1
  Ni  Ni19  1  0.347434  0.001694  0.001694  1
  Ni  Ni20  1  0.011393  0.989981  0.656241  1
  Ni  Ni21  1  0.011393  0.656241  0.989981  1
  Ni  Ni22  1  0.649177  0.001694  0.001694  1
  B  B23  1  0.270250  0.729750  0.729750  1
  P  P24  1  0.733068  0.731868  0.266782  1
  P  P25  1  0.268282  0.731868  0.266782  1
  P  P26  1  0.733059  0.266941  0.266941  1
  P  P27  1  0.268282  0.266782  0.731868  1
  P  P28  1  0.733068  0.266782  0.731868  1
