# generated using pymatgen
data_Tm2V2Ni10As7
_symmetry_space_group_name_H-M   'P 1'
_cell_length_a   9.48023361
_cell_length_b   9.40212651
_cell_length_c   3.77847700
_cell_angle_alpha   90.00000000
_cell_angle_beta   90.00000000
_cell_angle_gamma   120.00380791
_symmetry_Int_Tables_number   1
_chemical_formula_structural   Tm2V2Ni10As7
_chemical_formula_sum   'Tm2 V2 Ni10 As7'
_cell_volume   291.65933346
_cell_formula_units_Z   1
loop_
 _symmetry_equiv_pos_site_id
 _symmetry_equiv_pos_as_xyz
  1  'x, y, z'
loop_
 _atom_site_type_symbol
 _atom_site_label
 _atom_site_symmetry_multiplicity
 _atom_site_fract_x
 _atom_site_fract_y
 _atom_site_fract_z
 _atom_site_occupancy
  Tm  Tm0  1  0.339757  0.667356  0.000000  1
  Tm  Tm1  1  0.664376  0.333395  0.500001  1
  V  V2  1  0.213489  0.096952  0.500001  1
  V  V3  1  0.901710  0.117257  0.500001  1
  Ni  Ni4  1  0.434663  0.059297  0.000000  1
  Ni  Ni5  1  0.154145  0.282589  0.000000  1
  Ni  Ni6  1  0.941147  0.378063  0.000000  1
  Ni  Ni7  1  0.622684  0.561191  0.000000  1
  Ni  Ni8  1  0.126383  0.840740  0.000000  1
  Ni  Ni9  1  0.719285  0.874062  0.000000  1
  Ni  Ni10  1  0.380405  0.434340  0.500001  1
  Ni  Ni11  1  0.048117  0.619077  0.500001  1
  Ni  Ni12  1  0.884634  0.787801  0.500001  1
  Ni  Ni13  1  0.566314  0.945675  0.500001  1
  As  As14  1  0.999361  0.997081  0.000000  1
  As  As15  1  0.707955  0.118857  0.000000  1
  As  As16  1  0.406780  0.290824  0.000000  1
  As  As17  1  0.880079  0.592731  0.000000  1
  As  As18  1  0.116730  0.410854  0.500001  1
  As  As19  1  0.596208  0.707627  0.500001  1
  As  As20  1  0.295776  0.884231  0.500001  1
