# generated using pymatgen
data_AgHg5F18
_symmetry_space_group_name_H-M   'P 1'
_cell_length_a   5.43303437
_cell_length_b   5.40352246
_cell_length_c   16.00470344
_cell_angle_alpha   90.12009259
_cell_angle_beta   89.76112954
_cell_angle_gamma   120.18083968
_symmetry_Int_Tables_number   1
_chemical_formula_structural   AgHg5F18
_chemical_formula_sum   'Ag1 Hg5 F18'
_cell_volume   406.16230688
_cell_formula_units_Z   1
loop_
 _symmetry_equiv_pos_site_id
 _symmetry_equiv_pos_as_xyz
  1  'x, y, z'
loop_
 _atom_site_type_symbol
 _atom_site_label
 _atom_site_symmetry_multiplicity
 _atom_site_fract_x
 _atom_site_fract_y
 _atom_site_fract_z
 _atom_site_occupancy
  Ag  Ag0  1  0.334433  0.668867  0.250000  1
  Hg  Hg1  1  0.675386  0.350773  0.750000  1
  Hg  Hg2  1  0.305991  0.667168  0.921137  1
  Hg  Hg3  1  0.361177  0.667168  0.578863  1
  Hg  Hg4  1  0.643303  0.325762  0.089357  1
  Hg  Hg5  1  0.682459  0.325762  0.410643  1
  F  F6  1  0.032930  0.662119  0.180160  1
  F  F7  1  0.380388  0.323876  0.492776  1
  F  F8  1  0.621524  0.033972  0.832923  1
  F  F9  1  0.370693  0.002408  0.330852  1
  F  F10  1  0.013107  0.614491  0.490397  1
  F  F11  1  0.062080  0.383779  0.660136  1
  F  F12  1  0.291114  0.956788  0.000310  1
  F  F13  1  0.355035  0.363182  0.170989  1
  F  F14  1  0.965958  0.656633  0.831422  1
  F  F15  1  0.008147  0.363182  0.329011  1
  F  F16  1  0.690675  0.656633  0.668578  1
  F  F17  1  0.665674  0.956788  0.499690  1
  F  F18  1  0.943487  0.323876  0.007224  1
  F  F19  1  0.631717  0.002408  0.169148  1
  F  F20  1  0.321701  0.383779  0.839864  1
  F  F21  1  0.629188  0.662119  0.319840  1
  F  F22  1  0.412448  0.033972  0.667077  1
  F  F23  1  0.601386  0.614491  0.009603  1
