# generated using pymatgen
data_Sc8Ta2Nb9Si16Rh
_symmetry_space_group_name_H-M   'P 1'
_cell_length_a   6.66509700
_cell_length_b   6.92740672
_cell_length_c   13.09869200
_cell_angle_alpha   90.00000000
_cell_angle_beta   90.00000000
_cell_angle_gamma   90.56906971
_symmetry_Int_Tables_number   1
_chemical_formula_structural   Sc8Ta2Nb9Si16Rh
_chemical_formula_sum   'Sc8 Ta2 Nb9 Si16 Rh1'
_cell_volume   604.76085179
_cell_formula_units_Z   1
loop_
 _symmetry_equiv_pos_site_id
 _symmetry_equiv_pos_as_xyz
  1  'x, y, z'
loop_
 _atom_site_type_symbol
 _atom_site_label
 _atom_site_symmetry_multiplicity
 _atom_site_fract_x
 _atom_site_fract_y
 _atom_site_fract_z
 _atom_site_occupancy
  Sc  Sc0  1  0.496567  0.675957  0.592889  1
  Sc  Sc1  1  0.002157  0.827220  0.906936  1
  Sc  Sc2  1  0.497921  0.326362  0.095273  1
  Sc  Sc3  1  0.999533  0.173608  0.403356  1
  Sc  Sc4  1  0.497921  0.326362  0.404727  1
  Sc  Sc5  1  0.999533  0.173608  0.096644  1
  Sc  Sc6  1  0.496567  0.675957  0.907111  1
  Sc  Sc7  1  0.002157  0.827220  0.593064  1
  Ta  Ta8  1  0.162355  0.506601  0.250000  1
  Ta  Ta9  1  0.661796  0.993985  0.250000  1
  Nb  Nb10  1  0.670172  0.170786  0.627573  1
  Nb  Nb11  1  0.161983  0.323600  0.872848  1
  Nb  Nb12  1  0.336031  0.825966  0.124575  1
  Nb  Nb13  1  0.835765  0.673880  0.377167  1
  Nb  Nb14  1  0.336031  0.825966  0.375425  1
  Nb  Nb15  1  0.835765  0.673880  0.122833  1
  Nb  Nb16  1  0.670172  0.170786  0.872427  1
  Nb  Nb17  1  0.161983  0.323600  0.627152  1
  Nb  Nb18  1  0.340274  0.998682  0.750000  1
  Si  Si19  1  0.669568  0.967824  0.460240  1
  Si  Si20  1  0.168599  0.532626  0.038162  1
  Si  Si21  1  0.333703  0.034814  0.959445  1
  Si  Si22  1  0.831471  0.465128  0.541777  1
  Si  Si23  1  0.333703  0.034814  0.540555  1
  Si  Si24  1  0.831471  0.465128  0.958223  1
  Si  Si25  1  0.669568  0.967824  0.039760  1
  Si  Si26  1  0.168599  0.532626  0.461838  1
  Si  Si27  1  0.470546  0.388886  0.750000  1
  Si  Si28  1  0.964225  0.103697  0.750000  1
  Si  Si29  1  0.538944  0.613330  0.250000  1
  Si  Si30  1  0.038003  0.886119  0.250000  1
  Si  Si31  1  0.706138  0.855880  0.750000  1
  Si  Si32  1  0.195907  0.632644  0.750000  1
  Si  Si33  1  0.295397  0.138349  0.250000  1
  Si  Si34  1  0.792999  0.363134  0.250000  1
  Rh  Rh35  1  0.826468  0.523151  0.750000  1
