# generated using pymatgen
data_TbNd4Tm5Si8
_symmetry_space_group_name_H-M   'P 1'
_cell_length_a   7.72816300
_cell_length_b   7.73133079
_cell_length_c   14.22648783
_cell_angle_alpha   90.12762635
_cell_angle_beta   90.00000000
_cell_angle_gamma   90.00000000
_symmetry_Int_Tables_number   1
_chemical_formula_structural   TbNd4Tm5Si8
_chemical_formula_sum   'Tb2 Nd8 Tm10 Si16'
_cell_volume   850.01609297
_cell_formula_units_Z   2
loop_
 _symmetry_equiv_pos_site_id
 _symmetry_equiv_pos_as_xyz
  1  'x, y, z'
loop_
 _atom_site_type_symbol
 _atom_site_label
 _atom_site_symmetry_multiplicity
 _atom_site_fract_x
 _atom_site_fract_y
 _atom_site_fract_z
 _atom_site_occupancy
  Tb  Tb0  1  0.492862  0.360194  0.124261  1
  Tb  Tb1  1  0.992862  0.139806  0.625739  1
  Nd  Nd2  1  0.642381  0.992703  0.458930  1
  Nd  Nd3  1  0.357498  0.007150  0.958995  1
  Nd  Nd4  1  0.992854  0.642365  0.540806  1
  Nd  Nd5  1  0.492854  0.857635  0.209194  1
  Nd  Nd6  1  0.506649  0.142579  0.709199  1
  Nd  Nd7  1  0.857498  0.492850  0.791005  1
  Nd  Nd8  1  0.142381  0.507297  0.291070  1
  Nd  Nd9  1  0.006649  0.357421  0.040801  1
  Tm  Tm10  1  0.859833  0.006482  0.874234  1
  Tm  Tm11  1  0.140087  0.992995  0.374255  1
  Tm  Tm12  1  0.506981  0.640206  0.624135  1
  Tm  Tm13  1  0.359833  0.493518  0.875766  1
  Tm  Tm14  1  0.640087  0.507005  0.375745  1
  Tm  Tm15  1  0.006981  0.859794  0.125865  1
  Tm  Tm16  1  0.318512  0.318455  0.499894  1
  Tm  Tm17  1  0.182324  0.817469  0.750180  1
  Tm  Tm18  1  0.818512  0.181545  0.250106  1
  Tm  Tm19  1  0.682324  0.682531  0.999820  1
  Si  Si20  1  0.290661  0.936395  0.561253  1
  Si  Si21  1  0.711551  0.061143  0.061392  1
  Si  Si22  1  0.937332  0.290223  0.437223  1
  Si  Si23  1  0.437332  0.209777  0.312777  1
  Si  Si24  1  0.562344  0.789199  0.811724  1
  Si  Si25  1  0.211551  0.438857  0.688608  1
  Si  Si26  1  0.790661  0.563605  0.188747  1
  Si  Si27  1  0.062344  0.710801  0.938276  1
  Si  Si28  1  0.794622  0.847323  0.688441  1
  Si  Si29  1  0.202671  0.149776  0.188366  1
  Si  Si30  1  0.849060  0.795592  0.312140  1
  Si  Si31  1  0.349060  0.704408  0.437860  1
  Si  Si32  1  0.651778  0.295457  0.936842  1
  Si  Si33  1  0.702671  0.350224  0.561634  1
  Si  Si34  1  0.294622  0.652677  0.061559  1
  Si  Si35  1  0.151778  0.204543  0.813158  1
