# generated using pymatgen
data_La6Pr5Nd5(CdPd)4
_symmetry_space_group_name_H-M   'P 1'
_cell_length_a   10.11121668
_cell_length_b   10.13157819
_cell_length_c   10.13160110
_cell_angle_alpha   59.86971957
_cell_angle_beta   60.06637331
_cell_angle_gamma   60.06661508
_symmetry_Int_Tables_number   1
_chemical_formula_structural   La6Pr5Nd5(CdPd)4
_chemical_formula_sum   'La6 Pr5 Nd5 Cd4 Pd4'
_cell_volume   733.92060237
_cell_formula_units_Z   1
loop_
 _symmetry_equiv_pos_site_id
 _symmetry_equiv_pos_as_xyz
  1  'x, y, z'
loop_
 _atom_site_type_symbol
 _atom_site_label
 _atom_site_symmetry_multiplicity
 _atom_site_fract_x
 _atom_site_fract_y
 _atom_site_fract_z
 _atom_site_occupancy
  La  La0  1  0.350370  0.351627  0.351624  1
  La  La1  1  0.351550  0.350512  0.946393  1
  La  La2  1  0.351546  0.946393  0.350512  1
  La  La3  1  0.946378  0.351624  0.351627  1
  La  La4  1  0.807634  0.192366  0.192366  1
  La  La5  1  0.192348  0.807652  0.807652  1
  Pr  Pr6  1  0.565343  0.934657  0.934657  1
  Pr  Pr7  1  0.565484  0.934555  0.565268  1
  Pr  Pr8  1  0.934692  0.565268  0.934555  1
  Pr  Pr9  1  0.565485  0.565268  0.934555  1
  Pr  Pr10  1  0.934692  0.934555  0.565268  1
  Nd  Nd11  1  0.192975  0.806866  0.193185  1
  Nd  Nd12  1  0.806975  0.193185  0.806866  1
  Nd  Nd13  1  0.192974  0.193186  0.806865  1
  Nd  Nd14  1  0.806975  0.806865  0.193186  1
  Nd  Nd15  1  0.934683  0.565317  0.565317  1
  Cd  Cd16  1  0.581014  0.579719  0.579717  1
  Cd  Cd17  1  0.579716  0.580843  0.259725  1
  Cd  Cd18  1  0.579715  0.259725  0.580843  1
  Cd  Cd19  1  0.259549  0.579717  0.579719  1
  Pd  Pd20  1  0.142735  0.143479  0.143477  1
  Pd  Pd21  1  0.143429  0.142852  0.570292  1
  Pd  Pd22  1  0.143428  0.570292  0.142852  1
  Pd  Pd23  1  0.570310  0.143477  0.143479  1
