# generated using pymatgen
data_Pr2Al20OsRuRh2
_symmetry_space_group_name_H-M   'P 1'
_cell_length_a   6.89310293
_cell_length_b   6.89657838
_cell_length_c   9.20210952
_cell_angle_alpha   90.25802897
_cell_angle_beta   90.30492271
_cell_angle_gamma   97.12814622
_symmetry_Int_Tables_number   1
_chemical_formula_structural   Pr2Al20OsRuRh2
_chemical_formula_sum   'Pr2 Al20 Os1 Ru1 Rh2'
_cell_volume   434.06438070
_cell_formula_units_Z   1
loop_
 _symmetry_equiv_pos_site_id
 _symmetry_equiv_pos_as_xyz
  1  'x, y, z'
loop_
 _atom_site_type_symbol
 _atom_site_label
 _atom_site_symmetry_multiplicity
 _atom_site_fract_x
 _atom_site_fract_y
 _atom_site_fract_z
 _atom_site_occupancy
  Pr  Pr0  1  0.873417  0.126066  0.750139  1
  Pr  Pr1  1  0.126583  0.873934  0.249861  1
  Al  Al2  1  0.620628  0.377297  0.548967  1
  Al  Al3  1  0.379372  0.622703  0.451033  1
  Al  Al4  1  0.377199  0.620550  0.049615  1
  Al  Al5  1  0.622801  0.379450  0.950385  1
  Al  Al6  1  0.224539  0.224561  0.499838  1
  Al  Al7  1  0.775461  0.775439  0.500162  1
  Al  Al8  1  0.774876  0.773472  0.999798  1
  Al  Al9  1  0.225124  0.226528  0.000202  1
  Al  Al10  1  0.841248  0.160761  0.103167  1
  Al  Al11  1  0.158752  0.839239  0.896833  1
  Al  Al12  1  0.159469  0.841403  0.603035  1
  Al  Al13  1  0.840531  0.158597  0.396965  1
  Al  Al14  1  0.857422  0.589512  0.750345  1
  Al  Al15  1  0.142578  0.410488  0.249655  1
  Al  Al16  1  0.409136  0.142658  0.750253  1
  Al  Al17  1  0.590864  0.857342  0.249747  1
  Al  Al18  1  0.223312  0.482279  0.752240  1
  Al  Al19  1  0.776688  0.517721  0.247760  1
  Al  Al20  1  0.517329  0.777287  0.746721  1
  Al  Al21  1  0.482671  0.222713  0.253279  1
  Os  Os22  1  0.500000  0.000000  0.500000  1
  Ru  Ru23  1  0.000000  0.500000  0.000000  1
  Rh  Rh24  1  0.000000  0.500000  0.500000  1
  Rh  Rh25  1  0.500000  0.000000  0.000000  1
