# generated using pymatgen
data_Hf12Mo3I16
_symmetry_space_group_name_H-M   'P 1'
_cell_length_a   9.26487983
_cell_length_b   12.03798143
_cell_length_c   12.79077988
_cell_angle_alpha   116.93199315
_cell_angle_beta   101.43966783
_cell_angle_gamma   100.61077173
_symmetry_Int_Tables_number   1
_chemical_formula_structural   Hf12Mo3I16
_chemical_formula_sum   'Hf12 Mo3 I16'
_cell_volume   1183.72441786
_cell_formula_units_Z   1
loop_
 _symmetry_equiv_pos_site_id
 _symmetry_equiv_pos_as_xyz
  1  'x, y, z'
loop_
 _atom_site_type_symbol
 _atom_site_label
 _atom_site_symmetry_multiplicity
 _atom_site_fract_x
 _atom_site_fract_y
 _atom_site_fract_z
 _atom_site_occupancy
  Hf  Hf0  1  0.090118  0.280151  0.364041  1
  Hf  Hf1  1  0.909882  0.719849  0.635959  1
  Hf  Hf2  1  0.785291  0.535300  0.339021  1
  Hf  Hf3  1  0.214709  0.464700  0.660979  1
  Hf  Hf4  1  0.269545  0.720695  0.633316  1
  Hf  Hf5  1  0.730455  0.279305  0.366684  1
  Hf  Hf6  1  0.146417  0.535881  0.337337  1
  Hf  Hf7  1  0.853583  0.464119  0.662663  1
  Hf  Hf8  1  0.410359  0.366966  0.286688  1
  Hf  Hf9  1  0.589641  0.633034  0.713312  1
  Hf  Hf10  1  0.460550  0.315851  0.519347  1
  Hf  Hf11  1  0.539450  0.684149  0.480653  1
  Mo  Mo12  1  0.000000  0.500000  0.500000  1
  Mo  Mo13  1  0.341845  0.500265  0.499473  1
  Mo  Mo14  1  0.658156  0.499735  0.500527  1
  I  I15  1  0.395145  0.736689  0.879493  1
  I  I16  1  0.604855  0.263311  0.120507  1
  I  I17  1  0.186762  0.959856  0.780013  1
  I  I18  1  0.813238  0.040144  0.219987  1
  I  I19  1  0.335536  0.094175  0.252147  1
  I  I20  1  0.664464  0.905825  0.747853  1
  I  I21  1  0.566637  0.434058  0.797488  1
  I  I22  1  0.433363  0.565942  0.202512  1
  I  I23  1  0.305895  0.828851  0.464318  1
  I  I24  1  0.694105  0.171149  0.535682  1
  I  I25  1  0.166526  0.172785  0.534445  1
  I  I26  1  0.833474  0.827215  0.465555  1
  I  I27  1  0.925605  0.576446  0.164289  1
  I  I28  1  0.074395  0.423554  0.835711  1
  I  I29  1  0.924946  0.736854  0.881259  1
  I  I30  1  0.075054  0.263146  0.118741  1
