# generated using pymatgen
data_U(S8O)3
_symmetry_space_group_name_H-M   'P 1'
_cell_length_a   14.72403642
_cell_length_b   14.72403733
_cell_length_c   14.72403568
_cell_angle_alpha   118.47584308
_cell_angle_beta   118.47584243
_cell_angle_gamma   118.47584252
_symmetry_Int_Tables_number   1
_chemical_formula_structural   U(S8O)3
_chemical_formula_sum   'U1 S24 O3'
_cell_volume   1015.70688334
_cell_formula_units_Z   1
loop_
 _symmetry_equiv_pos_site_id
 _symmetry_equiv_pos_as_xyz
  1  'x, y, z'
loop_
 _atom_site_type_symbol
 _atom_site_label
 _atom_site_symmetry_multiplicity
 _atom_site_fract_x
 _atom_site_fract_y
 _atom_site_fract_z
 _atom_site_occupancy
  U  U0  1  0.873350  0.873350  0.873350  1
  S  S1  1  0.799706  0.522940  0.522940  1
  S  S2  1  0.522940  0.522940  0.799706  1
  S  S3  1  0.522940  0.799706  0.522940  1
  S  S4  1  0.254730  0.387594  0.640599  1
  S  S5  1  0.341362  0.944014  0.341362  1
  S  S6  1  0.341362  0.341362  0.944014  1
  S  S7  1  0.944014  0.341362  0.341362  1
  S  S8  1  0.128409  0.743021  0.260550  1
  S  S9  1  0.260550  0.128409  0.743021  1
  S  S10  1  0.743021  0.260550  0.128409  1
  S  S11  1  0.743021  0.128409  0.260550  1
  S  S12  1  0.260550  0.743021  0.128409  1
  S  S13  1  0.128409  0.260550  0.743021  1
  S  S14  1  0.341861  0.874506  0.528196  1
  S  S15  1  0.528196  0.341861  0.874506  1
  S  S16  1  0.874506  0.528196  0.341861  1
  S  S17  1  0.874506  0.341861  0.528196  1
  S  S18  1  0.528196  0.874506  0.341861  1
  S  S19  1  0.341861  0.528196  0.874506  1
  S  S20  1  0.254730  0.640599  0.387594  1
  S  S21  1  0.387594  0.254730  0.640599  1
  S  S22  1  0.640599  0.387594  0.254730  1
  S  S23  1  0.640599  0.254730  0.387594  1
  S  S24  1  0.387594  0.640599  0.254730  1
  O  O25  1  0.871163  0.994768  0.994768  1
  O  O26  1  0.994768  0.994768  0.871163  1
  O  O27  1  0.994768  0.871163  0.994768  1
