# generated using pymatgen
data_Lu2U2Ge4As2Ru7
_symmetry_space_group_name_H-M   'P 1'
_cell_length_a   7.17243769
_cell_length_b   7.21677367
_cell_length_c   7.17403629
_cell_angle_alpha   109.32465568
_cell_angle_beta   109.36675465
_cell_angle_gamma   109.41626007
_symmetry_Int_Tables_number   1
_chemical_formula_structural   Lu2U2Ge4As2Ru7
_chemical_formula_sum   'Lu2 U2 Ge4 As2 Ru7'
_cell_volume   286.93307448
_cell_formula_units_Z   1
loop_
 _symmetry_equiv_pos_site_id
 _symmetry_equiv_pos_as_xyz
  1  'x, y, z'
loop_
 _atom_site_type_symbol
 _atom_site_label
 _atom_site_symmetry_multiplicity
 _atom_site_fract_x
 _atom_site_fract_y
 _atom_site_fract_z
 _atom_site_occupancy
  Lu  Lu0  1  0.999795  0.001257  0.498654  1
  Lu  Lu1  1  0.500777  0.001186  0.999668  1
  U  U2  1  0.999711  0.501924  0.998179  1
  U  U3  1  0.499367  0.501036  0.497907  1
  Ge  Ge4  1  0.994965  0.308824  0.311435  1
  Ge  Ge5  1  0.306867  0.302621  0.993179  1
  Ge  Ge6  1  0.691990  0.001310  0.691118  1
  Ge  Ge7  1  0.005349  0.694298  0.686501  1
  As  As8  1  0.685348  0.691174  0.003508  1
  As  As9  1  0.315126  0.001322  0.314434  1
  Ru  Ru10  1  0.752146  0.260615  0.510085  1
  Ru  Ru11  1  0.748638  0.499983  0.249615  1
  Ru  Ru12  1  0.508546  0.258076  0.751351  1
  Ru  Ru13  1  0.249423  0.499925  0.750495  1
  Ru  Ru14  1  0.250385  0.740111  0.491164  1
  Ru  Ru15  1  0.491614  0.739021  0.249260  1
  Ru  Ru16  1  0.999951  0.997316  0.003446  1
