# generated using pymatgen
data_Ho3CuHg3Au2
_symmetry_space_group_name_H-M   'P 1'
_cell_length_a   7.75322200
_cell_length_b   7.75322182
_cell_length_c   3.79255900
_cell_angle_alpha   90.00000000
_cell_angle_beta   90.00000000
_cell_angle_gamma   120.00000079
_symmetry_Int_Tables_number   1
_chemical_formula_structural   Ho3CuHg3Au2
_chemical_formula_sum   'Ho3 Cu1 Hg3 Au2'
_cell_volume   197.43648131
_cell_formula_units_Z   1
loop_
 _symmetry_equiv_pos_site_id
 _symmetry_equiv_pos_as_xyz
  1  'x, y, z'
loop_
 _atom_site_type_symbol
 _atom_site_label
 _atom_site_symmetry_multiplicity
 _atom_site_fract_x
 _atom_site_fract_y
 _atom_site_fract_z
 _atom_site_occupancy
  Ho  Ho0  1  0.596551  0.000000  0.000000  1
  Ho  Ho1  1  0.000000  0.596551  0.000000  1
  Ho  Ho2  1  0.403449  0.403449  0.000000  1
  Cu  Cu3  1  0.000000  0.000000  0.000000  1
  Hg  Hg4  1  0.252571  0.000000  0.500000  1
  Hg  Hg5  1  0.000000  0.252571  0.500000  1
  Hg  Hg6  1  0.747429  0.747429  0.500000  1
  Au  Au7  1  0.333333  0.666667  0.500000  1
  Au  Au8  1  0.666667  0.333333  0.500000  1
