# generated using pymatgen
data_Ca9Pd5Au
_symmetry_space_group_name_H-M   'P 1'
_cell_length_a   7.73547782
_cell_length_b   7.71350315
_cell_length_c   7.72604786
_cell_angle_alpha   71.47197287
_cell_angle_beta   71.14597655
_cell_angle_gamma   71.21954997
_symmetry_Int_Tables_number   1
_chemical_formula_structural   Ca9Pd5Au
_chemical_formula_sum   'Ca9 Pd5 Au1'
_cell_volume   401.10939297
_cell_formula_units_Z   1
loop_
 _symmetry_equiv_pos_site_id
 _symmetry_equiv_pos_as_xyz
  1  'x, y, z'
loop_
 _atom_site_type_symbol
 _atom_site_label
 _atom_site_symmetry_multiplicity
 _atom_site_fract_x
 _atom_site_fract_y
 _atom_site_fract_z
 _atom_site_occupancy
  Ca  Ca0  1  0.999125  0.000255  0.003863  1
  Ca  Ca1  1  0.793242  0.795252  0.797892  1
  Ca  Ca2  1  0.203673  0.206845  0.197144  1
  Ca  Ca3  1  0.334028  0.601513  0.846949  1
  Ca  Ca4  1  0.838999  0.334933  0.606628  1
  Ca  Ca5  1  0.607712  0.842213  0.329202  1
  Ca  Ca6  1  0.668467  0.394491  0.157521  1
  Ca  Ca7  1  0.157158  0.663939  0.390845  1
  Ca  Ca8  1  0.396848  0.159772  0.670709  1
  Pd  Pd9  1  0.589269  0.154114  0.956493  1
  Pd  Pd10  1  0.956674  0.588551  0.152673  1
  Pd  Pd11  1  0.843953  0.043872  0.412126  1
  Pd  Pd12  1  0.411278  0.845497  0.044978  1
  Pd  Pd13  1  0.043701  0.412333  0.844997  1
  Au  Au14  1  0.155872  0.956418  0.587981  1
