# generated using pymatgen
data_Li2LaPrBi4
_symmetry_space_group_name_H-M   'P 1'
_cell_length_a   4.59255700
_cell_length_b   4.59255700
_cell_length_c   10.73527200
_cell_angle_alpha   90.00000000
_cell_angle_beta   90.00000000
_cell_angle_gamma   90.00000000
_symmetry_Int_Tables_number   1
_chemical_formula_structural   Li2LaPrBi4
_chemical_formula_sum   'Li2 La1 Pr1 Bi4'
_cell_volume   226.42384604
_cell_formula_units_Z   1
loop_
 _symmetry_equiv_pos_site_id
 _symmetry_equiv_pos_as_xyz
  1  'x, y, z'
loop_
 _atom_site_type_symbol
 _atom_site_label
 _atom_site_symmetry_multiplicity
 _atom_site_fract_x
 _atom_site_fract_y
 _atom_site_fract_z
 _atom_site_occupancy
  Li  Li0  1  0.000000  0.000000  0.000897  1
  Li  Li1  1  0.500000  0.500000  0.000897  1
  La  La2  1  0.500000  0.000000  0.743743  1
  Pr  Pr3  1  0.000000  0.500000  0.257570  1
  Bi  Bi4  1  0.000000  0.500000  0.837854  1
  Bi  Bi5  1  0.500000  0.000000  0.162127  1
  Bi  Bi6  1  0.000000  0.000000  0.498456  1
  Bi  Bi7  1  0.500000  0.500000  0.498456  1
