# generated using pymatgen
data_Ho10In3SnBi2
_symmetry_space_group_name_H-M   'P 1'
_cell_length_a   8.99434631
_cell_length_b   8.98757625
_cell_length_c   6.57718000
_cell_angle_alpha   90.00000000
_cell_angle_beta   90.00000000
_cell_angle_gamma   120.00118233
_symmetry_Int_Tables_number   1
_chemical_formula_structural   Ho10In3SnBi2
_chemical_formula_sum   'Ho10 In3 Sn1 Bi2'
_cell_volume   460.44459372
_cell_formula_units_Z   1
loop_
 _symmetry_equiv_pos_site_id
 _symmetry_equiv_pos_as_xyz
  1  'x, y, z'
loop_
 _atom_site_type_symbol
 _atom_site_label
 _atom_site_symmetry_multiplicity
 _atom_site_fract_x
 _atom_site_fract_y
 _atom_site_fract_z
 _atom_site_occupancy
  Ho  Ho0  1  0.994763  0.758082  0.750000  1
  Ho  Ho1  1  0.992533  0.235235  0.250000  1
  Ho  Ho2  1  0.765763  0.765157  0.250000  1
  Ho  Ho3  1  0.767217  0.002689  0.750000  1
  Ho  Ho4  1  0.234828  0.242508  0.750000  1
  Ho  Ho5  1  0.234321  0.991818  0.250000  1
  Ho  Ho6  1  0.331843  0.666399  0.499479  1
  Ho  Ho7  1  0.675847  0.337273  0.000710  1
  Ho  Ho8  1  0.675847  0.337273  0.499290  1
  Ho  Ho9  1  0.331843  0.666399  0.000521  1
  In  In10  1  0.000926  0.603000  0.250000  1
  In  In11  1  0.001710  0.398306  0.750000  1
  In  In12  1  0.601821  0.997504  0.250000  1
  Sn  Sn13  1  0.603380  0.604808  0.750000  1
  Bi  Bi14  1  0.393872  0.002840  0.750000  1
  Bi  Bi15  1  0.393487  0.390709  0.250000  1
