# generated using pymatgen
data_Pr2B10Ir
_symmetry_space_group_name_H-M   'P 1'
_cell_length_a   4.23865500
_cell_length_b   5.77005900
_cell_length_c   11.49872100
_cell_angle_alpha   90.00000000
_cell_angle_beta   90.00000000
_cell_angle_gamma   90.00000000
_symmetry_Int_Tables_number   1
_chemical_formula_structural   Pr2B10Ir
_chemical_formula_sum   'Pr4 B20 Ir2'
_cell_volume   281.22754758
_cell_formula_units_Z   2
loop_
 _symmetry_equiv_pos_site_id
 _symmetry_equiv_pos_as_xyz
  1  'x, y, z'
loop_
 _atom_site_type_symbol
 _atom_site_label
 _atom_site_symmetry_multiplicity
 _atom_site_fract_x
 _atom_site_fract_y
 _atom_site_fract_z
 _atom_site_occupancy
  Pr  Pr0  1  0.500000  0.205556  0.366053  1
  Pr  Pr1  1  0.500000  0.794444  0.633947  1
  Pr  Pr2  1  0.500000  0.294444  0.866053  1
  Pr  Pr3  1  0.500000  0.705556  0.133947  1
  B  B4  1  0.000000  0.380453  0.043203  1
  B  B5  1  0.000000  0.619547  0.956797  1
  B  B6  1  0.000000  0.119547  0.543203  1
  B  B7  1  0.000000  0.880453  0.456797  1
  B  B8  1  0.000000  0.360417  0.196992  1
  B  B9  1  0.000000  0.639583  0.803008  1
  B  B10  1  0.000000  0.139583  0.696992  1
  B  B11  1  0.000000  0.860417  0.303008  1
  B  B12  1  0.000000  0.054533  0.192731  1
  B  B13  1  0.000000  0.945467  0.807269  1
  B  B14  1  0.000000  0.445467  0.692731  1
  B  B15  1  0.000000  0.554533  0.307269  1
  B  B16  1  0.300062  0.217179  0.118411  1
  B  B17  1  0.699938  0.782821  0.881589  1
  B  B18  1  0.300062  0.782821  0.881589  1
  B  B19  1  0.699938  0.282821  0.618411  1
  B  B20  1  0.699938  0.217179  0.118411  1
  B  B21  1  0.300062  0.717179  0.381589  1
  B  B22  1  0.699938  0.717179  0.381589  1
  B  B23  1  0.300062  0.282821  0.618411  1
  Ir  Ir24  1  0.000000  0.000000  0.000000  1
  Ir  Ir25  1  0.000000  0.500000  0.500000  1
