# generated using pymatgen
data_Hf9Re4Os
_symmetry_space_group_name_H-M   'P 1'
_cell_length_a   8.58238300
_cell_length_b   8.61359899
_cell_length_c   8.61359904
_cell_angle_alpha   120.00079152
_cell_angle_beta   90.00000000
_cell_angle_gamma   90.00000000
_symmetry_Int_Tables_number   1
_chemical_formula_structural   Hf9Re4Os
_chemical_formula_sum   'Hf18 Re8 Os2'
_cell_volume   551.44773827
_cell_formula_units_Z   2
loop_
 _symmetry_equiv_pos_site_id
 _symmetry_equiv_pos_as_xyz
  1  'x, y, z'
loop_
 _atom_site_type_symbol
 _atom_site_label
 _atom_site_symmetry_multiplicity
 _atom_site_fract_x
 _atom_site_fract_y
 _atom_site_fract_z
 _atom_site_occupancy
  Hf  Hf0  1  0.553786  0.803393  0.606791  1
  Hf  Hf1  1  0.553763  0.803385  0.196615  1
  Hf  Hf2  1  0.553786  0.393209  0.196607  1
  Hf  Hf3  1  0.446214  0.196607  0.393209  1
  Hf  Hf4  1  0.446237  0.196615  0.803385  1
  Hf  Hf5  1  0.446214  0.606791  0.803393  1
  Hf  Hf6  1  0.053786  0.196607  0.393209  1
  Hf  Hf7  1  0.053763  0.196615  0.803385  1
  Hf  Hf8  1  0.053786  0.606791  0.803393  1
  Hf  Hf9  1  0.946214  0.803393  0.606791  1
  Hf  Hf10  1  0.946237  0.803385  0.196615  1
  Hf  Hf11  1  0.946214  0.393209  0.196607  1
  Hf  Hf12  1  0.750000  0.458931  0.917824  1
  Hf  Hf13  1  0.750000  0.458898  0.541102  1
  Hf  Hf14  1  0.750000  0.082176  0.541069  1
  Hf  Hf15  1  0.250000  0.541069  0.082176  1
  Hf  Hf16  1  0.250000  0.541102  0.458898  1
  Hf  Hf17  1  0.250000  0.917824  0.458931  1
  Re  Re18  1  0.750000  0.110280  0.220557  1
  Re  Re19  1  0.750000  0.110298  0.889702  1
  Re  Re20  1  0.750000  0.779443  0.889720  1
  Re  Re21  1  0.250000  0.889720  0.779443  1
  Re  Re22  1  0.250000  0.889702  0.110298  1
  Re  Re23  1  0.250000  0.220557  0.110280  1
  Re  Re24  1  0.500000  0.000000  0.000000  1
  Re  Re25  1  0.000000  0.000000  0.000000  1
  Os  Os26  1  0.750000  0.666683  0.333317  1
  Os  Os27  1  0.250000  0.333317  0.666683  1
