# generated using pymatgen
data_Pr6FeBr10
_symmetry_space_group_name_H-M   'P 1'
_cell_length_a   7.72772976
_cell_length_b   9.55772025
_cell_length_c   9.54210975
_cell_angle_alpha   109.27108483
_cell_angle_beta   106.39445155
_cell_angle_gamma   97.19672144
_symmetry_Int_Tables_number   1
_chemical_formula_structural   Pr6FeBr10
_chemical_formula_sum   'Pr6 Fe1 Br10'
_cell_volume   619.39150412
_cell_formula_units_Z   1
loop_
 _symmetry_equiv_pos_site_id
 _symmetry_equiv_pos_as_xyz
  1  'x, y, z'
loop_
 _atom_site_type_symbol
 _atom_site_label
 _atom_site_symmetry_multiplicity
 _atom_site_fract_x
 _atom_site_fract_y
 _atom_site_fract_z
 _atom_site_occupancy
  Pr  Pr0  1  0.370684  0.190553  0.142445  1
  Pr  Pr1  1  0.024931  0.904913  0.707164  1
  Pr  Pr2  1  0.123253  0.761160  0.045604  1
  Pr  Pr3  1  0.629316  0.809447  0.857555  1
  Pr  Pr4  1  0.876747  0.238840  0.954396  1
  Pr  Pr5  1  0.975069  0.095087  0.292836  1
  Fe  Fe6  1  0.000000  0.000000  0.000000  1
  Br  Br7  1  0.451108  0.078028  0.824267  1
  Br  Br8  1  0.746746  0.542633  0.916284  1
  Br  Br9  1  0.253254  0.457367  0.083716  1
  Br  Br10  1  0.911939  0.168601  0.633149  1
  Br  Br11  1  0.636239  0.724034  0.538382  1
  Br  Br12  1  0.548892  0.921972  0.175733  1
  Br  Br13  1  0.088061  0.831399  0.366851  1
  Br  Br14  1  0.805339  0.355831  0.262841  1
  Br  Br15  1  0.194661  0.644169  0.737159  1
  Br  Br16  1  0.363761  0.275966  0.461618  1
