# generated using pymatgen
data_LaDyEr6(CdNi)2
_symmetry_space_group_name_H-M   'P 1'
_cell_length_a   9.51962070
_cell_length_b   9.51961960
_cell_length_c   9.50876100
_cell_angle_alpha   60.03772192
_cell_angle_beta   60.03772575
_cell_angle_gamma   60.21596244
_symmetry_Int_Tables_number   1
_chemical_formula_structural   LaDyEr6(CdNi)2
_chemical_formula_sum   'La2 Dy2 Er12 Cd4 Ni4'
_cell_volume   610.66102028
_cell_formula_units_Z   2
loop_
 _symmetry_equiv_pos_site_id
 _symmetry_equiv_pos_as_xyz
  1  'x, y, z'
loop_
 _atom_site_type_symbol
 _atom_site_label
 _atom_site_symmetry_multiplicity
 _atom_site_fract_x
 _atom_site_fract_y
 _atom_site_fract_z
 _atom_site_occupancy
  La  La0  1  0.595649  0.595649  0.601923  1
  La  La1  1  0.595649  0.595649  0.206779  1
  Dy  Dy2  1  0.816889  0.816889  0.183111  1
  Dy  Dy3  1  0.186855  0.186855  0.813145  1
  Er  Er4  1  0.601109  0.196097  0.601397  1
  Er  Er5  1  0.196097  0.601109  0.601397  1
  Er  Er6  1  0.064940  0.438591  0.434734  1
  Er  Er7  1  0.438591  0.064940  0.061735  1
  Er  Er8  1  0.438591  0.064940  0.434734  1
  Er  Er9  1  0.064940  0.438591  0.061735  1
  Er  Er10  1  0.436287  0.436287  0.063713  1
  Er  Er11  1  0.063398  0.063398  0.436602  1
  Er  Er12  1  0.186325  0.815657  0.814536  1
  Er  Er13  1  0.815657  0.186325  0.183482  1
  Er  Er14  1  0.815657  0.186325  0.814536  1
  Er  Er15  1  0.186325  0.815657  0.183482  1
  Cd  Cd16  1  0.833567  0.833567  0.827189  1
  Cd  Cd17  1  0.833567  0.833567  0.505677  1
  Cd  Cd18  1  0.834820  0.503058  0.831061  1
  Cd  Cd19  1  0.503058  0.834820  0.831061  1
  Ni  Ni20  1  0.389174  0.389174  0.398140  1
  Ni  Ni21  1  0.389174  0.389174  0.823511  1
  Ni  Ni22  1  0.385691  0.827987  0.393161  1
  Ni  Ni23  1  0.827987  0.385691  0.393161  1
