# generated using pymatgen
data_Dy7TmSc11Si16Au
_symmetry_space_group_name_H-M   'P 1'
_cell_length_a   7.01081935
_cell_length_b   7.39199534
_cell_length_c   14.01207686
_cell_angle_alpha   89.97754754
_cell_angle_beta   90.03314929
_cell_angle_gamma   89.81098349
_symmetry_Int_Tables_number   1
_chemical_formula_structural   Dy7TmSc11Si16Au
_chemical_formula_sum   'Dy7 Tm1 Sc11 Si16 Au1'
_cell_volume   726.15695637
_cell_formula_units_Z   1
loop_
 _symmetry_equiv_pos_site_id
 _symmetry_equiv_pos_as_xyz
  1  'x, y, z'
loop_
 _atom_site_type_symbol
 _atom_site_label
 _atom_site_symmetry_multiplicity
 _atom_site_fract_x
 _atom_site_fract_y
 _atom_site_fract_z
 _atom_site_occupancy
  Dy  Dy0  1  0.010420  0.175076  0.095936  1
  Dy  Dy1  1  0.990869  0.814033  0.901495  1
  Dy  Dy2  1  0.486006  0.672535  0.902086  1
  Dy  Dy3  1  0.990930  0.813812  0.598257  1
  Dy  Dy4  1  0.510168  0.323317  0.096172  1
  Dy  Dy5  1  0.010722  0.175073  0.404360  1
  Dy  Dy6  1  0.510223  0.323386  0.404197  1
  Tm  Tm7  1  0.486039  0.673120  0.598521  1
  Sc  Sc8  1  0.838519  0.497734  0.249976  1
  Sc  Sc9  1  0.340374  0.003514  0.250021  1
  Sc  Sc10  1  0.655477  0.997361  0.749803  1
  Sc  Sc11  1  0.323357  0.183096  0.627617  1
  Sc  Sc12  1  0.671250  0.823624  0.375221  1
  Sc  Sc13  1  0.170694  0.678637  0.374003  1
  Sc  Sc14  1  0.671328  0.823938  0.124950  1
  Sc  Sc15  1  0.837857  0.328378  0.627481  1
  Sc  Sc16  1  0.323190  0.182948  0.872215  1
  Sc  Sc17  1  0.838420  0.328107  0.872019  1
  Sc  Sc18  1  0.170629  0.678577  0.126140  1
  Si  Si19  1  0.025535  0.092853  0.749808  1
  Si  Si20  1  0.969033  0.888558  0.250087  1
  Si  Si21  1  0.467348  0.617079  0.250137  1
  Si  Si22  1  0.535181  0.385716  0.749652  1
  Si  Si23  1  0.288936  0.879739  0.749451  1
  Si  Si24  1  0.713636  0.128121  0.250085  1
  Si  Si25  1  0.212695  0.372241  0.250053  1
  Si  Si26  1  0.776763  0.629156  0.749338  1
  Si  Si27  1  0.163782  0.460145  0.531062  1
  Si  Si28  1  0.842584  0.535228  0.462375  1
  Si  Si29  1  0.344961  0.964056  0.463771  1
  Si  Si30  1  0.842568  0.535154  0.037747  1
  Si  Si31  1  0.656846  0.032844  0.540914  1
  Si  Si32  1  0.162062  0.459179  0.969509  1
  Si  Si33  1  0.657485  0.034071  0.959324  1
  Si  Si34  1  0.344560  0.965152  0.036633  1
  Au  Au35  1  0.159551  0.524443  0.749581  1
