# generated using pymatgen
data_Yb2GdUH12
_symmetry_space_group_name_H-M   'P 1'
_cell_length_a   6.58668600
_cell_length_b   6.71233200
_cell_length_c   6.58668600
_cell_angle_alpha   90.00000000
_cell_angle_beta   90.00000000
_cell_angle_gamma   90.00000000
_symmetry_Int_Tables_number   1
_chemical_formula_structural   Yb2GdUH12
_chemical_formula_sum   'Yb4 Gd2 U2 H24'
_cell_volume   291.21071432
_cell_formula_units_Z   2
loop_
 _symmetry_equiv_pos_site_id
 _symmetry_equiv_pos_as_xyz
  1  'x, y, z'
loop_
 _atom_site_type_symbol
 _atom_site_label
 _atom_site_symmetry_multiplicity
 _atom_site_fract_x
 _atom_site_fract_y
 _atom_site_fract_z
 _atom_site_occupancy
  Yb  Yb0  1  0.248866  0.000000  0.500000  1
  Yb  Yb1  1  0.751134  0.000000  0.500000  1
  Yb  Yb2  1  0.000000  0.500000  0.251134  1
  Yb  Yb3  1  0.000000  0.500000  0.748866  1
  Gd  Gd4  1  0.500000  0.750000  0.000000  1
  Gd  Gd5  1  0.500000  0.250000  0.000000  1
  U  U6  1  0.000000  0.000000  0.000000  1
  U  U7  1  0.500000  0.500000  0.500000  1
  H  H8  1  0.000000  0.148951  0.286769  1
  H  H9  1  0.500000  0.216733  0.655038  1
  H  H10  1  0.500000  0.783267  0.344962  1
  H  H11  1  0.786769  0.648951  0.500000  1
  H  H12  1  0.213231  0.648951  0.500000  1
  H  H13  1  0.351536  0.500000  0.800870  1
  H  H14  1  0.648464  0.500000  0.800870  1
  H  H15  1  0.300870  0.000000  0.148464  1
  H  H16  1  0.155038  0.283267  0.000000  1
  H  H17  1  0.844962  0.716733  0.000000  1
  H  H18  1  0.300870  0.000000  0.851536  1
  H  H19  1  0.844962  0.283267  0.000000  1
  H  H20  1  0.699130  0.000000  0.148464  1
  H  H21  1  0.699130  0.000000  0.851536  1
  H  H22  1  0.155038  0.716733  0.000000  1
  H  H23  1  0.000000  0.851049  0.713231  1
  H  H24  1  0.000000  0.148951  0.713231  1
  H  H25  1  0.000000  0.851049  0.286769  1
  H  H26  1  0.648464  0.500000  0.199130  1
  H  H27  1  0.351536  0.500000  0.199130  1
  H  H28  1  0.786769  0.351049  0.500000  1
  H  H29  1  0.213231  0.351049  0.500000  1
  H  H30  1  0.500000  0.783267  0.655038  1
  H  H31  1  0.500000  0.216733  0.344962  1
