# generated using pymatgen
data_U4Si6Ru6W
_symmetry_space_group_name_H-M   'P 1'
_cell_length_a   7.10734138
_cell_length_b   7.10733913
_cell_length_c   7.10734000
_cell_angle_alpha   109.47122026
_cell_angle_beta   109.47121384
_cell_angle_gamma   109.47122579
_symmetry_Int_Tables_number   1
_chemical_formula_structural   U4Si6Ru6W
_chemical_formula_sum   'U4 Si6 Ru6 W1'
_cell_volume   276.37542694
_cell_formula_units_Z   1
loop_
 _symmetry_equiv_pos_site_id
 _symmetry_equiv_pos_as_xyz
  1  'x, y, z'
loop_
 _atom_site_type_symbol
 _atom_site_label
 _atom_site_symmetry_multiplicity
 _atom_site_fract_x
 _atom_site_fract_y
 _atom_site_fract_z
 _atom_site_occupancy
  U  U0  1  0.500000  0.500000  0.500000  1
  U  U1  1  0.000000  0.000000  0.500000  1
  U  U2  1  0.500000  0.000000  0.000000  1
  U  U3  1  0.000000  0.500000  0.000000  1
  Si  Si4  1  0.315593  0.315593  0.000000  1
  Si  Si5  1  0.000000  0.315593  0.315593  1
  Si  Si6  1  0.000000  0.684407  0.684407  1
  Si  Si7  1  0.684407  0.000000  0.684407  1
  Si  Si8  1  0.315593  0.000000  0.315593  1
  Si  Si9  1  0.684407  0.684407  0.000000  1
  Ru  Ru10  1  0.750000  0.250000  0.500000  1
  Ru  Ru11  1  0.500000  0.250000  0.750000  1
  Ru  Ru12  1  0.500000  0.750000  0.250000  1
  Ru  Ru13  1  0.250000  0.500000  0.750000  1
  Ru  Ru14  1  0.750000  0.500000  0.250000  1
  Ru  Ru15  1  0.250000  0.750000  0.500000  1
  W  W16  1  0.000000  0.000000  0.000000  1
