# generated using pymatgen
data_Y8Cd3PbAu8
_symmetry_space_group_name_H-M   'P 1'
_cell_length_a   8.06555500
_cell_length_b   8.06555500
_cell_length_c   7.34742400
_cell_angle_alpha   90.00000000
_cell_angle_beta   90.00000000
_cell_angle_gamma   90.00000000
_symmetry_Int_Tables_number   1
_chemical_formula_structural   Y8Cd3PbAu8
_chemical_formula_sum   'Y8 Cd3 Pb1 Au8'
_cell_volume   477.97327733
_cell_formula_units_Z   1
loop_
 _symmetry_equiv_pos_site_id
 _symmetry_equiv_pos_as_xyz
  1  'x, y, z'
loop_
 _atom_site_type_symbol
 _atom_site_label
 _atom_site_symmetry_multiplicity
 _atom_site_fract_x
 _atom_site_fract_y
 _atom_site_fract_z
 _atom_site_occupancy
  Y  Y0  1  0.843421  0.166157  0.501349  1
  Y  Y1  1  0.156579  0.833843  0.501349  1
  Y  Y2  1  0.333843  0.343421  0.998651  1
  Y  Y3  1  0.666157  0.656579  0.998651  1
  Y  Y4  1  0.683289  0.674160  0.501196  1
  Y  Y5  1  0.316711  0.325840  0.501196  1
  Y  Y6  1  0.174160  0.816711  0.998804  1
  Y  Y7  1  0.825840  0.183289  0.998804  1
  Cd  Cd8  1  0.500000  0.000000  0.250000  1
  Cd  Cd9  1  0.000000  0.500000  0.750000  1
  Cd  Cd10  1  0.500000  0.000000  0.750000  1
  Pb  Pb11  1  0.000000  0.500000  0.250000  1
  Au  Au12  1  0.618927  0.363652  0.268144  1
  Au  Au13  1  0.381073  0.636348  0.268144  1
  Au  Au14  1  0.132266  0.124988  0.767363  1
  Au  Au15  1  0.867734  0.875012  0.767363  1
  Au  Au16  1  0.375012  0.632266  0.732637  1
  Au  Au17  1  0.624988  0.367734  0.732637  1
  Au  Au18  1  0.863652  0.881073  0.231856  1
  Au  Au19  1  0.136348  0.118927  0.231856  1
