# generated using pymatgen
data_Y7TmSc11Si16Ru
_symmetry_space_group_name_H-M   'P 1'
_cell_length_a   7.00978605
_cell_length_b   7.36513538
_cell_length_c   13.90022858
_cell_angle_alpha   89.96691082
_cell_angle_beta   90.00134421
_cell_angle_gamma   90.10094831
_symmetry_Int_Tables_number   1
_chemical_formula_structural   Y7TmSc11Si16Ru
_chemical_formula_sum   'Y7 Tm1 Sc11 Si16 Ru1'
_cell_volume   717.64009123
_cell_formula_units_Z   1
loop_
 _symmetry_equiv_pos_site_id
 _symmetry_equiv_pos_as_xyz
  1  'x, y, z'
loop_
 _atom_site_type_symbol
 _atom_site_label
 _atom_site_symmetry_multiplicity
 _atom_site_fract_x
 _atom_site_fract_y
 _atom_site_fract_z
 _atom_site_occupancy
  Y  Y0  1  0.011605  0.177790  0.093275  1
  Y  Y1  1  0.992845  0.818356  0.901025  1
  Y  Y2  1  0.489291  0.672865  0.902904  1
  Y  Y3  1  0.992752  0.818257  0.598504  1
  Y  Y4  1  0.510771  0.323838  0.094595  1
  Y  Y5  1  0.011859  0.177896  0.407018  1
  Y  Y6  1  0.510643  0.323880  0.405895  1
  Tm  Tm7  1  0.488999  0.673536  0.597935  1
  Sc  Sc8  1  0.841488  0.496943  0.250141  1
  Sc  Sc9  1  0.341814  0.002613  0.250103  1
  Sc  Sc10  1  0.656579  0.996167  0.749676  1
  Sc  Sc11  1  0.325927  0.177304  0.627478  1
  Sc  Sc12  1  0.671635  0.824295  0.374460  1
  Sc  Sc13  1  0.172690  0.673993  0.376430  1
  Sc  Sc14  1  0.671830  0.824728  0.125851  1
  Sc  Sc15  1  0.826315  0.331488  0.628338  1
  Sc  Sc16  1  0.325877  0.177269  0.872207  1
  Sc  Sc17  1  0.826798  0.331077  0.871072  1
  Sc  Sc18  1  0.172587  0.674117  0.123761  1
  Si  Si19  1  0.028658  0.115441  0.749747  1
  Si  Si20  1  0.972602  0.885425  0.250078  1
  Si  Si21  1  0.468955  0.615816  0.250096  1
  Si  Si22  1  0.515669  0.396395  0.749404  1
  Si  Si23  1  0.285856  0.862128  0.749303  1
  Si  Si24  1  0.716208  0.128600  0.250093  1
  Si  Si25  1  0.214636  0.371731  0.250063  1
  Si  Si26  1  0.793548  0.629255  0.749434  1
  Si  Si27  1  0.158814  0.466015  0.547242  1
  Si  Si28  1  0.843295  0.536318  0.463513  1
  Si  Si29  1  0.345631  0.962900  0.463681  1
  Si  Si30  1  0.843615  0.536182  0.036699  1
  Si  Si31  1  0.657652  0.033520  0.540312  1
  Si  Si32  1  0.156669  0.464714  0.953207  1
  Si  Si33  1  0.658257  0.035141  0.960039  1
  Si  Si34  1  0.345445  0.964296  0.036843  1
  Ru  Ru35  1  0.152183  0.499712  0.749579  1
