# generated using pymatgen
data_Eu6RuO12
_symmetry_space_group_name_H-M   'P 1'
_cell_length_a   6.60651648
_cell_length_b   6.60633318
_cell_length_c   6.60039530
_cell_angle_alpha   98.35134268
_cell_angle_beta   98.29996770
_cell_angle_gamma   98.37427457
_symmetry_Int_Tables_number   1
_chemical_formula_structural   Eu6RuO12
_chemical_formula_sum   'Eu6 Ru1 O12'
_cell_volume   277.91951281
_cell_formula_units_Z   1
loop_
 _symmetry_equiv_pos_site_id
 _symmetry_equiv_pos_as_xyz
  1  'x, y, z'
loop_
 _atom_site_type_symbol
 _atom_site_label
 _atom_site_symmetry_multiplicity
 _atom_site_fract_x
 _atom_site_fract_y
 _atom_site_fract_z
 _atom_site_occupancy
  Eu  Eu0  1  0.138766  0.301222  0.605305  1
  Eu  Eu1  1  0.394785  0.861106  0.698562  1
  Eu  Eu2  1  0.698622  0.394810  0.861238  1
  Eu  Eu3  1  0.301378  0.605190  0.138762  1
  Eu  Eu4  1  0.605215  0.138894  0.301438  1
  Eu  Eu5  1  0.861234  0.698778  0.394695  1
  Ru  Ru6  1  0.000000  0.000000  0.000000  1
  O  O7  1  0.067122  0.292077  0.966284  1
  O  O8  1  0.033654  0.932949  0.707899  1
  O  O9  1  0.406860  0.564380  0.823493  1
  O  O10  1  0.176479  0.592906  0.435475  1
  O  O11  1  0.707971  0.033634  0.932859  1
  O  O12  1  0.435474  0.176578  0.592791  1
  O  O13  1  0.564526  0.823422  0.407209  1
  O  O14  1  0.292029  0.966366  0.067141  1
  O  O15  1  0.823521  0.407094  0.564525  1
  O  O16  1  0.593140  0.435620  0.176507  1
  O  O17  1  0.966346  0.067051  0.292101  1
  O  O18  1  0.932878  0.707923  0.033716  1
