# generated using pymatgen
data_YEr5(Co2Si)6
_symmetry_space_group_name_H-M   'P 1'
_cell_length_a   5.19430900
_cell_length_b   5.19430964
_cell_length_c   14.75186500
_cell_angle_alpha   90.00000000
_cell_angle_beta   90.00000000
_cell_angle_gamma   120.00000229
_symmetry_Int_Tables_number   1
_chemical_formula_structural   YEr5(Co2Si)6
_chemical_formula_sum   'Y1 Er5 Co12 Si6'
_cell_volume   344.69355842
_cell_formula_units_Z   1
loop_
 _symmetry_equiv_pos_site_id
 _symmetry_equiv_pos_as_xyz
  1  'x, y, z'
loop_
 _atom_site_type_symbol
 _atom_site_label
 _atom_site_symmetry_multiplicity
 _atom_site_fract_x
 _atom_site_fract_y
 _atom_site_fract_z
 _atom_site_occupancy
  Y  Y0  1  0.666667  0.333334  0.750000  1
  Er  Er1  1  0.333333  0.666667  0.038735  1
  Er  Er2  1  0.333333  0.666667  0.250000  1
  Er  Er3  1  0.333333  0.666667  0.461265  1
  Er  Er4  1  0.666667  0.333334  0.538411  1
  Er  Er5  1  0.666667  0.333334  0.961589  1
  Co  Co6  1  0.333825  0.166913  0.130588  1
  Co  Co7  1  0.833087  0.166913  0.130588  1
  Co  Co8  1  0.833087  0.666174  0.130588  1
  Co  Co9  1  0.333825  0.166913  0.369412  1
  Co  Co10  1  0.833087  0.166913  0.369412  1
  Co  Co11  1  0.833087  0.666174  0.369412  1
  Co  Co12  1  0.166956  0.333913  0.630282  1
  Co  Co13  1  0.166956  0.833043  0.630282  1
  Co  Co14  1  0.666086  0.833043  0.630282  1
  Co  Co15  1  0.166956  0.333913  0.869717  1
  Co  Co16  1  0.166956  0.833043  0.869717  1
  Co  Co17  1  0.666086  0.833043  0.869717  1
  Si  Si18  1  0.000000  0.000000  0.000012  1
  Si  Si19  1  0.000000  0.000000  0.250000  1
  Si  Si20  1  0.666667  0.333334  0.250000  1
  Si  Si21  1  0.000000  0.000000  0.499988  1
  Si  Si22  1  0.000000  0.000000  0.750000  1
  Si  Si23  1  0.333333  0.666667  0.750000  1
