# generated using pymatgen
data_Hf3Zr17Si15Se
_symmetry_space_group_name_H-M   'P 1'
_cell_length_a   7.16450560
_cell_length_b   7.14559893
_cell_length_c   13.04785407
_cell_angle_alpha   90.06259232
_cell_angle_beta   89.58368894
_cell_angle_gamma   89.82949010
_symmetry_Int_Tables_number   1
_chemical_formula_structural   Hf3Zr17Si15Se
_chemical_formula_sum   'Hf3 Zr17 Si15 Se1'
_cell_volume   667.95975426
_cell_formula_units_Z   1
loop_
 _symmetry_equiv_pos_site_id
 _symmetry_equiv_pos_as_xyz
  1  'x, y, z'
loop_
 _atom_site_type_symbol
 _atom_site_label
 _atom_site_symmetry_multiplicity
 _atom_site_fract_x
 _atom_site_fract_y
 _atom_site_fract_z
 _atom_site_occupancy
  Hf  Hf0  1  0.348041  0.501138  0.871312  1
  Hf  Hf1  1  0.006488  0.851036  0.125116  1
  Hf  Hf2  1  0.997200  0.145606  0.623608  1
  Zr  Zr3  1  0.674847  0.325151  0.750024  1
  Zr  Zr4  1  0.327260  0.674206  0.249964  1
  Zr  Zr5  1  0.824624  0.824456  0.500384  1
  Zr  Zr6  1  0.176541  0.177105  0.999636  1
  Zr  Zr7  1  0.499294  0.149364  0.535180  1
  Zr  Zr8  1  0.495993  0.843412  0.030435  1
  Zr  Zr9  1  0.651892  0.997518  0.287837  1
  Zr  Zr10  1  0.341714  0.994585  0.781342  1
  Zr  Zr11  1  0.849102  0.506284  0.965938  1
  Zr  Zr12  1  0.152766  0.497730  0.465780  1
  Zr  Zr13  1  0.998358  0.653084  0.716119  1
  Zr  Zr14  1  0.010983  0.353218  0.219681  1
  Zr  Zr15  1  0.501254  0.351536  0.124197  1
  Zr  Zr16  1  0.500634  0.646446  0.627673  1
  Zr  Zr17  1  0.847233  0.003816  0.878742  1
  Zr  Zr18  1  0.148015  0.999420  0.376756  1
  Zr  Zr19  1  0.650216  0.500498  0.372495  1
  Si  Si20  1  0.204640  0.855686  0.573341  1
  Si  Si21  1  0.642138  0.705184  0.823827  1
  Si  Si22  1  0.359808  0.293708  0.322956  1
  Si  Si23  1  0.855469  0.204516  0.428662  1
  Si  Si24  1  0.140688  0.795557  0.926746  1
  Si  Si25  1  0.706617  0.647344  0.176077  1
  Si  Si26  1  0.291330  0.354990  0.675490  1
  Si  Si27  1  0.532424  0.197605  0.927808  1
  Si  Si28  1  0.449336  0.798118  0.438583  1
  Si  Si29  1  0.698479  0.950252  0.688066  1
  Si  Si30  1  0.303406  0.049456  0.187284  1
  Si  Si31  1  0.801305  0.449179  0.562605  1
  Si  Si32  1  0.202934  0.552372  0.061938  1
  Si  Si33  1  0.951335  0.700692  0.313010  1
  Si  Si34  1  0.048513  0.300357  0.811562  1
  Se  Se35  1  0.809120  0.149370  0.079825  1
