# generated using pymatgen
data_Hf17Nb3Si15Sn
_symmetry_space_group_name_H-M   'P 1'
_cell_length_a   7.08412769
_cell_length_b   7.05778649
_cell_length_c   12.86964059
_cell_angle_alpha   89.91791152
_cell_angle_beta   89.72592016
_cell_angle_gamma   90.14747422
_symmetry_Int_Tables_number   1
_chemical_formula_structural   Hf17Nb3Si15Sn
_chemical_formula_sum   'Hf17 Nb3 Si15 Sn1'
_cell_volume   643.44948016
_cell_formula_units_Z   1
loop_
 _symmetry_equiv_pos_site_id
 _symmetry_equiv_pos_as_xyz
  1  'x, y, z'
loop_
 _atom_site_type_symbol
 _atom_site_label
 _atom_site_symmetry_multiplicity
 _atom_site_fract_x
 _atom_site_fract_y
 _atom_site_fract_z
 _atom_site_occupancy
  Hf  Hf0  1  0.181652  0.172678  0.997836  1
  Hf  Hf1  1  0.498168  0.153245  0.532231  1
  Hf  Hf2  1  0.495874  0.839434  0.028930  1
  Hf  Hf3  1  0.649367  0.997057  0.288221  1
  Hf  Hf4  1  0.345208  0.995936  0.779043  1
  Hf  Hf5  1  0.847182  0.513618  0.963658  1
  Hf  Hf6  1  0.154785  0.498661  0.468656  1
  Hf  Hf7  1  0.000902  0.652990  0.716920  1
  Hf  Hf8  1  0.011347  0.356082  0.226445  1
  Hf  Hf9  1  0.488649  0.364251  0.126635  1
  Hf  Hf10  1  0.501975  0.644498  0.625757  1
  Hf  Hf11  1  0.853518  0.000255  0.870356  1
  Hf  Hf12  1  0.147210  0.997070  0.377355  1
  Hf  Hf13  1  0.645531  0.503793  0.374649  1
  Hf  Hf14  1  0.353453  0.498392  0.870891  1
  Hf  Hf15  1  0.014143  0.841793  0.127899  1
  Hf  Hf16  1  0.996848  0.145500  0.622977  1
  Nb  Nb17  1  0.675619  0.324580  0.748233  1
  Nb  Nb18  1  0.325162  0.675029  0.251729  1
  Nb  Nb19  1  0.824365  0.825482  0.500621  1
  Si  Si20  1  0.202826  0.853556  0.573205  1
  Si  Si21  1  0.642976  0.704682  0.820868  1
  Si  Si22  1  0.357799  0.295502  0.324884  1
  Si  Si23  1  0.854758  0.204007  0.427488  1
  Si  Si24  1  0.144061  0.796020  0.926082  1
  Si  Si25  1  0.704393  0.647910  0.177808  1
  Si  Si26  1  0.295826  0.352741  0.676123  1
  Si  Si27  1  0.543306  0.196175  0.930073  1
  Si  Si28  1  0.449759  0.799679  0.437323  1
  Si  Si29  1  0.696485  0.952502  0.683333  1
  Si  Si30  1  0.306033  0.047843  0.186114  1
  Si  Si31  1  0.802099  0.452835  0.564565  1
  Si  Si32  1  0.195323  0.545939  0.061922  1
  Si  Si33  1  0.950772  0.700875  0.318081  1
  Si  Si34  1  0.045085  0.303620  0.813801  1
  Sn  Sn35  1  0.797541  0.145768  0.079286  1
