# generated using pymatgen
data_LiLa2Zn13Ni3
_symmetry_space_group_name_H-M   'P 1'
_cell_length_a   6.77417881
_cell_length_b   6.77417790
_cell_length_c   6.77417820
_cell_angle_alpha   83.40308462
_cell_angle_beta   96.59690201
_cell_angle_gamma   96.59691594
_symmetry_Int_Tables_number   1
_chemical_formula_structural   LiLa2Zn13Ni3
_chemical_formula_sum   'Li1 La2 Zn13 Ni3'
_cell_volume   305.12775353
_cell_formula_units_Z   1
loop_
 _symmetry_equiv_pos_site_id
 _symmetry_equiv_pos_as_xyz
  1  'x, y, z'
loop_
 _atom_site_type_symbol
 _atom_site_label
 _atom_site_symmetry_multiplicity
 _atom_site_fract_x
 _atom_site_fract_y
 _atom_site_fract_z
 _atom_site_occupancy
  Li  Li0  1  0.902327  0.097671  0.097672  1
  La  La1  1  0.662211  0.337788  0.337789  1
  La  La2  1  0.344604  0.655395  0.655395  1
  Zn  Zn3  1  0.286893  0.291618  0.001367  1
  Zn  Zn4  1  0.708382  0.713107  0.001367  1
  Zn  Zn5  1  0.344043  0.655958  0.145717  1
  Zn  Zn6  1  0.998633  0.713107  0.291617  1
  Zn  Zn7  1  0.286893  0.001367  0.291618  1
  Zn  Zn8  1  0.658617  0.859808  0.341382  1
  Zn  Zn9  1  0.140192  0.341383  0.341384  1
  Zn  Zn10  1  0.854283  0.655958  0.655957  1
  Zn  Zn11  1  0.344042  0.145716  0.655958  1
  Zn  Zn12  1  0.998633  0.291618  0.713106  1
  Zn  Zn13  1  0.708382  0.001367  0.713107  1
  Zn  Zn14  1  0.658617  0.341383  0.859808  1
  Zn  Zn15  1  0.110279  0.889721  0.889720  1
  Ni  Ni16  1  0.493325  0.000180  0.000180  1
  Ni  Ni17  1  0.999820  0.506674  0.000180  1
  Ni  Ni18  1  0.999820  0.000180  0.506675  1
