# generated using pymatgen
data_La3Tb(Y3Si4)2
_symmetry_space_group_name_H-M   'P 1'
_cell_length_a   7.82173211
_cell_length_b   7.82196590
_cell_length_c   14.54863100
_cell_angle_alpha   89.97258991
_cell_angle_beta   90.07725894
_cell_angle_gamma   90.00105513
_symmetry_Int_Tables_number   1
_chemical_formula_structural   La3Tb(Y3Si4)2
_chemical_formula_sum   'La6 Tb2 Y12 Si16'
_cell_volume   890.10356407
_cell_formula_units_Z   2
loop_
 _symmetry_equiv_pos_site_id
 _symmetry_equiv_pos_as_xyz
  1  'x, y, z'
loop_
 _atom_site_type_symbol
 _atom_site_label
 _atom_site_symmetry_multiplicity
 _atom_site_fract_x
 _atom_site_fract_y
 _atom_site_fract_z
 _atom_site_occupancy
  La  La0  1  0.638568  0.990962  0.454392  1
  La  La1  1  0.360414  0.010671  0.958683  1
  La  La2  1  0.990206  0.639442  0.542026  1
  La  La3  1  0.490679  0.860244  0.207173  1
  La  La4  1  0.510434  0.138783  0.706235  1
  La  La5  1  0.862020  0.489569  0.794460  1
  Tb  Tb6  1  0.133838  0.505889  0.293973  1
  Tb  Tb7  1  0.006624  0.367745  0.046999  1
  Y  Y8  1  0.488743  0.363848  0.125566  1
  Y  Y9  1  0.989824  0.137296  0.624253  1
  Y  Y10  1  0.864710  0.009792  0.876614  1
  Y  Y11  1  0.138158  0.989965  0.373186  1
  Y  Y12  1  0.508340  0.637662  0.624096  1
  Y  Y13  1  0.361941  0.487289  0.876560  1
  Y  Y14  1  0.635943  0.508955  0.373327  1
  Y  Y15  1  0.011464  0.863557  0.125610  1
  Y  Y16  1  0.315118  0.317055  0.499180  1
  Y  Y17  1  0.184199  0.816055  0.750726  1
  Y  Y18  1  0.818164  0.186339  0.249466  1
  Y  Y19  1  0.685651  0.682764  0.000931  1
  Si  Si20  1  0.287415  0.931190  0.560521  1
  Si  Si21  1  0.715188  0.069703  0.062579  1
  Si  Si22  1  0.935653  0.290787  0.436570  1
  Si  Si23  1  0.427207  0.215996  0.310853  1
  Si  Si24  1  0.566777  0.787722  0.812132  1
  Si  Si25  1  0.211302  0.432888  0.688042  1
  Si  Si26  1  0.794810  0.562280  0.188232  1
  Si  Si27  1  0.064830  0.707258  0.939723  1
  Si  Si28  1  0.797804  0.843536  0.693747  1
  Si  Si29  1  0.196053  0.163924  0.191091  1
  Si  Si30  1  0.849646  0.793072  0.307871  1
  Si  Si31  1  0.341105  0.698973  0.438642  1
  Si  Si32  1  0.661725  0.300589  0.945729  1
  Si  Si33  1  0.702445  0.345032  0.556047  1
  Si  Si34  1  0.295542  0.652881  0.058474  1
  Si  Si35  1  0.157456  0.200285  0.806289  1
