# generated using pymatgen
data_Rb2DyY5F20
_symmetry_space_group_name_H-M   'P 1'
_cell_length_a   8.31425957
_cell_length_b   8.31426449
_cell_length_c   8.31523500
_cell_angle_alpha   59.99586400
_cell_angle_beta   59.99600420
_cell_angle_gamma   60.00761514
_symmetry_Int_Tables_number   1
_chemical_formula_structural   Rb2DyY5F20
_chemical_formula_sum   'Rb2 Dy1 Y5 F20'
_cell_volume   406.44822980
_cell_formula_units_Z   1
loop_
 _symmetry_equiv_pos_site_id
 _symmetry_equiv_pos_as_xyz
  1  'x, y, z'
loop_
 _atom_site_type_symbol
 _atom_site_label
 _atom_site_symmetry_multiplicity
 _atom_site_fract_x
 _atom_site_fract_y
 _atom_site_fract_z
 _atom_site_occupancy
  Rb  Rb0  1  0.249999  0.249999  0.250001  1
  Rb  Rb1  1  0.749998  0.749999  0.750001  1
  Dy  Dy2  1  0.759576  0.759573  0.240425  1
  Y  Y3  1  0.759505  0.240527  0.240495  1
  Y  Y4  1  0.240526  0.759504  0.759473  1
  Y  Y5  1  0.240526  0.759505  0.240496  1
  Y  Y6  1  0.759505  0.240527  0.759473  1
  Y  Y7  1  0.240522  0.240524  0.759476  1
  F  F8  1  0.829145  0.500652  0.499348  1
  F  F9  1  0.170549  0.500004  0.499997  1
  F  F10  1  0.500653  0.829144  0.170857  1
  F  F11  1  0.500002  0.170553  0.829447  1
  F  F12  1  0.500651  0.829145  0.499348  1
  F  F13  1  0.170550  0.500002  0.829450  1
  F  F14  1  0.500002  0.170550  0.499998  1
  F  F15  1  0.829145  0.500652  0.170855  1
  F  F16  1  0.500008  0.500006  0.829426  1
  F  F17  1  0.500007  0.500009  0.170559  1
  F  F18  1  0.170575  0.829440  0.499992  1
  F  F19  1  0.829439  0.170574  0.499994  1
  F  F20  1  0.110517  0.110519  0.110572  1
  F  F21  1  0.889261  0.889260  0.890008  1
  F  F22  1  0.110518  0.110518  0.668394  1
  F  F23  1  0.109992  0.668530  0.110738  1
  F  F24  1  0.889262  0.889260  0.331470  1
  F  F25  1  0.889430  0.331606  0.889484  1
  F  F26  1  0.668531  0.109993  0.110737  1
  F  F27  1  0.331607  0.889427  0.889484  1
