# generated using pymatgen
data_Ce4CdCo2SnPd2
_symmetry_space_group_name_H-M   'P 1'
_cell_length_a   7.65470518
_cell_length_b   7.67857851
_cell_length_c   3.65040000
_cell_angle_alpha   90.00000000
_cell_angle_beta   90.00000000
_cell_angle_gamma   91.71372468
_symmetry_Int_Tables_number   1
_chemical_formula_structural   Ce4CdCo2SnPd2
_chemical_formula_sum   'Ce4 Cd1 Co2 Sn1 Pd2'
_cell_volume   214.46452284
_cell_formula_units_Z   1
loop_
 _symmetry_equiv_pos_site_id
 _symmetry_equiv_pos_as_xyz
  1  'x, y, z'
loop_
 _atom_site_type_symbol
 _atom_site_label
 _atom_site_symmetry_multiplicity
 _atom_site_fract_x
 _atom_site_fract_y
 _atom_site_fract_z
 _atom_site_occupancy
  Ce  Ce0  1  0.684790  0.189427  0.500000  1
  Ce  Ce1  1  0.315210  0.810573  0.500000  1
  Ce  Ce2  1  0.161777  0.343637  0.500000  1
  Ce  Ce3  1  0.838223  0.656363  0.500000  1
  Cd  Cd4  1  0.000000  0.000000  0.000000  1
  Co  Co5  1  0.145798  0.615577  0.000000  1
  Co  Co6  1  0.854202  0.384423  0.000000  1
  Sn  Sn7  1  0.500000  0.500000  0.000000  1
  Pd  Pd8  1  0.631444  0.870429  0.000000  1
  Pd  Pd9  1  0.368556  0.129571  0.000000  1
