# generated using pymatgen
data_PrCd2Rh9
_symmetry_space_group_name_H-M   'P 1'
_cell_length_a   8.92099400
_cell_length_b   8.92099400
_cell_length_c   5.11961900
_cell_angle_alpha   90.00000000
_cell_angle_beta   90.00000000
_cell_angle_gamma   90.00000000
_symmetry_Int_Tables_number   1
_chemical_formula_structural   PrCd2Rh9
_chemical_formula_sum   'Pr2 Cd4 Rh18'
_cell_volume   407.44044426
_cell_formula_units_Z   2
loop_
 _symmetry_equiv_pos_site_id
 _symmetry_equiv_pos_as_xyz
  1  'x, y, z'
loop_
 _atom_site_type_symbol
 _atom_site_label
 _atom_site_symmetry_multiplicity
 _atom_site_fract_x
 _atom_site_fract_y
 _atom_site_fract_z
 _atom_site_occupancy
  Pr  Pr0  1  0.500000  0.500000  0.000000  1
  Pr  Pr1  1  0.000000  0.000000  0.000000  1
  Cd  Cd2  1  0.116997  0.616997  0.000000  1
  Cd  Cd3  1  0.883003  0.383003  0.000000  1
  Cd  Cd4  1  0.383003  0.116997  0.000000  1
  Cd  Cd5  1  0.616997  0.883003  0.000000  1
  Rh  Rh6  1  0.318622  0.818622  0.756962  1
  Rh  Rh7  1  0.681378  0.181378  0.756962  1
  Rh  Rh8  1  0.181378  0.318622  0.756962  1
  Rh  Rh9  1  0.818622  0.681378  0.756962  1
  Rh  Rh10  1  0.681378  0.181378  0.243038  1
  Rh  Rh11  1  0.318622  0.818622  0.243038  1
  Rh  Rh12  1  0.818622  0.681378  0.243038  1
  Rh  Rh13  1  0.181378  0.318622  0.243038  1
  Rh  Rh14  1  0.557957  0.705653  0.500000  1
  Rh  Rh15  1  0.442043  0.294347  0.500000  1
  Rh  Rh16  1  0.942043  0.205653  0.500000  1
  Rh  Rh17  1  0.057957  0.794347  0.500000  1
  Rh  Rh18  1  0.705653  0.442043  0.500000  1
  Rh  Rh19  1  0.294347  0.557957  0.500000  1
  Rh  Rh20  1  0.205653  0.057957  0.500000  1
  Rh  Rh21  1  0.794347  0.942043  0.500000  1
  Rh  Rh22  1  0.000000  0.500000  0.500000  1
  Rh  Rh23  1  0.500000  0.000000  0.500000  1
