# generated using pymatgen
data_KLaPPt8
_symmetry_space_group_name_H-M   'P 1'
_cell_length_a   9.30141946
_cell_length_b   9.34690196
_cell_length_c   4.28213100
_cell_angle_alpha   90.00000000
_cell_angle_beta   90.00000000
_cell_angle_gamma   145.64807233
_symmetry_Int_Tables_number   1
_chemical_formula_structural   KLaPPt8
_chemical_formula_sum   'K1 La1 P1 Pt8'
_cell_volume   210.07158148
_cell_formula_units_Z   1
loop_
 _symmetry_equiv_pos_site_id
 _symmetry_equiv_pos_as_xyz
  1  'x, y, z'
loop_
 _atom_site_type_symbol
 _atom_site_label
 _atom_site_symmetry_multiplicity
 _atom_site_fract_x
 _atom_site_fract_y
 _atom_site_fract_z
 _atom_site_occupancy
  K  K0  1  0.613345  0.375417  0.500000  1
  La  La1  1  0.372329  0.622404  0.500000  1
  P  P2  1  0.219695  0.214630  0.000000  1
  Pt  Pt3  1  0.108706  0.887456  0.000000  1
  Pt  Pt4  1  0.894154  0.110704  0.000000  1
  Pt  Pt5  1  0.493396  0.983756  0.000000  1
  Pt  Pt6  1  0.995625  0.490968  0.000000  1
  Pt  Pt7  1  0.194856  0.790590  0.500000  1
  Pt  Pt8  1  0.793636  0.194690  0.500000  1
  Pt  Pt9  1  0.010475  0.011807  0.500000  1
  Pt  Pt10  1  0.617381  0.631175  0.000000  1
