# generated using pymatgen
data_Tb12Y4MgNi4Ag3
_symmetry_space_group_name_H-M   'P 1'
_cell_length_a   9.51876043
_cell_length_b   9.52136934
_cell_length_c   9.51001100
_cell_angle_alpha   60.03945748
_cell_angle_beta   60.03040497
_cell_angle_gamma   60.07303085
_symmetry_Int_Tables_number   1
_chemical_formula_structural   Tb12Y4MgNi4Ag3
_chemical_formula_sum   'Tb12 Y4 Mg1 Ni4 Ag3'
_cell_volume   610.11865531
_cell_formula_units_Z   1
loop_
 _symmetry_equiv_pos_site_id
 _symmetry_equiv_pos_as_xyz
  1  'x, y, z'
loop_
 _atom_site_type_symbol
 _atom_site_label
 _atom_site_symmetry_multiplicity
 _atom_site_fract_x
 _atom_site_fract_y
 _atom_site_fract_z
 _atom_site_occupancy
  Tb  Tb0  1  0.813442  0.815267  0.185645  1
  Tb  Tb1  1  0.184155  0.186620  0.814612  1
  Tb  Tb2  1  0.059288  0.440098  0.440863  1
  Tb  Tb3  1  0.436880  0.062595  0.062186  1
  Tb  Tb4  1  0.436880  0.062595  0.438339  1
  Tb  Tb5  1  0.059288  0.440098  0.059752  1
  Tb  Tb6  1  0.437483  0.438333  0.062092  1
  Tb  Tb7  1  0.059200  0.060476  0.440162  1
  Tb  Tb8  1  0.598084  0.597723  0.596172  1
  Tb  Tb9  1  0.598084  0.597723  0.208020  1
  Tb  Tb10  1  0.600134  0.204130  0.597868  1
  Tb  Tb11  1  0.192942  0.603431  0.601812  1
  Y  Y12  1  0.183929  0.815412  0.814818  1
  Y  Y13  1  0.813424  0.185846  0.185574  1
  Y  Y14  1  0.813424  0.185846  0.815157  1
  Y  Y15  1  0.183929  0.815412  0.185840  1
  Mg  Mg16  1  0.537865  0.819898  0.821119  1
  Ni  Ni17  1  0.390665  0.394066  0.394310  1
  Ni  Ni18  1  0.390665  0.394066  0.820961  1
  Ni  Ni19  1  0.389309  0.822031  0.394331  1
  Ni  Ni20  1  0.821917  0.391796  0.393144  1
  Ag  Ag21  1  0.832873  0.833800  0.833859  1
  Ag  Ag22  1  0.832873  0.833800  0.499470  1
  Ag  Ag23  1  0.833269  0.498938  0.833897  1
