# generated using pymatgen
data_Tb2YIn3Ni2Pd
_symmetry_space_group_name_H-M   'P 1'
_cell_length_a   7.66836889
_cell_length_b   7.66989316
_cell_length_c   3.72802700
_cell_angle_alpha   90.00000000
_cell_angle_beta   90.00000000
_cell_angle_gamma   120.07394340
_symmetry_Int_Tables_number   1
_chemical_formula_structural   Tb2YIn3Ni2Pd
_chemical_formula_sum   'Tb2 Y1 In3 Ni2 Pd1'
_cell_volume   189.74830962
_cell_formula_units_Z   1
loop_
 _symmetry_equiv_pos_site_id
 _symmetry_equiv_pos_as_xyz
  1  'x, y, z'
loop_
 _atom_site_type_symbol
 _atom_site_label
 _atom_site_symmetry_multiplicity
 _atom_site_fract_x
 _atom_site_fract_y
 _atom_site_fract_z
 _atom_site_occupancy
  Tb  Tb0  1  0.009872  0.594887  0.500000  1
  Tb  Tb1  1  0.585453  0.990658  0.500000  1
  Y  Y2  1  0.404649  0.414257  0.500000  1
  In  In3  1  0.002521  0.254822  0.000000  1
  In  In4  1  0.253172  0.999073  0.000000  1
  In  In5  1  0.744762  0.746502  0.000000  1
  Ni  Ni6  1  0.999173  0.999076  0.500000  1
  Ni  Ni7  1  0.332905  0.667585  0.000000  1
  Pd  Pd8  1  0.667493  0.333140  0.000000  1
