# generated using pymatgen
data_Tb9Nd2Y9(CoSb2)4
_symmetry_space_group_name_H-M   'P 1'
_cell_length_a   7.99941242
_cell_length_b   8.76675000
_cell_length_c   12.26363028
_cell_angle_alpha   90.00000000
_cell_angle_beta   90.05680729
_cell_angle_gamma   90.00000000
_symmetry_Int_Tables_number   1
_chemical_formula_structural   Tb9Nd2Y9(CoSb2)4
_chemical_formula_sum   'Tb9 Nd2 Y9 Co4 Sb8'
_cell_volume   860.03385100
_cell_formula_units_Z   1
loop_
 _symmetry_equiv_pos_site_id
 _symmetry_equiv_pos_as_xyz
  1  'x, y, z'
loop_
 _atom_site_type_symbol
 _atom_site_label
 _atom_site_symmetry_multiplicity
 _atom_site_fract_x
 _atom_site_fract_y
 _atom_site_fract_z
 _atom_site_occupancy
  Tb  Tb0  1  0.877449  0.750000  0.805858  1
  Tb  Tb1  1  0.821130  0.964127  0.064210  1
  Tb  Tb2  1  0.321875  0.032492  0.433923  1
  Tb  Tb3  1  0.178293  0.466972  0.933948  1
  Tb  Tb4  1  0.678845  0.536205  0.564450  1
  Tb  Tb5  1  0.178293  0.033028  0.933948  1
  Tb  Tb6  1  0.678845  0.963795  0.564450  1
  Tb  Tb7  1  0.821130  0.535873  0.064210  1
  Tb  Tb8  1  0.321875  0.467508  0.433923  1
  Nd  Nd9  1  0.124774  0.250000  0.195686  1
  Nd  Nd10  1  0.375429  0.250000  0.695417  1
  Y  Y11  1  0.155292  0.750000  0.203663  1
  Y  Y12  1  0.654638  0.250000  0.296908  1
  Y  Y13  1  0.845033  0.250000  0.796626  1
  Y  Y14  1  0.344324  0.750000  0.704022  1
  Y  Y15  1  0.456365  0.750000  0.998495  1
  Y  Y16  1  0.953746  0.250000  0.502091  1
  Y  Y17  1  0.545962  0.250000  0.002133  1
  Y  Y18  1  0.043944  0.750000  0.498465  1
  Y  Y19  1  0.623044  0.750000  0.305474  1
  Co  Co20  1  0.435792  0.750000  0.490217  1
  Co  Co21  1  0.934878  0.250000  0.008894  1
  Co  Co22  1  0.565236  0.250000  0.508806  1
  Co  Co23  1  0.063637  0.750000  0.989470  1
  Sb  Sb24  1  0.925223  0.989426  0.328404  1
  Sb  Sb25  1  0.432144  0.005917  0.172741  1
  Sb  Sb26  1  0.068113  0.493686  0.672604  1
  Sb  Sb27  1  0.574607  0.510351  0.828609  1
  Sb  Sb28  1  0.068113  0.006314  0.672604  1
  Sb  Sb29  1  0.574607  0.989649  0.828609  1
  Sb  Sb30  1  0.925223  0.510574  0.328404  1
  Sb  Sb31  1  0.432144  0.494083  0.172741  1
