# generated using pymatgen
data_CaScGa9Ru5
_symmetry_space_group_name_H-M   'P 1'
_cell_length_a   7.96487900
_cell_length_b   7.96487766
_cell_length_c   7.96487841
_cell_angle_alpha   134.74606789
_cell_angle_beta   134.10500232
_cell_angle_gamma   66.42548011
_symmetry_Int_Tables_number   1
_chemical_formula_structural   CaScGa9Ru5
_chemical_formula_sum   'Ca1 Sc1 Ga9 Ru5'
_cell_volume   253.64860992
_cell_formula_units_Z   1
loop_
 _symmetry_equiv_pos_site_id
 _symmetry_equiv_pos_as_xyz
  1  'x, y, z'
loop_
 _atom_site_type_symbol
 _atom_site_label
 _atom_site_symmetry_multiplicity
 _atom_site_fract_x
 _atom_site_fract_y
 _atom_site_fract_z
 _atom_site_occupancy
  Ca  Ca0  1  0.000000  0.500000  0.500000  1
  Sc  Sc1  1  0.500000  0.000000  0.500000  1
  Ga  Ga2  1  0.435582  0.858921  0.003341  1
  Ga  Ga3  1  0.144420  0.141079  0.576661  1
  Ga  Ga4  1  0.855580  0.432242  0.996659  1
  Ga  Ga5  1  0.855580  0.858921  0.423339  1
  Ga  Ga6  1  0.564418  0.141079  0.996659  1
  Ga  Ga7  1  0.144420  0.567758  0.003341  1
  Ga  Ga8  1  0.564418  0.567758  0.423339  1
  Ga  Ga9  1  0.000000  0.000000  0.000000  1
  Ga  Ga10  1  0.435582  0.432242  0.576661  1
  Ru  Ru11  1  0.183246  0.183246  0.000000  1
  Ru  Ru12  1  0.816754  0.816754  0.000000  1
  Ru  Ru13  1  0.249490  0.749490  0.500000  1
  Ru  Ru14  1  0.750510  0.250510  0.500000  1
  Ru  Ru15  1  0.500000  0.500000  0.000000  1
