# generated using pymatgen
data_Dy3Y17(Ir3Rh)3
_symmetry_space_group_name_H-M   'P 1'
_cell_length_a   10.91771500
_cell_length_b   10.91827900
_cell_length_c   6.40515400
_cell_angle_alpha   90.00000000
_cell_angle_beta   90.00000000
_cell_angle_gamma   90.00093411
_symmetry_Int_Tables_number   1
_chemical_formula_structural   Dy3Y17(Ir3Rh)3
_chemical_formula_sum   'Dy3 Y17 Ir9 Rh3'
_cell_volume   763.51138429
_cell_formula_units_Z   1
loop_
 _symmetry_equiv_pos_site_id
 _symmetry_equiv_pos_as_xyz
  1  'x, y, z'
loop_
 _atom_site_type_symbol
 _atom_site_label
 _atom_site_symmetry_multiplicity
 _atom_site_fract_x
 _atom_site_fract_y
 _atom_site_fract_z
 _atom_site_occupancy
  Dy  Dy0  1  0.000000  0.000000  0.000060  1
  Dy  Dy1  1  0.500000  0.500000  0.000051  1
  Dy  Dy2  1  0.500000  0.500000  0.500277  1
  Y  Y3  1  0.290515  0.088836  0.379822  1
  Y  Y4  1  0.290357  0.910810  0.879605  1
  Y  Y5  1  0.709643  0.089190  0.879605  1
  Y  Y6  1  0.709485  0.911164  0.379822  1
  Y  Y7  1  0.589184  0.790382  0.879625  1
  Y  Y8  1  0.588816  0.209514  0.379812  1
  Y  Y9  1  0.411184  0.790486  0.379812  1
  Y  Y10  1  0.410816  0.209618  0.879625  1
  Y  Y11  1  0.208787  0.411157  0.619139  1
  Y  Y12  1  0.209174  0.589077  0.121543  1
  Y  Y13  1  0.790826  0.410923  0.121543  1
  Y  Y14  1  0.791213  0.588843  0.619139  1
  Y  Y15  1  0.910914  0.709199  0.121583  1
  Y  Y16  1  0.911131  0.291231  0.619137  1
  Y  Y17  1  0.088869  0.708769  0.619137  1
  Y  Y18  1  0.089086  0.290801  0.121583  1
  Y  Y19  1  0.000000  0.000000  0.500279  1
  Ir  Ir20  1  0.845791  0.153022  0.249318  1
  Ir  Ir21  1  0.845997  0.846588  0.750349  1
  Ir  Ir22  1  0.154003  0.153412  0.750349  1
  Ir  Ir23  1  0.154209  0.846978  0.249318  1
  Ir  Ir24  1  0.653193  0.346253  0.749881  1
  Ir  Ir25  1  0.652774  0.653978  0.249796  1
  Ir  Ir26  1  0.347226  0.346022  0.249796  1
  Ir  Ir27  1  0.346807  0.653747  0.749881  1
  Ir  Ir28  1  0.000000  0.500000  0.374733  1
  Rh  Rh29  1  0.500000  0.000000  0.124723  1
  Rh  Rh30  1  0.500000  0.000000  0.625006  1
  Rh  Rh31  1  0.000000  0.500000  0.875648  1
