# generated using pymatgen
data_ZrSc5(SiOs)6
_symmetry_space_group_name_H-M   'P 1'
_cell_length_a   7.67970024
_cell_length_b   7.68082536
_cell_length_c   7.67970072
_cell_angle_alpha   126.92789907
_cell_angle_beta   126.49753249
_cell_angle_gamma   78.71687921
_symmetry_Int_Tables_number   1
_chemical_formula_structural   ZrSc5(SiOs)6
_chemical_formula_sum   'Zr1 Sc5 Si6 Os6'
_cell_volume   281.73832952
_cell_formula_units_Z   1
loop_
 _symmetry_equiv_pos_site_id
 _symmetry_equiv_pos_as_xyz
  1  'x, y, z'
loop_
 _atom_site_type_symbol
 _atom_site_label
 _atom_site_symmetry_multiplicity
 _atom_site_fract_x
 _atom_site_fract_y
 _atom_site_fract_z
 _atom_site_occupancy
  Zr  Zr0  1  0.750066  0.595255  0.345190  1
  Sc  Sc1  1  0.452825  0.407558  0.454733  1
  Sc  Sc2  1  0.548044  0.006282  0.958239  1
  Sc  Sc3  1  0.046876  0.001912  0.455036  1
  Sc  Sc4  1  0.952231  0.410741  0.958511  1
  Sc  Sc5  1  0.249901  0.596315  0.846414  1
  Si  Si6  1  0.249750  0.001308  0.251558  1
  Si  Si7  1  0.750297  0.006471  0.756174  1
  Si  Si8  1  0.170380  0.671406  0.505605  1
  Si  Si9  1  0.833829  0.335184  0.505165  1
  Si  Si10  1  0.665801  0.671406  0.001026  1
  Si  Si11  1  0.330020  0.335184  0.001355  1
  Os  Os12  1  0.001858  0.255949  0.257827  1
  Os  Os13  1  0.498123  0.255949  0.754091  1
  Os  Os14  1  0.374900  0.751166  0.377286  1
  Os  Os15  1  0.625483  0.002372  0.376634  1
  Os  Os16  1  0.873879  0.751166  0.876266  1
  Os  Os17  1  0.125738  0.002372  0.876889  1
