# generated using pymatgen
data_Ho4Pd3PtPb2
_symmetry_space_group_name_H-M   'P 1'
_cell_length_a   7.94930700
_cell_length_b   7.94930700
_cell_length_c   3.57785400
_cell_angle_alpha   90.00000000
_cell_angle_beta   90.00000000
_cell_angle_gamma   89.99822692
_symmetry_Int_Tables_number   1
_chemical_formula_structural   Ho4Pd3PtPb2
_chemical_formula_sum   'Ho4 Pd3 Pt1 Pb2'
_cell_volume   226.08989580
_cell_formula_units_Z   1
loop_
 _symmetry_equiv_pos_site_id
 _symmetry_equiv_pos_as_xyz
  1  'x, y, z'
loop_
 _atom_site_type_symbol
 _atom_site_label
 _atom_site_symmetry_multiplicity
 _atom_site_fract_x
 _atom_site_fract_y
 _atom_site_fract_z
 _atom_site_occupancy
  Ho  Ho0  1  0.662274  0.171784  0.500000  1
  Ho  Ho1  1  0.174413  0.325587  0.500000  1
  Ho  Ho2  1  0.832357  0.667643  0.500000  1
  Ho  Ho3  1  0.328216  0.837726  0.500000  1
  Pd  Pd4  1  0.126703  0.624592  0.000000  1
  Pd  Pd5  1  0.630162  0.869838  0.000000  1
  Pd  Pd6  1  0.875408  0.373297  0.000000  1
  Pt  Pt7  1  0.377245  0.122755  0.000000  1
  Pb  Pb8  1  0.993576  0.000354  0.000000  1
  Pb  Pb9  1  0.499646  0.506424  0.000000  1
