# generated using pymatgen
data_Ti4Re16Tc8Sn
_symmetry_space_group_name_H-M   'P 1'
_cell_length_a   8.37889970
_cell_length_b   8.37357811
_cell_length_c   8.37168513
_cell_angle_alpha   109.48167579
_cell_angle_beta   109.49610658
_cell_angle_gamma   109.53195242
_symmetry_Int_Tables_number   1
_chemical_formula_structural   Ti4Re16Tc8Sn
_chemical_formula_sum   'Ti4 Re16 Tc8 Sn1'
_cell_volume   451.61982305
_cell_formula_units_Z   1
loop_
 _symmetry_equiv_pos_site_id
 _symmetry_equiv_pos_as_xyz
  1  'x, y, z'
loop_
 _atom_site_type_symbol
 _atom_site_label
 _atom_site_symmetry_multiplicity
 _atom_site_fract_x
 _atom_site_fract_y
 _atom_site_fract_z
 _atom_site_occupancy
  Ti  Ti0  1  0.630965  0.000069  0.000050  1
  Ti  Ti1  1  0.999929  0.630931  0.999994  1
  Ti  Ti2  1  0.000636  0.000097  0.631362  1
  Ti  Ti3  1  0.368320  0.368455  0.368443  1
  Re  Re4  1  0.680616  0.000313  0.398561  1
  Re  Re5  1  0.601749  0.601492  0.281800  1
  Re  Re6  1  0.282035  0.601794  0.601737  1
  Re  Re7  1  0.601905  0.282045  0.601804  1
  Re  Re8  1  0.377480  0.195182  0.000204  1
  Re  Re9  1  0.182390  0.805054  0.804941  1
  Re  Re10  1  0.376874  0.000451  0.195079  1
  Re  Re11  1  0.194990  0.377548  0.000572  1
  Re  Re12  1  0.000376  0.377807  0.195170  1
  Re  Re13  1  0.805128  0.182230  0.804850  1
  Re  Re14  1  0.805236  0.805013  0.182513  1
  Re  Re15  1  0.000738  0.195196  0.377743  1
  Re  Re16  1  0.194890  0.000404  0.377747  1
  Re  Re17  1  0.622000  0.622033  0.816365  1
  Re  Re18  1  0.816493  0.622275  0.622271  1
  Re  Re19  1  0.622514  0.816765  0.622306  1
  Tc  Tc20  1  0.398352  0.680815  0.000051  1
  Tc  Tc21  1  0.718008  0.319082  0.318813  1
  Tc  Tc22  1  0.398425  0.000288  0.681033  1
  Tc  Tc23  1  0.680874  0.398320  0.000344  1
  Tc  Tc24  1  0.000596  0.398731  0.680914  1
  Tc  Tc25  1  0.319157  0.718028  0.319186  1
  Tc  Tc26  1  0.319237  0.319139  0.718006  1
  Tc  Tc27  1  0.000270  0.680662  0.398273  1
  Sn  Sn28  1  0.999817  0.999781  0.999867  1
