# generated using pymatgen
data_Nd6MgCd22As
_symmetry_space_group_name_H-M   'P 1'
_cell_length_a   10.06949980
_cell_length_b   10.06950045
_cell_length_c   10.06949800
_cell_angle_alpha   59.99999490
_cell_angle_beta   59.99999279
_cell_angle_gamma   59.99999162
_symmetry_Int_Tables_number   1
_chemical_formula_structural   Nd6MgCd22As
_chemical_formula_sum   'Nd6 Mg1 Cd22 As1'
_cell_volume   721.95242188
_cell_formula_units_Z   1
loop_
 _symmetry_equiv_pos_site_id
 _symmetry_equiv_pos_as_xyz
  1  'x, y, z'
loop_
 _atom_site_type_symbol
 _atom_site_label
 _atom_site_symmetry_multiplicity
 _atom_site_fract_x
 _atom_site_fract_y
 _atom_site_fract_z
 _atom_site_occupancy
  Nd  Nd0  1  0.791777  0.791777  0.208223  1
  Nd  Nd1  1  0.208223  0.791777  0.208223  1
  Nd  Nd2  1  0.791777  0.208223  0.208223  1
  Nd  Nd3  1  0.208223  0.208223  0.791777  1
  Nd  Nd4  1  0.791777  0.208223  0.791777  1
  Nd  Nd5  1  0.208223  0.791777  0.791777  1
  Mg  Mg6  1  0.500000  0.500000  0.500000  1
  Cd  Cd7  1  0.833081  0.833081  0.500755  1
  Cd  Cd8  1  0.833081  0.500755  0.833081  1
  Cd  Cd9  1  0.500755  0.833081  0.833081  1
  Cd  Cd10  1  0.833081  0.833081  0.833081  1
  Cd  Cd11  1  0.166919  0.166919  0.499245  1
  Cd  Cd12  1  0.166919  0.499245  0.166919  1
  Cd  Cd13  1  0.499245  0.166919  0.166919  1
  Cd  Cd14  1  0.166919  0.166919  0.166919  1
  Cd  Cd15  1  0.620851  0.620851  0.137447  1
  Cd  Cd16  1  0.620851  0.137447  0.620851  1
  Cd  Cd17  1  0.137447  0.620851  0.620851  1
  Cd  Cd18  1  0.620851  0.620851  0.620851  1
  Cd  Cd19  1  0.379149  0.379149  0.862553  1
  Cd  Cd20  1  0.379149  0.862553  0.379149  1
  Cd  Cd21  1  0.862553  0.379149  0.379149  1
  Cd  Cd22  1  0.379149  0.379149  0.379149  1
  Cd  Cd23  1  0.000000  0.000000  0.500000  1
  Cd  Cd24  1  0.500000  0.000000  0.500000  1
  Cd  Cd25  1  0.000000  0.500000  0.500000  1
  Cd  Cd26  1  0.500000  0.500000  0.000000  1
  Cd  Cd27  1  0.000000  0.500000  0.000000  1
  Cd  Cd28  1  0.500000  0.000000  0.000000  1
  As  As29  1  0.000000  0.000000  0.000000  1
