# generated using pymatgen
data_Dy6TlGaSi
_symmetry_space_group_name_H-M   'P 1'
_cell_length_a   8.58558885
_cell_length_b   8.58558918
_cell_length_c   8.58558900
_cell_angle_alpha   111.57709711
_cell_angle_beta   111.68530799
_cell_angle_gamma   105.23262517
_symmetry_Int_Tables_number   1
_chemical_formula_structural   Dy6TlGaSi
_chemical_formula_sum   'Dy12 Tl2 Ga2 Si2'
_cell_volume   485.19808448
_cell_formula_units_Z   2
loop_
 _symmetry_equiv_pos_site_id
 _symmetry_equiv_pos_as_xyz
  1  'x, y, z'
loop_
 _atom_site_type_symbol
 _atom_site_label
 _atom_site_symmetry_multiplicity
 _atom_site_fract_x
 _atom_site_fract_y
 _atom_site_fract_z
 _atom_site_occupancy
  Dy  Dy0  1  0.444893  0.241331  0.203562  1
  Dy  Dy1  1  0.555107  0.758669  0.796438  1
  Dy  Dy2  1  0.037768  0.241331  0.796438  1
  Dy  Dy3  1  0.962232  0.758669  0.203562  1
  Dy  Dy4  1  0.183751  0.279290  0.463041  1
  Dy  Dy5  1  0.816249  0.720710  0.536959  1
  Dy  Dy6  1  0.183751  0.720710  0.904461  1
  Dy  Dy7  1  0.816249  0.279290  0.095539  1
  Dy  Dy8  1  0.318640  0.613756  0.295116  1
  Dy  Dy9  1  0.681360  0.386244  0.704884  1
  Dy  Dy10  1  0.318640  0.023525  0.704884  1
  Dy  Dy11  1  0.681360  0.976475  0.295116  1
  Tl  Tl12  1  0.500000  0.500000  0.000000  1
  Tl  Tl13  1  0.000000  0.000000  0.000000  1
  Ga  Ga14  1  0.355743  0.000000  0.355743  1
  Ga  Ga15  1  0.644257  0.000000  0.644257  1
  Si  Si16  1  0.116031  0.616031  0.500000  1
  Si  Si17  1  0.883969  0.383969  0.500000  1
