# generated using pymatgen
data_NaIrCl6
_symmetry_space_group_name_H-M   'P 1'
_cell_length_a   6.95817400
_cell_length_b   6.57881680
_cell_length_c   19.21892208
_cell_angle_alpha   88.95479932
_cell_angle_beta   90.00000000
_cell_angle_gamma   90.00000000
_symmetry_Int_Tables_number   1
_chemical_formula_structural   NaIrCl6
_chemical_formula_sum   'Na4 Ir4 Cl24'
_cell_volume   879.62960540
_cell_formula_units_Z   4
loop_
 _symmetry_equiv_pos_site_id
 _symmetry_equiv_pos_as_xyz
  1  'x, y, z'
loop_
 _atom_site_type_symbol
 _atom_site_label
 _atom_site_symmetry_multiplicity
 _atom_site_fract_x
 _atom_site_fract_y
 _atom_site_fract_z
 _atom_site_occupancy
  Na  Na0  1  0.810218  0.211512  0.745977  1
  Na  Na1  1  0.310218  0.788488  0.754023  1
  Na  Na2  1  0.189782  0.788488  0.254023  1
  Na  Na3  1  0.689782  0.211512  0.245977  1
  Ir  Ir4  1  0.716625  0.746545  0.619406  1
  Ir  Ir5  1  0.216625  0.253455  0.880594  1
  Ir  Ir6  1  0.283375  0.253455  0.380594  1
  Ir  Ir7  1  0.783375  0.746545  0.119406  1
  Cl  Cl8  1  0.815070  0.622670  0.236288  1
  Cl  Cl9  1  0.315070  0.377330  0.263712  1
  Cl  Cl10  1  0.184930  0.377330  0.763712  1
  Cl  Cl11  1  0.684930  0.622670  0.736288  1
  Cl  Cl12  1  0.606326  0.463147  0.093836  1
  Cl  Cl13  1  0.106326  0.536853  0.406164  1
  Cl  Cl14  1  0.393674  0.536853  0.906164  1
  Cl  Cl15  1  0.893674  0.463147  0.593836  1
  Cl  Cl16  1  0.501372  0.917232  0.154158  1
  Cl  Cl17  1  0.001372  0.082768  0.345842  1
  Cl  Cl18  1  0.498628  0.082768  0.845842  1
  Cl  Cl19  1  0.998628  0.917232  0.654158  1
  Cl  Cl20  1  0.749060  0.881075  0.010721  1
  Cl  Cl21  1  0.249060  0.118925  0.489279  1
  Cl  Cl22  1  0.250940  0.118925  0.989279  1
  Cl  Cl23  1  0.750940  0.881075  0.510721  1
  Cl  Cl24  1  0.962543  0.033531  0.153519  1
  Cl  Cl25  1  0.462543  0.966469  0.346481  1
  Cl  Cl26  1  0.037457  0.966469  0.846481  1
  Cl  Cl27  1  0.537457  0.033531  0.653519  1
  Cl  Cl28  1  0.064279  0.588027  0.090799  1
  Cl  Cl29  1  0.564279  0.411973  0.409201  1
  Cl  Cl30  1  0.935721  0.411973  0.909201  1
  Cl  Cl31  1  0.435721  0.588027  0.590799  1
