# generated using pymatgen
data_Tm10GaSi4Sb
_symmetry_space_group_name_H-M   'P 1'
_cell_length_a   8.43742910
_cell_length_b   8.43742694
_cell_length_c   6.29870000
_cell_angle_alpha   90.00000000
_cell_angle_beta   90.00000000
_cell_angle_gamma   120.30074819
_symmetry_Int_Tables_number   1
_chemical_formula_structural   Tm10GaSi4Sb
_chemical_formula_sum   'Tm10 Ga1 Si4 Sb1'
_cell_volume   387.14849752
_cell_formula_units_Z   1
loop_
 _symmetry_equiv_pos_site_id
 _symmetry_equiv_pos_as_xyz
  1  'x, y, z'
loop_
 _atom_site_type_symbol
 _atom_site_label
 _atom_site_symmetry_multiplicity
 _atom_site_fract_x
 _atom_site_fract_y
 _atom_site_fract_z
 _atom_site_occupancy
  Tm  Tm0  1  0.675301  0.330662  0.503329  1
  Tm  Tm1  1  0.330662  0.675301  0.503329  1
  Tm  Tm2  1  0.330662  0.675301  0.996671  1
  Tm  Tm3  1  0.675301  0.330662  0.996671  1
  Tm  Tm4  1  0.767147  0.767147  0.250000  1
  Tm  Tm5  1  0.239750  0.987527  0.250000  1
  Tm  Tm6  1  0.987527  0.239750  0.250000  1
  Tm  Tm7  1  0.238525  0.238525  0.750000  1
  Tm  Tm8  1  0.756778  0.000196  0.750000  1
  Tm  Tm9  1  0.000196  0.756778  0.750000  1
  Ga  Ga10  1  0.604567  0.604567  0.750000  1
  Si  Si11  1  0.604137  0.999013  0.250000  1
  Si  Si12  1  0.999013  0.604137  0.250000  1
  Si  Si13  1  0.393844  0.002671  0.750000  1
  Si  Si14  1  0.002671  0.393844  0.750000  1
  Sb  Sb15  1  0.393915  0.393915  0.250000  1
