# generated using pymatgen
data_KCu4(PO5)2
_symmetry_space_group_name_H-M   'P 1'
_cell_length_a   5.94806850
_cell_length_b   6.05517742
_cell_length_c   8.11665169
_cell_angle_alpha   108.32940758
_cell_angle_beta   79.44613882
_cell_angle_gamma   119.90231250
_symmetry_Int_Tables_number   1
_chemical_formula_structural   KCu4(PO5)2
_chemical_formula_sum   'K1 Cu4 P2 O10'
_cell_volume   240.43671601
_cell_formula_units_Z   1
loop_
 _symmetry_equiv_pos_site_id
 _symmetry_equiv_pos_as_xyz
  1  'x, y, z'
loop_
 _atom_site_type_symbol
 _atom_site_label
 _atom_site_symmetry_multiplicity
 _atom_site_fract_x
 _atom_site_fract_y
 _atom_site_fract_z
 _atom_site_occupancy
  K  K0  1  0.000000  0.000000  0.000000  1
  Cu  Cu1  1  0.281720  0.662468  0.016093  1
  Cu  Cu2  1  0.718280  0.337532  0.983907  1
  Cu  Cu3  1  0.914890  0.716838  0.385798  1
  Cu  Cu4  1  0.085110  0.283162  0.614202  1
  P  P5  1  0.536822  0.828327  0.706972  1
  P  P6  1  0.463178  0.171673  0.293028  1
  O  O7  1  0.973158  0.590329  0.147305  1
  O  O8  1  0.026842  0.409671  0.852695  1
  O  O9  1  0.491982  0.071254  0.800051  1
  O  O10  1  0.508018  0.928746  0.199949  1
  O  O11  1  0.557334  0.707184  0.844217  1
  O  O12  1  0.442666  0.292816  0.155783  1
  O  O13  1  0.317357  0.625474  0.580422  1
  O  O14  1  0.193508  0.077985  0.395966  1
  O  O15  1  0.806492  0.922015  0.604034  1
  O  O16  1  0.682643  0.374526  0.419578  1
