# generated using pymatgen
data_Ta6Al16Co7
_symmetry_space_group_name_H-M   'P 1'
_cell_length_a   8.31842518
_cell_length_b   8.31870174
_cell_length_c   8.31840200
_cell_angle_alpha   60.00002625
_cell_angle_beta   59.99911799
_cell_angle_gamma   59.99901998
_symmetry_Int_Tables_number   1
_chemical_formula_structural   Ta6Al16Co7
_chemical_formula_sum   'Ta6 Al16 Co7'
_cell_volume   407.01981222
_cell_formula_units_Z   1
loop_
 _symmetry_equiv_pos_site_id
 _symmetry_equiv_pos_as_xyz
  1  'x, y, z'
loop_
 _atom_site_type_symbol
 _atom_site_label
 _atom_site_symmetry_multiplicity
 _atom_site_fract_x
 _atom_site_fract_y
 _atom_site_fract_z
 _atom_site_occupancy
  Ta  Ta0  1  0.684759  0.315236  0.315199  1
  Ta  Ta1  1  0.315241  0.684764  0.684801  1
  Ta  Ta2  1  0.315225  0.684754  0.315205  1
  Ta  Ta3  1  0.684775  0.315246  0.684795  1
  Ta  Ta4  1  0.315212  0.315228  0.684767  1
  Ta  Ta5  1  0.684788  0.684772  0.315233  1
  Al  Al6  1  0.335494  0.335537  0.335491  1
  Al  Al7  1  0.664506  0.664463  0.664509  1
  Al  Al8  1  0.335503  0.335524  0.993496  1
  Al  Al9  1  0.335503  0.993496  0.335504  1
  Al  Al10  1  0.664497  0.664476  0.006504  1
  Al  Al11  1  0.664497  0.006504  0.664496  1
  Al  Al12  1  0.993483  0.335527  0.335507  1
  Al  Al13  1  0.006517  0.664473  0.664493  1
  Al  Al14  1  0.118377  0.118389  0.118366  1
  Al  Al15  1  0.881623  0.881611  0.881634  1
  Al  Al16  1  0.118376  0.118393  0.644867  1
  Al  Al17  1  0.118393  0.644854  0.118379  1
  Al  Al18  1  0.881624  0.881607  0.355133  1
  Al  Al19  1  0.881607  0.355146  0.881621  1
  Al  Al20  1  0.644869  0.118397  0.118367  1
  Al  Al21  1  0.355131  0.881603  0.881633  1
  Co  Co22  1  0.500000  0.000000  0.000000  1
  Co  Co23  1  0.000000  0.500000  0.500000  1
  Co  Co24  1  0.000000  0.500000  0.000000  1
  Co  Co25  1  0.500000  0.000000  0.500000  1
  Co  Co26  1  0.000000  0.000000  0.500000  1
  Co  Co27  1  0.500000  0.500000  0.000000  1
  Co  Co28  1  0.000000  0.000000  0.000000  1
