# generated using pymatgen
data_Lu4ScBi(TeO6)3
_symmetry_space_group_name_H-M   'P 1'
_cell_length_a   9.05440248
_cell_length_b   9.05666050
_cell_length_c   5.11495110
_cell_angle_alpha   90.00000586
_cell_angle_beta   90.40343888
_cell_angle_gamma   120.00824733
_symmetry_Int_Tables_number   1
_chemical_formula_structural   Lu4ScBi(TeO6)3
_chemical_formula_sum   'Lu4 Sc1 Bi1 Te3 O18'
_cell_volume   363.20309872
_cell_formula_units_Z   1
loop_
 _symmetry_equiv_pos_site_id
 _symmetry_equiv_pos_as_xyz
  1  'x, y, z'
loop_
 _atom_site_type_symbol
 _atom_site_label
 _atom_site_symmetry_multiplicity
 _atom_site_fract_x
 _atom_site_fract_y
 _atom_site_fract_z
 _atom_site_occupancy
  Lu  Lu0  1  0.374473  0.376522  0.999263  1
  Lu  Lu1  1  0.285712  0.000443  0.498931  1
  Lu  Lu2  1  0.714288  0.714732  0.501069  1
  Lu  Lu3  1  0.625527  0.002051  0.000737  1
  Sc  Sc4  1  0.000000  0.291095  0.500000  1
  Bi  Bi5  1  0.000000  0.620638  0.000000  1
  Te  Te6  1  0.337141  0.664779  0.501502  1
  Te  Te7  1  0.000000  0.007685  0.000000  1
  Te  Te8  1  0.662859  0.327638  0.498498  1
  O  O9  1  0.082566  0.888863  0.781185  1
  O  O10  1  0.230989  0.767590  0.293409  1
  O  O11  1  0.132565  0.530773  0.705841  1
  O  O12  1  0.412011  0.866881  0.724009  1
  O  O13  1  0.234510  0.457059  0.283689  1
  O  O14  1  0.114984  0.209298  0.781243  1
  O  O15  1  0.208258  0.123642  0.206433  1
  O  O16  1  0.540659  0.775769  0.283783  1
  O  O17  1  0.461846  0.586528  0.717676  1
  O  O18  1  0.791742  0.915383  0.793567  1
  O  O19  1  0.459341  0.235111  0.716217  1
  O  O20  1  0.587989  0.454870  0.275991  1
  O  O21  1  0.538154  0.124682  0.282324  1
  O  O22  1  0.769011  0.536601  0.706591  1
  O  O23  1  0.917434  0.806297  0.218815  1
  O  O24  1  0.765490  0.222549  0.716311  1
  O  O25  1  0.867435  0.398208  0.294159  1
  O  O26  1  0.885016  0.094315  0.218757  1
