# generated using pymatgen
data_Ca7TaMn2N9
_symmetry_space_group_name_H-M   'P 1'
_cell_length_a   10.01569000
_cell_length_b   6.08543642
_cell_length_c   9.03681086
_cell_angle_alpha   87.91030816
_cell_angle_beta   90.00000000
_cell_angle_gamma   90.00000000
_symmetry_Int_Tables_number   1
_chemical_formula_structural   Ca7TaMn2N9
_chemical_formula_sum   'Ca14 Ta2 Mn4 N18'
_cell_volume   550.42592531
_cell_formula_units_Z   2
loop_
 _symmetry_equiv_pos_site_id
 _symmetry_equiv_pos_as_xyz
  1  'x, y, z'
loop_
 _atom_site_type_symbol
 _atom_site_label
 _atom_site_symmetry_multiplicity
 _atom_site_fract_x
 _atom_site_fract_y
 _atom_site_fract_z
 _atom_site_occupancy
  Ca  Ca0  1  0.934923  0.429207  0.162013  1
  Ca  Ca1  1  0.080925  0.246762  0.494048  1
  Ca  Ca2  1  0.250000  0.090937  0.804105  1
  Ca  Ca3  1  0.434923  0.570793  0.837987  1
  Ca  Ca4  1  0.580925  0.753238  0.505952  1
  Ca  Ca5  1  0.580125  0.065619  0.831545  1
  Ca  Ca6  1  0.919875  0.065619  0.831545  1
  Ca  Ca7  1  0.419875  0.934381  0.168455  1
  Ca  Ca8  1  0.419075  0.246762  0.494048  1
  Ca  Ca9  1  0.080125  0.934381  0.168455  1
  Ca  Ca10  1  0.919075  0.753238  0.505952  1
  Ca  Ca11  1  0.065077  0.570793  0.837987  1
  Ca  Ca12  1  0.750000  0.909063  0.195895  1
  Ca  Ca13  1  0.565077  0.429207  0.162013  1
  Ta  Ta14  1  0.750000  0.278965  0.439583  1
  Ta  Ta15  1  0.250000  0.721035  0.560417  1
  Mn  Mn16  1  0.250000  0.330369  0.068671  1
  Mn  Mn17  1  0.750000  0.457587  0.722095  1
  Mn  Mn18  1  0.750000  0.669631  0.931329  1
  Mn  Mn19  1  0.250000  0.542413  0.277905  1
  N  N20  1  0.404761  0.229835  0.979384  1
  N  N21  1  0.250000  0.237391  0.271139  1
  N  N22  1  0.901250  0.116597  0.344359  1
  N  N23  1  0.608438  0.363904  0.626594  1
  N  N24  1  0.750000  0.555226  0.332267  1
  N  N25  1  0.250000  0.638458  0.079496  1
  N  N26  1  0.891562  0.363904  0.626594  1
  N  N27  1  0.391562  0.636096  0.373406  1
  N  N28  1  0.750000  0.361542  0.920504  1
  N  N29  1  0.098750  0.883403  0.655641  1
  N  N30  1  0.750000  0.762609  0.728861  1
  N  N31  1  0.108438  0.636096  0.373406  1
  N  N32  1  0.595239  0.770165  0.020616  1
  N  N33  1  0.250000  0.444774  0.667733  1
  N  N34  1  0.401250  0.883403  0.655641  1
  N  N35  1  0.598750  0.116597  0.344359  1
  N  N36  1  0.095239  0.229835  0.979384  1
  N  N37  1  0.904761  0.770165  0.020616  1
