# generated using pymatgen
data_Tb3Y9InCo4Au
_symmetry_space_group_name_H-M   'P 1'
_cell_length_a   8.40043219
_cell_length_b   8.40329434
_cell_length_c   8.40043285
_cell_angle_alpha   111.15781960
_cell_angle_beta   110.37194397
_cell_angle_gamma   106.90147552
_symmetry_Int_Tables_number   1
_chemical_formula_structural   Tb3Y9InCo4Au
_chemical_formula_sum   'Tb3 Y9 In1 Co4 Au1'
_cell_volume   455.86077116
_cell_formula_units_Z   1
loop_
 _symmetry_equiv_pos_site_id
 _symmetry_equiv_pos_as_xyz
  1  'x, y, z'
loop_
 _atom_site_type_symbol
 _atom_site_label
 _atom_site_symmetry_multiplicity
 _atom_site_fract_x
 _atom_site_fract_y
 _atom_site_fract_z
 _atom_site_occupancy
  Tb  Tb0  1  0.683918  0.379088  0.695169  1
  Tb  Tb1  1  0.316084  0.010783  0.694699  1
  Tb  Tb2  1  0.683766  0.988610  0.304845  1
  Y  Y3  1  0.423632  0.220128  0.202976  1
  Y  Y4  1  0.576268  0.779618  0.796566  1
  Y  Y5  1  0.017150  0.220128  0.796496  1
  Y  Y6  1  0.983053  0.779618  0.203350  1
  Y  Y7  1  0.186287  0.292581  0.478668  1
  Y  Y8  1  0.813582  0.707430  0.521188  1
  Y  Y9  1  0.186243  0.707430  0.893847  1
  Y  Y10  1  0.813913  0.292581  0.106294  1
  Y  Y11  1  0.316137  0.620085  0.303949  1
  In  In12  1  0.499807  0.500075  0.000268  1
  Co  Co13  1  0.380176  0.000783  0.380514  1
  Co  Co14  1  0.620270  0.000783  0.620607  1
  Co  Co15  1  0.111229  0.611731  0.500502  1
  Co  Co16  1  0.888430  0.388381  0.499952  1
  Au  Au17  1  0.000056  0.000167  0.000111  1
