# generated using pymatgen
data_Hf3ZrI12
_symmetry_space_group_name_H-M   'P 1'
_cell_length_a   6.51729506
_cell_length_b   8.08862607
_cell_length_c   14.08520800
_cell_angle_alpha   90.00000000
_cell_angle_beta   90.00000000
_cell_angle_gamma   89.98496952
_symmetry_Int_Tables_number   1
_chemical_formula_structural   Hf3ZrI12
_chemical_formula_sum   'Hf3 Zr1 I12'
_cell_volume   742.51527391
_cell_formula_units_Z   1
loop_
 _symmetry_equiv_pos_site_id
 _symmetry_equiv_pos_as_xyz
  1  'x, y, z'
loop_
 _atom_site_type_symbol
 _atom_site_label
 _atom_site_symmetry_multiplicity
 _atom_site_fract_x
 _atom_site_fract_y
 _atom_site_fract_z
 _atom_site_occupancy
  Hf  Hf0  1  0.248571  0.752204  0.500000  1
  Hf  Hf1  1  0.751410  0.752206  0.500000  1
  Hf  Hf2  1  0.250470  0.247834  0.000000  1
  Zr  Zr3  1  0.749629  0.247792  0.000000  1
  I  I4  1  0.999974  0.603753  0.647889  1
  I  I5  1  0.999964  0.049273  0.500000  1
  I  I6  1  0.004385  0.098904  0.851304  1
  I  I7  1  0.004385  0.098904  0.148696  1
  I  I8  1  0.500025  0.899891  0.352460  1
  I  I9  1  0.495645  0.397049  0.148710  1
  I  I10  1  0.500024  0.456026  0.500000  1
  I  I11  1  0.500025  0.899891  0.647540  1
  I  I12  1  0.495645  0.397049  0.851290  1
  I  I13  1  0.495760  0.949163  0.000000  1
  I  I14  1  0.004115  0.546310  0.000000  1
  I  I15  1  0.999974  0.603753  0.352111  1
