# generated using pymatgen
data_Dy16Sc4Ir7Ru5
_symmetry_space_group_name_H-M   'P 1'
_cell_length_a   10.71743408
_cell_length_b   10.71743408
_cell_length_c   6.31376808
_cell_angle_alpha   89.98727557
_cell_angle_beta   89.98727557
_cell_angle_gamma   90.00651076
_symmetry_Int_Tables_number   1
_chemical_formula_structural   Dy16Sc4Ir7Ru5
_chemical_formula_sum   'Dy16 Sc4 Ir7 Ru5'
_cell_volume   725.22078568
_cell_formula_units_Z   1
loop_
 _symmetry_equiv_pos_site_id
 _symmetry_equiv_pos_as_xyz
  1  'x, y, z'
loop_
 _atom_site_type_symbol
 _atom_site_label
 _atom_site_symmetry_multiplicity
 _atom_site_fract_x
 _atom_site_fract_y
 _atom_site_fract_z
 _atom_site_occupancy
  Dy  Dy0  1  0.289932  0.085146  0.377654  1
  Dy  Dy1  1  0.289604  0.914863  0.877725  1
  Dy  Dy2  1  0.710885  0.085312  0.877967  1
  Dy  Dy3  1  0.710584  0.915051  0.376753  1
  Dy  Dy4  1  0.585116  0.790004  0.877566  1
  Dy  Dy5  1  0.585698  0.210173  0.377626  1
  Dy  Dy6  1  0.414812  0.790189  0.377749  1
  Dy  Dy7  1  0.414640  0.209896  0.877150  1
  Dy  Dy8  1  0.209996  0.414884  0.622434  1
  Dy  Dy9  1  0.209811  0.585188  0.122251  1
  Dy  Dy10  1  0.789827  0.414302  0.122374  1
  Dy  Dy11  1  0.790104  0.585360  0.622850  1
  Dy  Dy12  1  0.914854  0.710068  0.122346  1
  Dy  Dy13  1  0.914688  0.289115  0.622033  1
  Dy  Dy14  1  0.085137  0.710396  0.622275  1
  Dy  Dy15  1  0.084949  0.289416  0.123247  1
  Sc  Sc16  1  0.999431  0.000876  0.498500  1
  Sc  Sc17  1  0.999124  0.000569  0.001500  1
  Sc  Sc18  1  0.500040  0.500008  0.999887  1
  Sc  Sc19  1  0.499992  0.499960  0.500113  1
  Ir  Ir20  1  0.853135  0.852889  0.749828  1
  Ir  Ir21  1  0.147111  0.146865  0.750172  1
  Ir  Ir22  1  0.147107  0.852893  0.250000  1
  Ir  Ir23  1  0.646067  0.353933  0.750000  1
  Ir  Ir24  1  0.646671  0.646550  0.249885  1
  Ir  Ir25  1  0.353450  0.353329  0.250115  1
  Ir  Ir26  1  0.353546  0.646454  0.750000  1
  Ru  Ru27  1  0.853888  0.146112  0.250000  1
  Ru  Ru28  1  0.500166  0.000046  0.124163  1
  Ru  Ru29  1  0.499742  0.000061  0.624173  1
  Ru  Ru30  1  0.999939  0.500258  0.875827  1
  Ru  Ru31  1  0.999954  0.499834  0.375837  1
