# generated using pymatgen
data_Y4Al24NiPt8
_symmetry_space_group_name_H-M   'P 1'
_cell_length_a   7.50275189
_cell_length_b   7.51101636
_cell_length_c   13.15512481
_cell_angle_alpha   84.59288966
_cell_angle_beta   100.80745708
_cell_angle_gamma   119.73509362
_symmetry_Int_Tables_number   1
_chemical_formula_structural   Y4Al24NiPt8
_chemical_formula_sum   'Y4 Al24 Ni1 Pt8'
_cell_volume   632.30305932
_cell_formula_units_Z   1
loop_
 _symmetry_equiv_pos_site_id
 _symmetry_equiv_pos_as_xyz
  1  'x, y, z'
loop_
 _atom_site_type_symbol
 _atom_site_label
 _atom_site_symmetry_multiplicity
 _atom_site_fract_x
 _atom_site_fract_y
 _atom_site_fract_z
 _atom_site_occupancy
  Y  Y0  1  0.735397  0.000767  0.191471  1
  Y  Y1  1  0.268241  0.002946  0.808654  1
  Y  Y2  1  0.060106  0.668374  0.191234  1
  Y  Y3  1  0.936305  0.328128  0.808603  1
  Al  Al4  1  0.804810  0.865996  0.816112  1
  Al  Al5  1  0.194850  0.134049  0.183849  1
  Al  Al6  1  0.990972  0.665531  0.945634  1
  Al  Al7  1  0.024304  0.340269  0.053466  1
  Al  Al8  1  0.392977  0.662721  0.820792  1
  Al  Al9  1  0.600409  0.337306  0.182769  1
  Al  Al10  1  0.882508  0.664885  0.670296  1
  Al  Al11  1  0.118822  0.335889  0.330180  1
  Al  Al12  1  0.601938  0.459091  0.816870  1
  Al  Al13  1  0.396786  0.548482  0.179674  1
  Al  Al14  1  0.230430  0.340596  0.668869  1
  Al  Al15  1  0.768877  0.660159  0.331220  1
  Al  Al16  1  0.853759  0.333524  0.558760  1
  Al  Al17  1  0.186131  0.999299  0.558696  1
  Al  Al18  1  0.813419  0.000793  0.441344  1
  Al  Al19  1  0.352439  0.990504  0.054559  1
  Al  Al20  1  0.642041  0.993774  0.946481  1
  Al  Al21  1  0.555145  0.992356  0.669984  1
  Al  Al22  1  0.444002  0.006583  0.329411  1
  Al  Al23  1  0.521138  0.667271  0.561449  1
  Al  Al24  1  0.479082  0.332527  0.438579  1
  Al  Al25  1  0.677199  0.667368  0.043239  1
  Al  Al26  1  0.318086  0.336950  0.956459  1
  Al  Al27  1  0.146356  0.667112  0.441262  1
  Ni  Ni28  1  0.330469  0.669770  0.000034  1
  Pt  Pt29  1  0.546424  0.325068  0.637531  1
  Pt  Pt30  1  0.453402  0.674810  0.362447  1
  Pt  Pt31  1  0.887909  0.007649  0.638980  1
  Pt  Pt32  1  0.111960  0.992437  0.361019  1
  Pt  Pt33  1  0.672060  0.327587  0.999996  1
  Pt  Pt34  1  0.205333  0.666720  0.638917  1
  Pt  Pt35  1  0.795032  0.333569  0.361176  1
  Pt  Pt36  1  0.000883  0.999137  0.999982  1
