# generated using pymatgen
data_KNb5O8
_symmetry_space_group_name_H-M   'P 1'
_cell_length_a   6.68970700
_cell_length_b   6.68970700
_cell_length_c   4.14536800
_cell_angle_alpha   90.00000000
_cell_angle_beta   90.00000000
_cell_angle_gamma   90.00000000
_symmetry_Int_Tables_number   1
_chemical_formula_structural   KNb5O8
_chemical_formula_sum   'K1 Nb5 O8'
_cell_volume   185.51425385
_cell_formula_units_Z   1
loop_
 _symmetry_equiv_pos_site_id
 _symmetry_equiv_pos_as_xyz
  1  'x, y, z'
loop_
 _atom_site_type_symbol
 _atom_site_label
 _atom_site_symmetry_multiplicity
 _atom_site_fract_x
 _atom_site_fract_y
 _atom_site_fract_z
 _atom_site_occupancy
  K  K0  1  0.000000  0.000000  0.000000  1
  Nb  Nb1  1  0.392417  0.207126  0.500000  1
  Nb  Nb2  1  0.792874  0.392417  0.500000  1
  Nb  Nb3  1  0.500000  0.500000  0.000000  1
  Nb  Nb4  1  0.207126  0.607583  0.500000  1
  Nb  Nb5  1  0.607583  0.792874  0.500000  1
  O  O6  1  0.693181  0.100789  0.500000  1
  O  O7  1  0.388547  0.205420  0.000000  1
  O  O8  1  0.100789  0.306819  0.500000  1
  O  O9  1  0.794580  0.388547  0.000000  1
  O  O10  1  0.205420  0.611453  0.000000  1
  O  O11  1  0.899211  0.693181  0.500000  1
  O  O12  1  0.611453  0.794580  0.000000  1
  O  O13  1  0.306819  0.899211  0.500000  1
