# generated using pymatgen
data_Yb5HoCo10(P3Ir2)4
_symmetry_space_group_name_H-M   'P 1'
_cell_length_a   3.79161300
_cell_length_b   10.81888650
_cell_length_c   12.52388900
_cell_angle_alpha   89.96985042
_cell_angle_beta   90.00000000
_cell_angle_gamma   90.00000000
_symmetry_Int_Tables_number   1
_chemical_formula_structural   Yb5HoCo10(P3Ir2)4
_chemical_formula_sum   'Yb5 Ho1 Co10 P12 Ir8'
_cell_volume   513.74276391
_cell_formula_units_Z   1
loop_
 _symmetry_equiv_pos_site_id
 _symmetry_equiv_pos_as_xyz
  1  'x, y, z'
loop_
 _atom_site_type_symbol
 _atom_site_label
 _atom_site_symmetry_multiplicity
 _atom_site_fract_x
 _atom_site_fract_y
 _atom_site_fract_z
 _atom_site_occupancy
  Yb  Yb0  1  0.000000  0.499920  0.524083  1
  Yb  Yb1  1  0.500000  0.000015  0.474897  1
  Yb  Yb2  1  0.500000  0.818530  0.197852  1
  Yb  Yb3  1  0.500000  0.181382  0.197629  1
  Yb  Yb4  1  0.000000  0.682767  0.802515  1
  Ho  Ho5  1  0.000000  0.317715  0.802069  1
  Co  Co6  1  0.000000  0.499633  0.991895  1
  Co  Co7  1  0.500000  0.999954  0.007684  1
  Co  Co8  1  0.500000  0.881125  0.715430  1
  Co  Co9  1  0.500000  0.120554  0.717269  1
  Co  Co10  1  0.000000  0.619360  0.284116  1
  Co  Co11  1  0.000000  0.380564  0.284470  1
  Co  Co12  1  0.500000  0.332798  0.994636  1
  Co  Co13  1  0.500000  0.668227  0.995436  1
  Co  Co14  1  0.000000  0.167899  0.004864  1
  Co  Co15  1  0.000000  0.832211  0.004794  1
  P  P16  1  0.500000  0.308736  0.624295  1
  P  P17  1  0.500000  0.691418  0.626090  1
  P  P18  1  0.000000  0.190992  0.373990  1
  P  P19  1  0.000000  0.808271  0.373718  1
  P  P20  1  0.500000  0.501076  0.894228  1
  P  P21  1  0.000000  0.999785  0.106559  1
  P  P22  1  0.500000  0.843645  0.896473  1
  P  P23  1  0.500000  0.156906  0.897327  1
  P  P24  1  0.000000  0.656601  0.103560  1
  P  P25  1  0.000000  0.343504  0.104275  1
  P  P26  1  0.500000  0.500186  0.343060  1
  P  P27  1  0.000000  0.999241  0.656341  1
  Ir  Ir28  1  0.500000  0.297864  0.425780  1
  Ir  Ir29  1  0.500000  0.701937  0.426285  1
  Ir  Ir30  1  0.000000  0.201934  0.574391  1
  Ir  Ir31  1  0.000000  0.797365  0.573825  1
  Ir  Ir32  1  0.500000  0.499773  0.158401  1
  Ir  Ir33  1  0.000000  0.999726  0.841226  1
  Ir  Ir34  1  0.500000  0.498614  0.708741  1
  Ir  Ir35  1  0.000000  0.999772  0.291795  1
