# generated using pymatgen
data_Cs8Li4NdDy3Sb8
_symmetry_space_group_name_H-M   'P 1'
_cell_length_a   11.58046181
_cell_length_b   11.58046269
_cell_length_c   7.39123921
_cell_angle_alpha   90.06093228
_cell_angle_beta   89.93906660
_cell_angle_gamma   100.49702120
_symmetry_Int_Tables_number   1
_chemical_formula_structural   Cs8Li4NdDy3Sb8
_chemical_formula_sum   'Cs8 Li4 Nd1 Dy3 Sb8'
_cell_volume   974.62812520
_cell_formula_units_Z   1
loop_
 _symmetry_equiv_pos_site_id
 _symmetry_equiv_pos_as_xyz
  1  'x, y, z'
loop_
 _atom_site_type_symbol
 _atom_site_label
 _atom_site_symmetry_multiplicity
 _atom_site_fract_x
 _atom_site_fract_y
 _atom_site_fract_z
 _atom_site_occupancy
  Cs  Cs0  1  0.572086  0.928480  0.751041  1
  Cs  Cs1  1  0.928480  0.572086  0.248959  1
  Cs  Cs2  1  0.428781  0.071437  0.250672  1
  Cs  Cs3  1  0.071437  0.428781  0.749328  1
  Cs  Cs4  1  0.676563  0.323458  0.778652  1
  Cs  Cs5  1  0.824572  0.174908  0.280844  1
  Cs  Cs6  1  0.323458  0.676563  0.221348  1
  Cs  Cs7  1  0.174908  0.824572  0.719156  1
  Li  Li8  1  0.622179  0.622179  0.000000  1
  Li  Li9  1  0.877862  0.877862  0.500000  1
  Li  Li10  1  0.378494  0.378494  0.000000  1
  Li  Li11  1  0.120190  0.120190  0.500000  1
  Nd  Nd12  1  0.369034  0.369034  0.500000  1
  Dy  Dy13  1  0.869713  0.869713  0.000000  1
  Dy  Dy14  1  0.631798  0.631798  0.500000  1
  Dy  Dy15  1  0.129338  0.129338  0.000000  1
  Sb  Sb16  1  0.340781  0.155345  0.755362  1
  Sb  Sb17  1  0.155345  0.340781  0.244638  1
  Sb  Sb18  1  0.659949  0.840187  0.249967  1
  Sb  Sb19  1  0.840187  0.659949  0.750033  1
  Sb  Sb20  1  0.911785  0.086972  0.760754  1
  Sb  Sb21  1  0.592046  0.414040  0.258195  1
  Sb  Sb22  1  0.086972  0.911785  0.239246  1
  Sb  Sb23  1  0.414040  0.592046  0.741805  1
