# generated using pymatgen
data_Lu3In2Pt2Pb
_symmetry_space_group_name_H-M   'P 1'
_cell_length_a   7.83419300
_cell_length_b   7.73173700
_cell_length_c   3.57834000
_cell_angle_alpha   90.00000000
_cell_angle_beta   90.00000000
_cell_angle_gamma   120.43932378
_symmetry_Int_Tables_number   1
_chemical_formula_structural   Lu3In2Pt2Pb
_chemical_formula_sum   'Lu3 In2 Pt2 Pb1'
_cell_volume   186.87186300
_cell_formula_units_Z   1
loop_
 _symmetry_equiv_pos_site_id
 _symmetry_equiv_pos_as_xyz
  1  'x, y, z'
loop_
 _atom_site_type_symbol
 _atom_site_label
 _atom_site_symmetry_multiplicity
 _atom_site_fract_x
 _atom_site_fract_y
 _atom_site_fract_z
 _atom_site_occupancy
  Lu  Lu0  1  0.582970  0.000000  0.500001  1
  Lu  Lu1  1  0.424021  0.424891  0.500001  1
  Lu  Lu2  1  0.999130  0.575108  0.500001  1
  In  In3  1  0.993779  0.232694  0.000000  1
  In  In4  1  0.761084  0.767307  0.000000  1
  Pt  Pt5  1  0.673283  0.340161  0.000000  1
  Pt  Pt6  1  0.333121  0.659839  0.000000  1
  Pb  Pb7  1  0.232609  0.000000  0.000000  1
