# generated using pymatgen
data_Li8TbY7Sn5Bi3
_symmetry_space_group_name_H-M   'P 1'
_cell_length_a   9.48575611
_cell_length_b   9.48575685
_cell_length_c   7.28174200
_cell_angle_alpha   90.23546541
_cell_angle_beta   89.76452853
_cell_angle_gamma   120.09885590
_symmetry_Int_Tables_number   1
_chemical_formula_structural   Li8TbY7Sn5Bi3
_chemical_formula_sum   'Li8 Tb1 Y7 Sn5 Bi3'
_cell_volume   566.85436686
_cell_formula_units_Z   1
loop_
 _symmetry_equiv_pos_site_id
 _symmetry_equiv_pos_as_xyz
  1  'x, y, z'
loop_
 _atom_site_type_symbol
 _atom_site_label
 _atom_site_symmetry_multiplicity
 _atom_site_fract_x
 _atom_site_fract_y
 _atom_site_fract_z
 _atom_site_occupancy
  Li  Li0  1  0.168841  0.831159  0.196182  1
  Li  Li1  1  0.335908  0.170501  0.699864  1
  Li  Li2  1  0.829499  0.664092  0.699864  1
  Li  Li3  1  0.165916  0.335957  0.197855  1
  Li  Li4  1  0.664043  0.834084  0.197855  1
  Li  Li5  1  0.832573  0.167427  0.702401  1
  Li  Li6  1  0.334709  0.665291  0.810939  1
  Li  Li7  1  0.668369  0.331631  0.314180  1
  Tb  Tb8  1  0.509373  0.490627  0.986433  1
  Y  Y9  1  0.024254  0.504257  0.491161  1
  Y  Y10  1  0.495743  0.975746  0.491161  1
  Y  Y11  1  0.520055  0.024557  0.990664  1
  Y  Y12  1  0.975443  0.479945  0.990664  1
  Y  Y13  1  0.485234  0.514766  0.494387  1
  Y  Y14  1  0.994931  0.005069  0.981354  1
  Y  Y15  1  0.994934  0.005066  0.485635  1
  Sn  Sn16  1  0.166581  0.333353  0.752754  1
  Sn  Sn17  1  0.666647  0.833419  0.752754  1
  Sn  Sn18  1  0.833394  0.166606  0.252599  1
  Sn  Sn19  1  0.333331  0.666669  0.224418  1
  Sn  Sn20  1  0.666880  0.333120  0.723811  1
  Bi  Bi21  1  0.166583  0.833417  0.751006  1
  Bi  Bi22  1  0.333162  0.166403  0.251031  1
  Bi  Bi23  1  0.833597  0.666838  0.251031  1
