# generated using pymatgen
data_BaPa(AsPt)2
_symmetry_space_group_name_H-M   'P 1'
_cell_length_a   4.33600400
_cell_length_b   4.33600260
_cell_length_c   17.42699800
_cell_angle_alpha   90.00000000
_cell_angle_beta   90.00000000
_cell_angle_gamma   120.00001067
_symmetry_Int_Tables_number   1
_chemical_formula_structural   BaPa(AsPt)2
_chemical_formula_sum   'Ba2 Pa2 As4 Pt4'
_cell_volume   283.74771614
_cell_formula_units_Z   2
loop_
 _symmetry_equiv_pos_site_id
 _symmetry_equiv_pos_as_xyz
  1  'x, y, z'
loop_
 _atom_site_type_symbol
 _atom_site_label
 _atom_site_symmetry_multiplicity
 _atom_site_fract_x
 _atom_site_fract_y
 _atom_site_fract_z
 _atom_site_occupancy
  Ba  Ba0  1  0.000000  0.000000  0.250000  1
  Ba  Ba1  1  0.000000  0.000000  0.750000  1
  Pa  Pa2  1  0.000000  0.000000  0.500000  1
  Pa  Pa3  1  0.000000  0.000000  0.000000  1
  As  As4  1  0.333333  0.666667  0.880355  1
  As  As5  1  0.666667  0.333333  0.119645  1
  As  As6  1  0.666667  0.333333  0.380355  1
  As  As7  1  0.333333  0.666667  0.619645  1
  Pt  Pt8  1  0.333333  0.666667  0.406230  1
  Pt  Pt9  1  0.666667  0.333333  0.593770  1
  Pt  Pt10  1  0.666667  0.333333  0.906230  1
  Pt  Pt11  1  0.333333  0.666667  0.093770  1
