# generated using pymatgen
data_Dy2Lu2Hf3AlPt4
_symmetry_space_group_name_H-M   'P 1'
_cell_length_a   4.54747100
_cell_length_b   7.02652257
_cell_length_c   8.12475295
_cell_angle_alpha   87.26706300
_cell_angle_beta   90.00000000
_cell_angle_gamma   90.00000000
_symmetry_Int_Tables_number   1
_chemical_formula_structural   Dy2Lu2Hf3AlPt4
_chemical_formula_sum   'Dy2 Lu2 Hf3 Al1 Pt4'
_cell_volume   259.31420845
_cell_formula_units_Z   1
loop_
 _symmetry_equiv_pos_site_id
 _symmetry_equiv_pos_as_xyz
  1  'x, y, z'
loop_
 _atom_site_type_symbol
 _atom_site_label
 _atom_site_symmetry_multiplicity
 _atom_site_fract_x
 _atom_site_fract_y
 _atom_site_fract_z
 _atom_site_occupancy
  Dy  Dy0  1  0.750000  0.516394  0.815910  1
  Dy  Dy1  1  0.750000  0.038040  0.670084  1
  Lu  Lu2  1  0.250000  0.470416  0.187592  1
  Lu  Lu3  1  0.250000  0.988559  0.336362  1
  Hf  Hf4  1  0.250000  0.854330  0.924700  1
  Hf  Hf5  1  0.750000  0.137930  0.072077  1
  Hf  Hf6  1  0.750000  0.641489  0.434193  1
  Al  Al7  1  0.250000  0.358792  0.571003  1
  Pt  Pt8  1  0.250000  0.730342  0.607366  1
  Pt  Pt9  1  0.750000  0.269214  0.380227  1
  Pt  Pt10  1  0.750000  0.762842  0.104185  1
  Pt  Pt11  1  0.250000  0.231654  0.896302  1
