# generated using pymatgen
data_Dy18Tm2(Ir3Os)3
_symmetry_space_group_name_H-M   'P 1'
_cell_length_a   10.86562500
_cell_length_b   10.86552800
_cell_length_c   6.41380400
_cell_angle_alpha   90.00000000
_cell_angle_beta   90.00000000
_cell_angle_gamma   90.00026366
_symmetry_Int_Tables_number   1
_chemical_formula_structural   Dy18Tm2(Ir3Os)3
_chemical_formula_sum   'Dy18 Tm2 Ir9 Os3'
_cell_volume   757.21852775
_cell_formula_units_Z   1
loop_
 _symmetry_equiv_pos_site_id
 _symmetry_equiv_pos_as_xyz
  1  'x, y, z'
loop_
 _atom_site_type_symbol
 _atom_site_label
 _atom_site_symmetry_multiplicity
 _atom_site_fract_x
 _atom_site_fract_y
 _atom_site_fract_z
 _atom_site_occupancy
  Dy  Dy0  1  0.293254  0.086411  0.377739  1
  Dy  Dy1  1  0.293279  0.913905  0.877979  1
  Dy  Dy2  1  0.706721  0.086095  0.877979  1
  Dy  Dy3  1  0.706746  0.913589  0.377739  1
  Dy  Dy4  1  0.586321  0.794122  0.878211  1
  Dy  Dy5  1  0.586563  0.205899  0.378093  1
  Dy  Dy6  1  0.413437  0.794101  0.378093  1
  Dy  Dy7  1  0.413679  0.205878  0.878211  1
  Dy  Dy8  1  0.207806  0.412777  0.623630  1
  Dy  Dy9  1  0.207322  0.587323  0.119566  1
  Dy  Dy10  1  0.792678  0.412677  0.119566  1
  Dy  Dy11  1  0.792194  0.587223  0.623630  1
  Dy  Dy12  1  0.912830  0.708239  0.119835  1
  Dy  Dy13  1  0.913039  0.291364  0.623796  1
  Dy  Dy14  1  0.086961  0.708636  0.623796  1
  Dy  Dy15  1  0.087170  0.291761  0.119835  1
  Dy  Dy16  1  0.500000  0.500000  0.999842  1
  Dy  Dy17  1  0.500000  0.500000  0.499548  1
  Tm  Tm18  1  0.000000  0.000000  0.499527  1
  Tm  Tm19  1  0.000000  0.000000  0.999857  1
  Ir  Ir20  1  0.849813  0.151600  0.250326  1
  Ir  Ir21  1  0.849570  0.848603  0.749694  1
  Ir  Ir22  1  0.150430  0.151397  0.749694  1
  Ir  Ir23  1  0.150187  0.848400  0.250326  1
  Ir  Ir24  1  0.652842  0.348213  0.749633  1
  Ir  Ir25  1  0.653099  0.651547  0.250250  1
  Ir  Ir26  1  0.346901  0.348453  0.250250  1
  Ir  Ir27  1  0.347158  0.651787  0.749633  1
  Ir  Ir28  1  0.000000  0.500000  0.377820  1
  Os  Os29  1  0.500000  0.000000  0.124973  1
  Os  Os30  1  0.500000  0.000000  0.624506  1
  Os  Os31  1  0.000000  0.500000  0.876420  1
