# generated using pymatgen
data_Zr3Sc(Co3Re)2
_symmetry_space_group_name_H-M   'P 1'
_cell_length_a   5.00532400
_cell_length_b   5.00532373
_cell_length_c   8.07839800
_cell_angle_alpha   90.00000000
_cell_angle_beta   90.00000000
_cell_angle_gamma   119.99998859
_symmetry_Int_Tables_number   1
_chemical_formula_structural   Zr3Sc(Co3Re)2
_chemical_formula_sum   'Zr3 Sc1 Co6 Re2'
_cell_volume   175.27512839
_cell_formula_units_Z   1
loop_
 _symmetry_equiv_pos_site_id
 _symmetry_equiv_pos_as_xyz
  1  'x, y, z'
loop_
 _atom_site_type_symbol
 _atom_site_label
 _atom_site_symmetry_multiplicity
 _atom_site_fract_x
 _atom_site_fract_y
 _atom_site_fract_z
 _atom_site_occupancy
  Zr  Zr0  1  0.333333  0.666667  0.569480  1
  Zr  Zr1  1  0.666667  0.333333  0.434089  1
  Zr  Zr2  1  0.666667  0.333333  0.059174  1
  Sc  Sc3  1  0.333333  0.666667  0.938960  1
  Co  Co4  1  0.829485  0.170515  0.749935  1
  Co  Co5  1  0.659016  0.829507  0.249854  1
  Co  Co6  1  0.170493  0.829507  0.249854  1
  Co  Co7  1  0.829485  0.658971  0.749935  1
  Co  Co8  1  0.170493  0.340984  0.249854  1
  Co  Co9  1  0.341029  0.170515  0.749935  1
  Re  Re10  1  0.000000  0.000000  0.499849  1
  Re  Re11  1  0.000000  0.000000  0.999083  1
