# generated using pymatgen
data_LiEr4Sc(ZnPt2)2
_symmetry_space_group_name_H-M   'P 1'
_cell_length_a   4.02028500
_cell_length_b   7.04938598
_cell_length_c   8.54248789
_cell_angle_alpha   88.36539692
_cell_angle_beta   90.00000000
_cell_angle_gamma   90.00000000
_symmetry_Int_Tables_number   1
_chemical_formula_structural   LiEr4Sc(ZnPt2)2
_chemical_formula_sum   'Li1 Er4 Sc1 Zn2 Pt4'
_cell_volume   242.00020884
_cell_formula_units_Z   1
loop_
 _symmetry_equiv_pos_site_id
 _symmetry_equiv_pos_as_xyz
  1  'x, y, z'
loop_
 _atom_site_type_symbol
 _atom_site_label
 _atom_site_symmetry_multiplicity
 _atom_site_fract_x
 _atom_site_fract_y
 _atom_site_fract_z
 _atom_site_occupancy
  Li  Li0  1  0.250000  0.121446  0.944872  1
  Er  Er1  1  0.250000  0.050684  0.315934  1
  Er  Er2  1  0.250000  0.546628  0.172813  1
  Er  Er3  1  0.750000  0.968536  0.688996  1
  Er  Er4  1  0.750000  0.447473  0.831330  1
  Sc  Sc5  1  0.250000  0.623123  0.555954  1
  Zn  Zn6  1  0.750000  0.361727  0.429948  1
  Zn  Zn7  1  0.750000  0.873818  0.060922  1
  Pt  Pt8  1  0.250000  0.250575  0.626009  1
  Pt  Pt9  1  0.250000  0.745398  0.868099  1
  Pt  Pt10  1  0.750000  0.758925  0.378948  1
  Pt  Pt11  1  0.750000  0.251667  0.126173  1
