# generated using pymatgen
data_ThFeSiPd
_symmetry_space_group_name_H-M   'P 1'
_cell_length_a   9.16882226
_cell_length_b   9.16882324
_cell_length_c   4.05764800
_cell_angle_alpha   90.00000000
_cell_angle_beta   90.00000000
_cell_angle_gamma   154.71682932
_symmetry_Int_Tables_number   1
_chemical_formula_structural   ThFeSiPd
_chemical_formula_sum   'Th2 Fe2 Si2 Pd2'
_cell_volume   145.68782404
_cell_formula_units_Z   2
loop_
 _symmetry_equiv_pos_site_id
 _symmetry_equiv_pos_as_xyz
  1  'x, y, z'
loop_
 _atom_site_type_symbol
 _atom_site_label
 _atom_site_symmetry_multiplicity
 _atom_site_fract_x
 _atom_site_fract_y
 _atom_site_fract_z
 _atom_site_occupancy
  Th  Th0  1  0.620164  0.379836  0.250000  1
  Th  Th1  1  0.379829  0.620171  0.750000  1
  Fe  Fe2  1  0.250119  0.749881  0.250000  1
  Fe  Fe3  1  0.749867  0.250133  0.750000  1
  Si  Si4  1  0.811481  0.188519  0.250000  1
  Si  Si5  1  0.188535  0.811465  0.750000  1
  Pd  Pd6  1  0.950011  0.049989  0.250000  1
  Pd  Pd7  1  0.049995  0.950005  0.750000  1
