# generated using pymatgen
data_Er3BiMoRh3O14
_symmetry_space_group_name_H-M   'P 1'
_cell_length_a   7.16061633
_cell_length_b   7.16061606
_cell_length_c   7.30200732
_cell_angle_alpha   60.63848643
_cell_angle_beta   60.63848922
_cell_angle_gamma   60.00000025
_symmetry_Int_Tables_number   1
_chemical_formula_structural   Er3BiMoRh3O14
_chemical_formula_sum   'Er3 Bi1 Mo1 Rh3 O14'
_cell_volume   267.27146324
_cell_formula_units_Z   1
loop_
 _symmetry_equiv_pos_site_id
 _symmetry_equiv_pos_as_xyz
  1  'x, y, z'
loop_
 _atom_site_type_symbol
 _atom_site_label
 _atom_site_symmetry_multiplicity
 _atom_site_fract_x
 _atom_site_fract_y
 _atom_site_fract_z
 _atom_site_occupancy
  Er  Er0  1  0.125000  0.125000  0.125000  1
  Er  Er1  1  0.125000  0.625000  0.125000  1
  Er  Er2  1  0.625000  0.125000  0.125000  1
  Bi  Bi3  1  0.125000  0.125000  0.625000  1
  Mo  Mo4  1  0.625000  0.625000  0.125000  1
  Rh  Rh5  1  0.625000  0.625000  0.625000  1
  Rh  Rh6  1  0.125000  0.625000  0.625000  1
  Rh  Rh7  1  0.625000  0.125000  0.625000  1
  O  O8  1  0.252780  0.252780  0.241659  1
  O  O9  1  0.290736  0.711031  0.287201  1
  O  O10  1  0.965381  0.965381  0.526117  1
  O  O11  1  0.543121  0.965381  0.526117  1
  O  O12  1  0.711031  0.711031  0.287201  1
  O  O13  1  0.965381  0.543121  0.526117  1
  O  O14  1  0.706879  0.284619  0.723883  1
  O  O15  1  0.284619  0.284619  0.723883  1
  O  O16  1  0.711031  0.290736  0.287201  1
  O  O17  1  0.284619  0.706879  0.723883  1
  O  O18  1  0.959264  0.538969  0.962799  1
  O  O19  1  0.538969  0.538969  0.962799  1
  O  O20  1  0.997220  0.997220  0.008341  1
  O  O21  1  0.538969  0.959264  0.962799  1
