# generated using pymatgen
data_Tb5Ho3Al4
_symmetry_space_group_name_H-M   'P 1'
_cell_length_a   5.11120800
_cell_length_b   6.56018877
_cell_length_c   9.45147511
_cell_angle_alpha   90.05558053
_cell_angle_beta   90.00000000
_cell_angle_gamma   90.00000000
_symmetry_Int_Tables_number   1
_chemical_formula_structural   Tb5Ho3Al4
_chemical_formula_sum   'Tb5 Ho3 Al4'
_cell_volume   316.91243629
_cell_formula_units_Z   1
loop_
 _symmetry_equiv_pos_site_id
 _symmetry_equiv_pos_as_xyz
  1  'x, y, z'
loop_
 _atom_site_type_symbol
 _atom_site_label
 _atom_site_symmetry_multiplicity
 _atom_site_fract_x
 _atom_site_fract_y
 _atom_site_fract_z
 _atom_site_occupancy
  Tb  Tb0  1  0.750000  0.688461  0.426729  1
  Tb  Tb1  1  0.250000  0.311472  0.572579  1
  Tb  Tb2  1  0.750000  0.187998  0.073304  1
  Tb  Tb3  1  0.250000  0.812133  0.927342  1
  Tb  Tb4  1  0.750000  0.527563  0.789860  1
  Ho  Ho5  1  0.250000  0.472702  0.209725  1
  Ho  Ho6  1  0.750000  0.027387  0.710055  1
  Ho  Ho7  1  0.250000  0.972586  0.290002  1
  Al  Al8  1  0.750000  0.208017  0.397553  1
  Al  Al9  1  0.250000  0.792004  0.602333  1
  Al  Al10  1  0.750000  0.708135  0.102874  1
  Al  Al11  1  0.250000  0.291543  0.897644  1
