# generated using pymatgen
data_Gd2Si3Rh
_symmetry_space_group_name_H-M   'P 1'
_cell_length_a   8.21044900
_cell_length_b   8.21044889
_cell_length_c   8.02674800
_cell_angle_alpha   90.00000000
_cell_angle_beta   90.00000000
_cell_angle_gamma   120.00000445
_symmetry_Int_Tables_number   1
_chemical_formula_structural   Gd2Si3Rh
_chemical_formula_sum   'Gd8 Si12 Rh4'
_cell_volume   468.60190595
_cell_formula_units_Z   4
loop_
 _symmetry_equiv_pos_site_id
 _symmetry_equiv_pos_as_xyz
  1  'x, y, z'
loop_
 _atom_site_type_symbol
 _atom_site_label
 _atom_site_symmetry_multiplicity
 _atom_site_fract_x
 _atom_site_fract_y
 _atom_site_fract_z
 _atom_site_occupancy
  Gd  Gd0  1  0.984414  0.492208  0.250000  1
  Gd  Gd1  1  0.507792  0.492208  0.250000  1
  Gd  Gd2  1  0.492208  0.984414  0.750000  1
  Gd  Gd3  1  0.015586  0.507792  0.750000  1
  Gd  Gd4  1  0.492208  0.507792  0.750000  1
  Gd  Gd5  1  0.507792  0.015586  0.250000  1
  Gd  Gd6  1  0.000000  0.000000  0.750000  1
  Gd  Gd7  1  0.000000  0.000000  0.250000  1
  Si  Si8  1  0.166670  0.833330  0.500010  1
  Si  Si9  1  0.166670  0.333339  0.500010  1
  Si  Si10  1  0.666661  0.833330  0.500010  1
  Si  Si11  1  0.333339  0.166670  0.000010  1
  Si  Si12  1  0.833330  0.666661  0.499990  1
  Si  Si13  1  0.833330  0.166670  0.000010  1
  Si  Si14  1  0.833330  0.666661  0.000010  1
  Si  Si15  1  0.166670  0.333339  0.999990  1
  Si  Si16  1  0.666661  0.833330  0.999990  1
  Si  Si17  1  0.333339  0.166670  0.499990  1
  Si  Si18  1  0.833330  0.166670  0.499990  1
  Si  Si19  1  0.166670  0.833330  0.999990  1
  Rh  Rh20  1  0.333333  0.666667  0.028006  1
  Rh  Rh21  1  0.666667  0.333333  0.971994  1
  Rh  Rh22  1  0.666667  0.333333  0.528006  1
  Rh  Rh23  1  0.333333  0.666667  0.471994  1
