# generated using pymatgen
data_Eu2Th(ZnRh)3
_symmetry_space_group_name_H-M   'P 1'
_cell_length_a   7.30698423
_cell_length_b   7.31761606
_cell_length_c   4.06654900
_cell_angle_alpha   90.00000000
_cell_angle_beta   90.00000000
_cell_angle_gamma   120.04814065
_symmetry_Int_Tables_number   1
_chemical_formula_structural   Eu2Th(ZnRh)3
_chemical_formula_sum   'Eu2 Th1 Zn3 Rh3'
_cell_volume   188.21470490
_cell_formula_units_Z   1
loop_
 _symmetry_equiv_pos_site_id
 _symmetry_equiv_pos_as_xyz
  1  'x, y, z'
loop_
 _atom_site_type_symbol
 _atom_site_label
 _atom_site_symmetry_multiplicity
 _atom_site_fract_x
 _atom_site_fract_y
 _atom_site_fract_z
 _atom_site_occupancy
  Eu  Eu0  1  0.412444  0.411681  0.500000  1
  Eu  Eu1  1  0.587556  0.999237  0.500000  1
  Th  Th2  1  0.000000  0.593223  0.500000  1
  Zn  Zn3  1  0.752530  0.759755  0.000000  1
  Zn  Zn4  1  0.247470  0.007223  0.000000  1
  Zn  Zn5  1  0.000000  0.228758  0.000000  1
  Rh  Rh6  1  0.697116  0.356060  0.000000  1
  Rh  Rh7  1  0.302884  0.658945  0.000000  1
  Rh  Rh8  1  0.000000  0.985116  0.500000  1
