# generated using pymatgen
data_Lu6Al6Cu5Ge
_symmetry_space_group_name_H-M   'P 1'
_cell_length_a   6.86114100
_cell_length_b   6.86114077
_cell_length_c   8.19539600
_cell_angle_alpha   90.00000000
_cell_angle_beta   90.00000000
_cell_angle_gamma   119.99998667
_symmetry_Int_Tables_number   1
_chemical_formula_structural   Lu6Al6Cu5Ge
_chemical_formula_sum   'Lu6 Al6 Cu5 Ge1'
_cell_volume   334.11294883
_cell_formula_units_Z   1
loop_
 _symmetry_equiv_pos_site_id
 _symmetry_equiv_pos_as_xyz
  1  'x, y, z'
loop_
 _atom_site_type_symbol
 _atom_site_label
 _atom_site_symmetry_multiplicity
 _atom_site_fract_x
 _atom_site_fract_y
 _atom_site_fract_z
 _atom_site_occupancy
  Lu  Lu0  1  0.582541  0.997728  0.745907  1
  Lu  Lu1  1  0.002272  0.584813  0.745907  1
  Lu  Lu2  1  0.415187  0.417459  0.745907  1
  Lu  Lu3  1  0.002468  0.584919  0.254176  1
  Lu  Lu4  1  0.582452  0.997532  0.254176  1
  Lu  Lu5  1  0.415081  0.417548  0.254176  1
  Al  Al6  1  0.754054  0.769224  0.999984  1
  Al  Al7  1  0.230776  0.984831  0.999984  1
  Al  Al8  1  0.015169  0.245946  0.999984  1
  Al  Al9  1  0.763848  0.761817  0.499993  1
  Al  Al10  1  0.238183  0.002030  0.499993  1
  Al  Al11  1  0.997970  0.236152  0.499993  1
  Cu  Cu12  1  0.000000  0.000000  0.753646  1
  Cu  Cu13  1  0.000000  0.000000  0.246228  1
  Cu  Cu14  1  0.666667  0.333333  0.500194  1
  Cu  Cu15  1  0.333333  0.666667  0.500142  1
  Cu  Cu16  1  0.333333  0.666667  0.999291  1
  Ge  Ge17  1  0.666667  0.333333  0.000325  1
