# generated using pymatgen
data_SmYHo3(In2Pd)2
_symmetry_space_group_name_H-M   'P 1'
_cell_length_a   3.62938700
_cell_length_b   8.19101131
_cell_length_c   18.34922398
_cell_angle_alpha   89.82695846
_cell_angle_beta   90.00000000
_cell_angle_gamma   90.00000000
_symmetry_Int_Tables_number   1
_chemical_formula_structural   SmYHo3(In2Pd)2
_chemical_formula_sum   'Sm2 Y2 Ho6 In8 Pd4'
_cell_volume   545.48966447
_cell_formula_units_Z   2
loop_
 _symmetry_equiv_pos_site_id
 _symmetry_equiv_pos_as_xyz
  1  'x, y, z'
loop_
 _atom_site_type_symbol
 _atom_site_label
 _atom_site_symmetry_multiplicity
 _atom_site_fract_x
 _atom_site_fract_y
 _atom_site_fract_z
 _atom_site_occupancy
  Sm  Sm0  1  0.000000  0.500000  0.500000  1
  Sm  Sm1  1  0.000000  0.000000  0.000000  1
  Y  Y2  1  0.000000  0.738889  0.281127  1
  Y  Y3  1  0.000000  0.261111  0.718873  1
  Ho  Ho4  1  0.000000  0.760542  0.780692  1
  Ho  Ho5  1  0.000000  0.239458  0.219308  1
  Ho  Ho6  1  0.000000  0.618000  0.083739  1
  Ho  Ho7  1  0.000000  0.382000  0.916261  1
  Ho  Ho8  1  0.000000  0.881684  0.583735  1
  Ho  Ho9  1  0.000000  0.118316  0.416265  1
  In  In10  1  0.500000  0.705513  0.931294  1
  In  In11  1  0.500000  0.294487  0.068706  1
  In  In12  1  0.500000  0.794724  0.431472  1
  In  In13  1  0.500000  0.205276  0.568528  1
  In  In14  1  0.500000  0.581971  0.651470  1
  In  In15  1  0.500000  0.418029  0.348530  1
  In  In16  1  0.500000  0.918341  0.151409  1
  In  In17  1  0.500000  0.081659  0.848591  1
  Pd  Pd18  1  0.500000  0.522858  0.195593  1
  Pd  Pd19  1  0.500000  0.477142  0.804407  1
  Pd  Pd20  1  0.500000  0.975362  0.695814  1
  Pd  Pd21  1  0.500000  0.024638  0.304186  1
