# generated using pymatgen
data_CaY7(Si4W3)4
_symmetry_space_group_name_H-M   'P 1'
_cell_length_a   6.77552796
_cell_length_b   6.95574665
_cell_length_c   12.94558316
_cell_angle_alpha   89.90144634
_cell_angle_beta   89.95983076
_cell_angle_gamma   89.84295803
_symmetry_Int_Tables_number   1
_chemical_formula_structural   CaY7(Si4W3)4
_chemical_formula_sum   'Ca1 Y7 Si16 W12'
_cell_volume   610.10718129
_cell_formula_units_Z   1
loop_
 _symmetry_equiv_pos_site_id
 _symmetry_equiv_pos_as_xyz
  1  'x, y, z'
loop_
 _atom_site_type_symbol
 _atom_site_label
 _atom_site_symmetry_multiplicity
 _atom_site_fract_x
 _atom_site_fract_y
 _atom_site_fract_z
 _atom_site_occupancy
  Ca  Ca0  1  0.996438  0.833095  0.590776  1
  Y  Y1  1  0.497116  0.668097  0.594092  1
  Y  Y2  1  0.997210  0.831485  0.906193  1
  Y  Y3  1  0.504264  0.331684  0.093364  1
  Y  Y4  1  0.003400  0.166634  0.407710  1
  Y  Y5  1  0.503461  0.332437  0.406838  1
  Y  Y6  1  0.004246  0.167830  0.093596  1
  Y  Y7  1  0.496517  0.668184  0.905975  1
  Si  Si8  1  0.659963  0.956996  0.453135  1
  Si  Si9  1  0.162196  0.544079  0.045975  1
  Si  Si10  1  0.337832  0.042806  0.953568  1
  Si  Si11  1  0.839496  0.458268  0.547301  1
  Si  Si12  1  0.339134  0.041812  0.547428  1
  Si  Si13  1  0.838246  0.456429  0.954154  1
  Si  Si14  1  0.662552  0.956824  0.046236  1
  Si  Si15  1  0.160320  0.543287  0.452763  1
  Si  Si16  1  0.464638  0.370667  0.750674  1
  Si  Si17  1  0.964791  0.128829  0.749756  1
  Si  Si18  1  0.534471  0.630096  0.249964  1
  Si  Si19  1  0.035093  0.869359  0.250694  1
  Si  Si20  1  0.699007  0.868563  0.748660  1
  Si  Si21  1  0.194549  0.634576  0.748501  1
  Si  Si22  1  0.303047  0.132460  0.250096  1
  Si  Si23  1  0.803821  0.365982  0.250330  1
  W  W24  1  0.666876  0.166422  0.625680  1
  W  W25  1  0.169819  0.338841  0.875139  1
  W  W26  1  0.331824  0.836542  0.126017  1
  W  W27  1  0.828819  0.660794  0.373528  1
  W  W28  1  0.332073  0.837202  0.374151  1
  W  W29  1  0.830233  0.661674  0.125603  1
  W  W30  1  0.668106  0.163691  0.874046  1
  W  W31  1  0.169754  0.336027  0.626602  1
  W  W32  1  0.835262  0.494755  0.751129  1
  W  W33  1  0.333885  0.002334  0.751232  1
  W  W34  1  0.164922  0.502736  0.249752  1
  W  W35  1  0.666621  0.998502  0.249338  1
