# generated using pymatgen
data_Cu12Si3Ni4Ge
_symmetry_space_group_name_H-M   'P 1'
_cell_length_a   6.19077418
_cell_length_b   6.19077418
_cell_length_c   6.19077418
_cell_angle_alpha   90.01947092
_cell_angle_beta   90.01947092
_cell_angle_gamma   90.01947092
_symmetry_Int_Tables_number   1
_chemical_formula_structural   Cu12Si3Ni4Ge
_chemical_formula_sum   'Cu12 Si3 Ni4 Ge1'
_cell_volume   237.26561955
_cell_formula_units_Z   1
loop_
 _symmetry_equiv_pos_site_id
 _symmetry_equiv_pos_as_xyz
  1  'x, y, z'
loop_
 _atom_site_type_symbol
 _atom_site_label
 _atom_site_symmetry_multiplicity
 _atom_site_fract_x
 _atom_site_fract_y
 _atom_site_fract_z
 _atom_site_occupancy
  Cu  Cu0  1  0.120617  0.207952  0.457220  1
  Cu  Cu1  1  0.382180  0.791576  0.953677  1
  Cu  Cu2  1  0.876991  0.703146  0.045326  1
  Cu  Cu3  1  0.457220  0.120617  0.207952  1
  Cu  Cu4  1  0.620598  0.293566  0.545626  1
  Cu  Cu5  1  0.953677  0.382180  0.791576  1
  Cu  Cu6  1  0.045326  0.876991  0.703146  1
  Cu  Cu7  1  0.545626  0.620598  0.293566  1
  Cu  Cu8  1  0.207952  0.457220  0.120617  1
  Cu  Cu9  1  0.703146  0.045326  0.876991  1
  Cu  Cu10  1  0.293566  0.545626  0.620598  1
  Cu  Cu11  1  0.791576  0.953677  0.382180  1
  Si  Si12  1  0.435845  0.935144  0.564552  1
  Si  Si13  1  0.935144  0.564552  0.435845  1
  Si  Si14  1  0.564552  0.435845  0.935144  1
  Ni  Ni15  1  0.682517  0.682517  0.682517  1
  Ni  Ni16  1  0.812994  0.321804  0.184967  1
  Ni  Ni17  1  0.321804  0.184967  0.812994  1
  Ni  Ni18  1  0.184967  0.812994  0.321804  1
  Ge  Ge19  1  0.063701  0.063701  0.063701  1
