# generated using pymatgen
data_Tb16Cd4CoNiPd2
_symmetry_space_group_name_H-M   'P 1'
_cell_length_a   9.65459430
_cell_length_b   9.65338871
_cell_length_c   9.66852813
_cell_angle_alpha   60.05179678
_cell_angle_beta   60.04765690
_cell_angle_gamma   59.99586865
_symmetry_Int_Tables_number   1
_chemical_formula_structural   Tb16Cd4CoNiPd2
_chemical_formula_sum   'Tb16 Cd4 Co1 Ni1 Pd2'
_cell_volume   637.63422995
_cell_formula_units_Z   1
loop_
 _symmetry_equiv_pos_site_id
 _symmetry_equiv_pos_as_xyz
  1  'x, y, z'
loop_
 _atom_site_type_symbol
 _atom_site_label
 _atom_site_symmetry_multiplicity
 _atom_site_fract_x
 _atom_site_fract_y
 _atom_site_fract_z
 _atom_site_occupancy
  Tb  Tb0  1  0.439487  0.438870  0.051625  1
  Tb  Tb1  1  0.589147  0.599861  0.603788  1
  Tb  Tb2  1  0.183037  0.815871  0.818054  1
  Tb  Tb3  1  0.065786  0.053938  0.440056  1
  Tb  Tb4  1  0.437617  0.065803  0.058963  1
  Tb  Tb5  1  0.813172  0.187141  0.816023  1
  Tb  Tb6  1  0.440220  0.053938  0.440056  1
  Tb  Tb7  1  0.595959  0.193857  0.614224  1
  Tb  Tb8  1  0.815071  0.814727  0.187221  1
  Tb  Tb9  1  0.207204  0.599861  0.603788  1
  Tb  Tb10  1  0.811636  0.188164  0.188563  1
  Tb  Tb11  1  0.059097  0.440450  0.441356  1
  Tb  Tb12  1  0.182982  0.814727  0.187221  1
  Tb  Tb13  1  0.598217  0.613830  0.189737  1
  Tb  Tb14  1  0.183665  0.187141  0.816023  1
  Tb  Tb15  1  0.070018  0.438870  0.051625  1
  Cd  Cd16  1  0.832182  0.828167  0.507467  1
  Cd  Cd17  1  0.834308  0.830332  0.830361  1
  Cd  Cd18  1  0.504997  0.830332  0.830361  1
  Cd  Cd19  1  0.832693  0.506164  0.828449  1
  Co  Co20  1  0.393096  0.390335  0.823475  1
  Ni  Ni21  1  0.393576  0.823034  0.389815  1
  Pd  Pd22  1  0.398189  0.392293  0.390873  1
  Pd  Pd23  1  0.818645  0.392293  0.390873  1
