# generated using pymatgen
data_Er10TlIn8Ru3
_symmetry_space_group_name_H-M   'P 1'
_cell_length_a   3.60046300
_cell_length_b   8.09188737
_cell_length_c   18.37238000
_cell_angle_alpha   90.09172271
_cell_angle_beta   90.00000000
_cell_angle_gamma   90.00000000
_symmetry_Int_Tables_number   1
_chemical_formula_structural   Er10TlIn8Ru3
_chemical_formula_sum   'Er10 Tl1 In8 Ru3'
_cell_volume   535.27017381
_cell_formula_units_Z   1
loop_
 _symmetry_equiv_pos_site_id
 _symmetry_equiv_pos_as_xyz
  1  'x, y, z'
loop_
 _atom_site_type_symbol
 _atom_site_label
 _atom_site_symmetry_multiplicity
 _atom_site_fract_x
 _atom_site_fract_y
 _atom_site_fract_z
 _atom_site_occupancy
  Er  Er0  1  0.000000  0.115227  0.418225  1
  Er  Er1  1  0.000000  0.882431  0.590797  1
  Er  Er2  1  0.000000  0.384640  0.908036  1
  Er  Er3  1  0.000000  0.627827  0.070383  1
  Er  Er4  1  0.000000  0.205920  0.224730  1
  Er  Er5  1  0.000000  0.757586  0.776249  1
  Er  Er6  1  0.000000  0.256954  0.721249  1
  Er  Er7  1  0.000000  0.770852  0.288727  1
  Er  Er8  1  0.000000  0.000930  0.997506  1
  Er  Er9  1  0.000000  0.500270  0.502720  1
  Tl  Tl10  1  0.500000  0.524701  0.197793  1
  In  In11  1  0.500000  0.413589  0.357094  1
  In  In12  1  0.500000  0.569034  0.649866  1
  In  In13  1  0.500000  0.072739  0.849067  1
  In  In14  1  0.500000  0.924450  0.147888  1
  In  In15  1  0.500000  0.292546  0.060965  1
  In  In16  1  0.500000  0.709914  0.924940  1
  In  In17  1  0.500000  0.205200  0.569874  1
  In  In18  1  0.500000  0.794648  0.436979  1
  Ru  Ru19  1  0.500000  0.023761  0.308390  1
  Ru  Ru20  1  0.500000  0.984770  0.696642  1
  Ru  Ru21  1  0.500000  0.482013  0.801879  1
