# generated using pymatgen
data_KRbZnI4
_symmetry_space_group_name_H-M   'P 1'
_cell_length_a   8.05059298
_cell_length_b   8.38473500
_cell_length_c   10.13754906
_cell_angle_alpha   90.00000000
_cell_angle_beta   108.43657199
_cell_angle_gamma   90.00000000
_symmetry_Int_Tables_number   1
_chemical_formula_structural   KRbZnI4
_chemical_formula_sum   'K2 Rb2 Zn2 I8'
_cell_volume   649.18329191
_cell_formula_units_Z   2
loop_
 _symmetry_equiv_pos_site_id
 _symmetry_equiv_pos_as_xyz
  1  'x, y, z'
loop_
 _atom_site_type_symbol
 _atom_site_label
 _atom_site_symmetry_multiplicity
 _atom_site_fract_x
 _atom_site_fract_y
 _atom_site_fract_z
 _atom_site_occupancy
  K  K0  1  0.281425  0.738958  0.949857  1
  K  K1  1  0.718575  0.238958  0.050143  1
  Rb  Rb2  1  0.238707  0.739868  0.434970  1
  Rb  Rb3  1  0.761293  0.239868  0.565030  1
  Zn  Zn4  1  0.720207  0.755721  0.806785  1
  Zn  Zn5  1  0.279793  0.255721  0.193215  1
  I  I6  1  0.512962  0.501998  0.753004  1
  I  I7  1  0.487038  0.001998  0.246996  1
  I  I8  1  0.504782  0.498444  0.254311  1
  I  I9  1  0.495218  0.998444  0.745689  1
  I  I10  1  0.906429  0.774045  0.071725  1
  I  I11  1  0.093571  0.274045  0.928275  1
  I  I12  1  0.913767  0.765566  0.638587  1
  I  I13  1  0.086233  0.265566  0.361413  1
