# generated using pymatgen
data_Er2Sc2Al13Ga5Ir6
_symmetry_space_group_name_H-M   'P 1'
_cell_length_a   7.49900086
_cell_length_b   7.49900159
_cell_length_c   9.46546300
_cell_angle_alpha   90.00000000
_cell_angle_beta   90.00000000
_cell_angle_gamma   119.87692665
_symmetry_Int_Tables_number   1
_chemical_formula_structural   Er2Sc2Al13Ga5Ir6
_chemical_formula_sum   'Er2 Sc2 Al13 Ga5 Ir6'
_cell_volume   461.54771646
_cell_formula_units_Z   1
loop_
 _symmetry_equiv_pos_site_id
 _symmetry_equiv_pos_as_xyz
  1  'x, y, z'
loop_
 _atom_site_type_symbol
 _atom_site_label
 _atom_site_symmetry_multiplicity
 _atom_site_fract_x
 _atom_site_fract_y
 _atom_site_fract_z
 _atom_site_occupancy
  Er  Er0  1  0.004036  0.331600  0.250000  1
  Er  Er1  1  0.331600  0.004036  0.250000  1
  Sc  Sc2  1  0.000569  0.668907  0.750000  1
  Sc  Sc3  1  0.668907  0.000569  0.750000  1
  Al  Al4  1  0.117716  0.117716  0.750000  1
  Al  Al5  1  0.997321  0.333820  0.580911  1
  Al  Al6  1  0.997281  0.666064  0.431910  1
  Al  Al7  1  0.997281  0.666064  0.068090  1
  Al  Al8  1  0.333820  0.997321  0.919089  1
  Al  Al9  1  0.997321  0.333820  0.919089  1
  Al  Al10  1  0.666064  0.997281  0.068090  1
  Al  Al11  1  0.666064  0.997281  0.431910  1
  Al  Al12  1  0.333820  0.997321  0.580911  1
  Al  Al13  1  0.334900  0.334900  0.049505  1
  Al  Al14  1  0.669769  0.669769  0.931964  1
  Al  Al15  1  0.669769  0.669769  0.568036  1
  Al  Al16  1  0.334900  0.334900  0.450495  1
  Ga  Ga17  1  0.871920  0.871920  0.250000  1
  Ga  Ga18  1  0.339997  0.551841  0.750000  1
  Ga  Ga19  1  0.661614  0.453693  0.250000  1
  Ga  Ga20  1  0.551841  0.339997  0.750000  1
  Ga  Ga21  1  0.453693  0.661614  0.250000  1
  Ir  Ir22  1  0.671632  0.327271  0.500305  1
  Ir  Ir23  1  0.327271  0.671632  0.500305  1
  Ir  Ir24  1  0.327271  0.671632  0.999695  1
  Ir  Ir25  1  0.671632  0.327271  0.999695  1
  Ir  Ir26  1  0.000994  0.000994  0.502843  1
  Ir  Ir27  1  0.000994  0.000994  0.997157  1
