# generated using pymatgen
data_YbY3(IrRu3)2
_symmetry_space_group_name_H-M   'P 1'
_cell_length_a   5.25376908
_cell_length_b   5.25376772
_cell_length_c   8.97757401
_cell_angle_alpha   89.99531386
_cell_angle_beta   90.00468532
_cell_angle_gamma   119.99190985
_symmetry_Int_Tables_number   1
_chemical_formula_structural   YbY3(IrRu3)2
_chemical_formula_sum   'Yb1 Y3 Ir2 Ru6'
_cell_volume   214.61835958
_cell_formula_units_Z   1
loop_
 _symmetry_equiv_pos_site_id
 _symmetry_equiv_pos_as_xyz
  1  'x, y, z'
loop_
 _atom_site_type_symbol
 _atom_site_label
 _atom_site_symmetry_multiplicity
 _atom_site_fract_x
 _atom_site_fract_y
 _atom_site_fract_z
 _atom_site_occupancy
  Yb  Yb0  1  0.666666  0.333334  0.933073  1
  Y  Y1  1  0.666667  0.333333  0.574219  1
  Y  Y2  1  0.333313  0.666687  0.430378  1
  Y  Y3  1  0.333317  0.666683  0.064505  1
  Ir  Ir4  1  0.999981  0.000019  0.499123  1
  Ir  Ir5  1  0.999981  0.000019  0.998900  1
  Ru  Ru6  1  0.170149  0.340185  0.749708  1
  Ru  Ru7  1  0.170107  0.829893  0.749706  1
  Ru  Ru8  1  0.659815  0.829851  0.749708  1
  Ru  Ru9  1  0.829549  0.659085  0.250233  1
  Ru  Ru10  1  0.829540  0.170460  0.250216  1
  Ru  Ru11  1  0.340915  0.170451  0.250233  1
