# generated using pymatgen
data_Ac2AgO5
_symmetry_space_group_name_H-M   'P 1'
_cell_length_a   7.23023719
_cell_length_b   7.23023616
_cell_length_c   7.23023600
_cell_angle_alpha   100.72662695
_cell_angle_beta   100.72662539
_cell_angle_gamma   128.88457389
_symmetry_Int_Tables_number   1
_chemical_formula_structural   Ac2AgO5
_chemical_formula_sum   'Ac4 Ag2 O10'
_cell_volume   265.42783276
_cell_formula_units_Z   2
loop_
 _symmetry_equiv_pos_site_id
 _symmetry_equiv_pos_as_xyz
  1  'x, y, z'
loop_
 _atom_site_type_symbol
 _atom_site_label
 _atom_site_symmetry_multiplicity
 _atom_site_fract_x
 _atom_site_fract_y
 _atom_site_fract_z
 _atom_site_occupancy
  Ac  Ac0  1  0.817201  0.386784  0.203984  1
  Ac  Ac1  1  0.386784  0.182799  0.569583  1
  Ac  Ac2  1  0.613216  0.817201  0.430417  1
  Ac  Ac3  1  0.182799  0.613216  0.796016  1
  Ag  Ag4  1  0.246213  0.246213  0.000000  1
  Ag  Ag5  1  0.753787  0.753787  0.000000  1
  O  O6  1  0.359369  0.069125  0.896613  1
  O  O7  1  0.069125  0.172513  0.709757  1
  O  O8  1  0.462756  0.359369  0.290243  1
  O  O9  1  0.172513  0.462756  0.103387  1
  O  O10  1  0.640631  0.930875  0.103387  1
  O  O11  1  0.930875  0.827487  0.290243  1
  O  O12  1  0.250000  0.750000  0.500000  1
  O  O13  1  0.750000  0.250000  0.500000  1
  O  O14  1  0.827487  0.537244  0.896613  1
  O  O15  1  0.537244  0.640631  0.709757  1
