# generated using pymatgen
data_Th3Ge4PdRh3
_symmetry_space_group_name_H-M   'P 1'
_cell_length_a   4.02275030
_cell_length_b   4.37949521
_cell_length_c   12.98815645
_cell_angle_alpha   99.70616853
_cell_angle_beta   98.90879805
_cell_angle_gamma   89.99999965
_symmetry_Int_Tables_number   1
_chemical_formula_structural   Th3Ge4PdRh3
_chemical_formula_sum   'Th3 Ge4 Pd1 Rh3'
_cell_volume   222.74380400
_cell_formula_units_Z   1
loop_
 _symmetry_equiv_pos_site_id
 _symmetry_equiv_pos_as_xyz
  1  'x, y, z'
loop_
 _atom_site_type_symbol
 _atom_site_label
 _atom_site_symmetry_multiplicity
 _atom_site_fract_x
 _atom_site_fract_y
 _atom_site_fract_z
 _atom_site_occupancy
  Th  Th0  1  0.996200  0.996200  0.992399  1
  Th  Th1  1  0.150965  0.650966  0.301931  1
  Th  Th2  1  0.851657  0.351658  0.703315  1
  Ge  Ge3  1  0.549611  0.549613  0.099224  1
  Ge  Ge4  1  0.695598  0.195599  0.391196  1
  Ge  Ge5  1  0.305662  0.805662  0.611323  1
  Ge  Ge6  1  0.450180  0.450180  0.900360  1
  Pd  Pd7  1  0.595822  0.095823  0.191644  1
  Rh  Rh8  1  0.252025  0.252025  0.504051  1
  Rh  Rh9  1  0.747846  0.747847  0.495694  1
  Rh  Rh10  1  0.404431  0.904432  0.808863  1
