# generated using pymatgen
data_NdGd2AuO7
_symmetry_space_group_name_H-M   'P 1'
_cell_length_a   6.60410727
_cell_length_b   6.60410773
_cell_length_c   7.61622000
_cell_angle_alpha   90.00000000
_cell_angle_beta   90.00000000
_cell_angle_gamma   109.14511734
_symmetry_Int_Tables_number   1
_chemical_formula_structural   NdGd2AuO7
_chemical_formula_sum   'Nd2 Gd4 Au2 O14'
_cell_volume   313.80329898
_cell_formula_units_Z   2
loop_
 _symmetry_equiv_pos_site_id
 _symmetry_equiv_pos_as_xyz
  1  'x, y, z'
loop_
 _atom_site_type_symbol
 _atom_site_label
 _atom_site_symmetry_multiplicity
 _atom_site_fract_x
 _atom_site_fract_y
 _atom_site_fract_z
 _atom_site_occupancy
  Nd  Nd0  1  0.500000  0.500000  0.500000  1
  Nd  Nd1  1  0.500000  0.500000  0.000000  1
  Gd  Gd2  1  0.998437  0.527372  0.250000  1
  Gd  Gd3  1  0.001563  0.472628  0.750000  1
  Gd  Gd4  1  0.527372  0.998437  0.750000  1
  Gd  Gd5  1  0.472628  0.001563  0.250000  1
  Au  Au6  1  0.000000  0.000000  0.500000  1
  Au  Au7  1  0.000000  0.000000  0.000000  1
  O  O8  1  0.925282  0.074718  0.750000  1
  O  O9  1  0.074718  0.925282  0.250000  1
  O  O10  1  0.358902  0.641098  0.250000  1
  O  O11  1  0.641098  0.358902  0.750000  1
  O  O12  1  0.364870  0.635130  0.750000  1
  O  O13  1  0.635130  0.364870  0.250000  1
  O  O14  1  0.326223  0.076948  0.976121  1
  O  O15  1  0.673777  0.923052  0.476121  1
  O  O16  1  0.326223  0.076948  0.523879  1
  O  O17  1  0.673777  0.923052  0.023879  1
  O  O18  1  0.076948  0.326223  0.476121  1
  O  O19  1  0.923052  0.673777  0.976121  1
  O  O20  1  0.923052  0.673777  0.523879  1
  O  O21  1  0.076948  0.326223  0.023879  1
