# generated using pymatgen
data_NdEr3(Si3Rh)2
_symmetry_space_group_name_H-M   'P 1'
_cell_length_a   8.17582700
_cell_length_b   8.17582685
_cell_length_c   7.95515900
_cell_angle_alpha   90.00000000
_cell_angle_beta   90.00000000
_cell_angle_gamma   119.99999654
_symmetry_Int_Tables_number   1
_chemical_formula_structural   NdEr3(Si3Rh)2
_chemical_formula_sum   'Nd2 Er6 Si12 Rh4'
_cell_volume   460.51405545
_cell_formula_units_Z   2
loop_
 _symmetry_equiv_pos_site_id
 _symmetry_equiv_pos_as_xyz
  1  'x, y, z'
loop_
 _atom_site_type_symbol
 _atom_site_label
 _atom_site_symmetry_multiplicity
 _atom_site_fract_x
 _atom_site_fract_y
 _atom_site_fract_z
 _atom_site_occupancy
  Nd  Nd0  1  0.000000  0.000000  0.250000  1
  Nd  Nd1  1  0.000000  0.000000  0.750000  1
  Er  Er2  1  0.492165  0.507835  0.250000  1
  Er  Er3  1  0.492165  0.984329  0.250000  1
  Er  Er4  1  0.015671  0.507835  0.250000  1
  Er  Er5  1  0.507835  0.492165  0.750000  1
  Er  Er6  1  0.984329  0.492165  0.750000  1
  Er  Er7  1  0.507835  0.015671  0.750000  1
  Si  Si8  1  0.831626  0.168374  0.502768  1
  Si  Si9  1  0.831626  0.663253  0.502768  1
  Si  Si10  1  0.336747  0.168374  0.502768  1
  Si  Si11  1  0.831626  0.168374  0.997232  1
  Si  Si12  1  0.831626  0.663253  0.997232  1
  Si  Si13  1  0.336747  0.168374  0.997232  1
  Si  Si14  1  0.168374  0.831626  0.002768  1
  Si  Si15  1  0.663253  0.831626  0.002768  1
  Si  Si16  1  0.168374  0.336747  0.002768  1
  Si  Si17  1  0.168374  0.831626  0.497232  1
  Si  Si18  1  0.663253  0.831626  0.497232  1
  Si  Si19  1  0.168374  0.336747  0.497232  1
  Rh  Rh20  1  0.666667  0.333333  0.464903  1
  Rh  Rh21  1  0.666667  0.333333  0.035097  1
  Rh  Rh22  1  0.333333  0.666667  0.964903  1
  Rh  Rh23  1  0.333333  0.666667  0.535097  1
