# generated using pymatgen
data_Nd4Dy2Al24GaOs7
_symmetry_space_group_name_H-M   'P 1'
_cell_length_a   8.93991374
_cell_length_b   8.93991529
_cell_length_c   9.63036707
_cell_angle_alpha   90.22947107
_cell_angle_beta   89.77052675
_cell_angle_gamma   120.00207515
_symmetry_Int_Tables_number   1
_chemical_formula_structural   Nd4Dy2Al24GaOs7
_chemical_formula_sum   'Nd4 Dy2 Al24 Ga1 Os7'
_cell_volume   666.54040205
_cell_formula_units_Z   1
loop_
 _symmetry_equiv_pos_site_id
 _symmetry_equiv_pos_as_xyz
  1  'x, y, z'
loop_
 _atom_site_type_symbol
 _atom_site_label
 _atom_site_symmetry_multiplicity
 _atom_site_fract_x
 _atom_site_fract_y
 _atom_site_fract_z
 _atom_site_occupancy
  Nd  Nd0  1  0.191377  0.381565  0.244306  1
  Nd  Nd1  1  0.808623  0.618435  0.755694  1
  Nd  Nd2  1  0.618435  0.808623  0.244306  1
  Nd  Nd3  1  0.381565  0.191377  0.755694  1
  Dy  Dy4  1  0.193888  0.806112  0.256375  1
  Dy  Dy5  1  0.806112  0.193888  0.743625  1
  Al  Al6  1  0.325994  0.674006  0.019616  1
  Al  Al7  1  0.674006  0.325994  0.980384  1
  Al  Al8  1  0.666143  0.333857  0.516435  1
  Al  Al9  1  0.333857  0.666143  0.483565  1
  Al  Al10  1  0.161206  0.326156  0.571036  1
  Al  Al11  1  0.838794  0.673844  0.428964  1
  Al  Al12  1  0.673844  0.838794  0.571036  1
  Al  Al13  1  0.854195  0.678730  0.081739  1
  Al  Al14  1  0.326156  0.161206  0.428964  1
  Al  Al15  1  0.145805  0.321270  0.918261  1
  Al  Al16  1  0.163125  0.836875  0.574633  1
  Al  Al17  1  0.321270  0.145805  0.081739  1
  Al  Al18  1  0.836875  0.163125  0.425367  1
  Al  Al19  1  0.678730  0.854195  0.918261  1
  Al  Al20  1  0.836620  0.163380  0.074844  1
  Al  Al21  1  0.163380  0.836620  0.925156  1
  Al  Al22  1  0.561094  0.121343  0.249380  1
  Al  Al23  1  0.438906  0.878657  0.750620  1
  Al  Al24  1  0.878657  0.438906  0.249380  1
  Al  Al25  1  0.121343  0.561094  0.750620  1
  Al  Al26  1  0.567405  0.432595  0.259851  1
  Al  Al27  1  0.432595  0.567405  0.740149  1
  Al  Al28  1  0.000413  0.999587  0.250794  1
  Al  Al29  1  0.999587  0.000413  0.749206  1
  Ga  Ga30  1  0.500000  0.500000  0.000000  1
  Os  Os31  1  0.500000  0.000000  0.000000  1
  Os  Os32  1  0.000000  0.500000  0.000000  1
  Os  Os33  1  0.500000  0.000000  0.500000  1
  Os  Os34  1  0.000000  0.500000  0.500000  1
  Os  Os35  1  0.500000  0.500000  0.500000  1
  Os  Os36  1  0.000000  0.000000  0.000000  1
  Os  Os37  1  0.000000  0.000000  0.500000  1
