# generated using pymatgen
data_Rb3Li2TiSb3
_symmetry_space_group_name_H-M   'P 1'
_cell_length_a   11.07080169
_cell_length_b   11.07080277
_cell_length_c   16.55639400
_cell_angle_alpha   90.00000000
_cell_angle_beta   90.00000000
_cell_angle_gamma   143.13394043
_symmetry_Int_Tables_number   1
_chemical_formula_structural   Rb3Li2TiSb3
_chemical_formula_sum   'Rb12 Li8 Ti4 Sb12'
_cell_volume   1217.40868680
_cell_formula_units_Z   4
loop_
 _symmetry_equiv_pos_site_id
 _symmetry_equiv_pos_as_xyz
  1  'x, y, z'
loop_
 _atom_site_type_symbol
 _atom_site_label
 _atom_site_symmetry_multiplicity
 _atom_site_fract_x
 _atom_site_fract_y
 _atom_site_fract_z
 _atom_site_occupancy
  Rb  Rb0  1  0.602792  0.943331  0.829454  1
  Rb  Rb1  1  0.279788  0.279788  0.322647  1
  Rb  Rb2  1  0.220212  0.220212  0.822647  1
  Rb  Rb3  1  0.720212  0.720212  0.677353  1
  Rb  Rb4  1  0.443331  0.102792  0.670546  1
  Rb  Rb5  1  0.897208  0.556669  0.329454  1
  Rb  Rb6  1  0.056669  0.397208  0.170546  1
  Rb  Rb7  1  0.397208  0.056669  0.170546  1
  Rb  Rb8  1  0.556669  0.897208  0.329454  1
  Rb  Rb9  1  0.102792  0.443331  0.670546  1
  Rb  Rb10  1  0.943331  0.602792  0.829454  1
  Rb  Rb11  1  0.779788  0.779788  0.177353  1
  Li  Li12  1  0.082063  0.917937  0.000000  1
  Li  Li13  1  0.582063  0.417937  0.500000  1
  Li  Li14  1  0.917937  0.082063  0.000000  1
  Li  Li15  1  0.749429  0.250571  0.000000  1
  Li  Li16  1  0.750571  0.249429  0.500000  1
  Li  Li17  1  0.250571  0.749429  0.000000  1
  Li  Li18  1  0.249429  0.750571  0.500000  1
  Li  Li19  1  0.417937  0.582063  0.500000  1
  Ti  Ti20  1  0.086188  0.913812  0.500000  1
  Ti  Ti21  1  0.413812  0.586188  0.000000  1
  Ti  Ti22  1  0.913812  0.086188  0.500000  1
  Ti  Ti23  1  0.586188  0.413812  0.000000  1
  Sb  Sb24  1  0.068435  0.389961  0.410811  1
  Sb  Sb25  1  0.889961  0.568435  0.089189  1
  Sb  Sb26  1  0.431565  0.110039  0.910811  1
  Sb  Sb27  1  0.610039  0.931565  0.589189  1
  Sb  Sb28  1  0.931565  0.610039  0.589189  1
  Sb  Sb29  1  0.110039  0.431565  0.910811  1
  Sb  Sb30  1  0.568435  0.889961  0.089189  1
  Sb  Sb31  1  0.389961  0.068435  0.410811  1
  Sb  Sb32  1  0.219941  0.219941  0.585051  1
  Sb  Sb33  1  0.719941  0.719941  0.914949  1
  Sb  Sb34  1  0.280059  0.280059  0.085051  1
  Sb  Sb35  1  0.780059  0.780059  0.414949  1
