# generated using pymatgen
data_La3Er7(InSb)4
_symmetry_space_group_name_H-M   'P 1'
_cell_length_a   9.24824616
_cell_length_b   8.51853363
_cell_length_c   8.23098300
_cell_angle_alpha   89.85572011
_cell_angle_beta   90.08061963
_cell_angle_gamma   125.05457321
_symmetry_Int_Tables_number   1
_chemical_formula_structural   La3Er7(InSb)4
_chemical_formula_sum   'La3 Er7 In4 Sb4'
_cell_volume   530.82226336
_cell_formula_units_Z   1
loop_
 _symmetry_equiv_pos_site_id
 _symmetry_equiv_pos_as_xyz
  1  'x, y, z'
loop_
 _atom_site_type_symbol
 _atom_site_label
 _atom_site_symmetry_multiplicity
 _atom_site_fract_x
 _atom_site_fract_y
 _atom_site_fract_z
 _atom_site_occupancy
  La  La0  1  0.054897  0.361935  0.317172  1
  La  La1  1  0.946331  0.643323  0.682600  1
  La  La2  1  0.444378  0.141171  0.818801  1
  Er  Er3  1  0.778171  0.516562  0.159142  1
  Er  Er4  1  0.553474  0.844656  0.179998  1
  Er  Er5  1  0.221510  0.483221  0.838460  1
  Er  Er6  1  0.724897  0.988379  0.658626  1
  Er  Er7  1  0.277080  0.015920  0.339338  1
  Er  Er8  1  0.999735  0.999656  0.001414  1
  Er  Er9  1  0.500928  0.502262  0.498585  1
  In  In10  1  0.373279  0.377984  0.128643  1
  In  In11  1  0.627621  0.629016  0.872642  1
  In  In12  1  0.125757  0.125143  0.627171  1
  In  In13  1  0.869053  0.876898  0.367268  1
  Sb  Sb14  1  0.816867  0.224336  0.970883  1
  Sb  Sb15  1  0.182056  0.763058  0.042163  1
  Sb  Sb16  1  0.672861  0.266587  0.463169  1
  Sb  Sb17  1  0.331107  0.739894  0.533926  1
