# generated using pymatgen
data_Ho8Er8MgCd3Ir4
_symmetry_space_group_name_H-M   'P 1'
_cell_length_a   9.60962951
_cell_length_b   9.60962940
_cell_length_c   9.61271922
_cell_angle_alpha   59.72467330
_cell_angle_beta   59.72466998
_cell_angle_gamma   59.75382004
_symmetry_Int_Tables_number   1
_chemical_formula_structural   Ho8Er8MgCd3Ir4
_chemical_formula_sum   'Ho8 Er8 Mg1 Cd3 Ir4'
_cell_volume   623.90266015
_cell_formula_units_Z   1
loop_
 _symmetry_equiv_pos_site_id
 _symmetry_equiv_pos_as_xyz
  1  'x, y, z'
loop_
 _atom_site_type_symbol
 _atom_site_label
 _atom_site_symmetry_multiplicity
 _atom_site_fract_x
 _atom_site_fract_y
 _atom_site_fract_z
 _atom_site_occupancy
  Ho  Ho0  1  0.439439  0.439439  0.059969  1
  Ho  Ho1  1  0.061847  0.061847  0.437012  1
  Ho  Ho2  1  0.189059  0.812908  0.812831  1
  Ho  Ho3  1  0.812303  0.187750  0.187755  1
  Ho  Ho4  1  0.812908  0.189059  0.812831  1
  Ho  Ho5  1  0.187750  0.812303  0.187755  1
  Ho  Ho6  1  0.812823  0.812823  0.189104  1
  Ho  Ho7  1  0.187812  0.187812  0.812229  1
  Er  Er8  1  0.599435  0.599435  0.599157  1
  Er  Er9  1  0.598440  0.598440  0.205457  1
  Er  Er10  1  0.598267  0.205418  0.598439  1
  Er  Er11  1  0.205418  0.598267  0.598439  1
  Er  Er12  1  0.059805  0.439638  0.439617  1
  Er  Er13  1  0.437120  0.061657  0.061687  1
  Er  Er14  1  0.439638  0.059805  0.439617  1
  Er  Er15  1  0.061657  0.437120  0.061687  1
  Mg  Mg16  1  0.825724  0.825724  0.825857  1
  Cd  Cd17  1  0.831128  0.831128  0.506254  1
  Cd  Cd18  1  0.831253  0.506221  0.831144  1
  Cd  Cd19  1  0.506221  0.831253  0.831144  1
  Ir  Ir20  1  0.391669  0.391669  0.392342  1
  Ir  Ir21  1  0.392480  0.392480  0.824664  1
  Ir  Ir22  1  0.393140  0.824667  0.392506  1
  Ir  Ir23  1  0.824667  0.393140  0.392506  1
