# generated using pymatgen
data_LaYb9Rh2
_symmetry_space_group_name_H-M   'P 1'
_cell_length_a   6.68060777
_cell_length_b   7.43771706
_cell_length_c   16.04163200
_cell_angle_alpha   90.00000000
_cell_angle_beta   90.00000000
_cell_angle_gamma   90.41241638
_symmetry_Int_Tables_number   1
_chemical_formula_structural   LaYb9Rh2
_chemical_formula_sum   'La2 Yb18 Rh4'
_cell_volume   797.06350748
_cell_formula_units_Z   2
loop_
 _symmetry_equiv_pos_site_id
 _symmetry_equiv_pos_as_xyz
  1  'x, y, z'
loop_
 _atom_site_type_symbol
 _atom_site_label
 _atom_site_symmetry_multiplicity
 _atom_site_fract_x
 _atom_site_fract_y
 _atom_site_fract_z
 _atom_site_occupancy
  La  La0  1  0.155400  0.090141  0.250000  1
  La  La1  1  0.844600  0.909859  0.750000  1
  Yb  Yb2  1  0.353989  0.312287  0.062940  1
  Yb  Yb3  1  0.646011  0.687713  0.937060  1
  Yb  Yb4  1  0.855584  0.191017  0.938913  1
  Yb  Yb5  1  0.646011  0.687713  0.562940  1
  Yb  Yb6  1  0.144416  0.808983  0.061087  1
  Yb  Yb7  1  0.353989  0.312287  0.437060  1
  Yb  Yb8  1  0.144416  0.808983  0.438913  1
  Yb  Yb9  1  0.855584  0.191017  0.561087  1
  Yb  Yb10  1  0.657927  0.404654  0.750000  1
  Yb  Yb11  1  0.342073  0.595346  0.250000  1
  Yb  Yb12  1  0.325290  0.036126  0.645843  1
  Yb  Yb13  1  0.674710  0.963874  0.354157  1
  Yb  Yb14  1  0.824642  0.462586  0.353959  1
  Yb  Yb15  1  0.674710  0.963874  0.145843  1
  Yb  Yb16  1  0.175358  0.537414  0.646041  1
  Yb  Yb17  1  0.325290  0.036126  0.854157  1
  Yb  Yb18  1  0.175358  0.537414  0.853959  1
  Yb  Yb19  1  0.824642  0.462586  0.146041  1
  Rh  Rh20  1  0.526002  0.258474  0.250000  1
  Rh  Rh21  1  0.473998  0.741526  0.750000  1
  Rh  Rh22  1  0.030621  0.232302  0.750000  1
  Rh  Rh23  1  0.969379  0.767698  0.250000  1
