# generated using pymatgen
data_DyHo2U2Ga15
_symmetry_space_group_name_H-M   'P 1'
_cell_length_a   12.40566752
_cell_length_b   12.40566822
_cell_length_c   12.40566800
_cell_angle_alpha   28.67161852
_cell_angle_beta   28.67161262
_cell_angle_gamma   28.67161941
_symmetry_Int_Tables_number   1
_chemical_formula_structural   DyHo2U2Ga15
_chemical_formula_sum   'Dy1 Ho2 U2 Ga15'
_cell_volume   388.55301777
_cell_formula_units_Z   1
loop_
 _symmetry_equiv_pos_site_id
 _symmetry_equiv_pos_as_xyz
  1  'x, y, z'
loop_
 _atom_site_type_symbol
 _atom_site_label
 _atom_site_symmetry_multiplicity
 _atom_site_fract_x
 _atom_site_fract_y
 _atom_site_fract_z
 _atom_site_occupancy
  Dy  Dy0  1  0.000000  0.000000  0.000000  1
  Ho  Ho1  1  0.400571  0.400571  0.400571  1
  Ho  Ho2  1  0.599429  0.599429  0.599429  1
  U  U3  1  0.129921  0.129921  0.129921  1
  U  U4  1  0.870079  0.870079  0.870079  1
  Ga  Ga5  1  0.433490  0.882236  0.882236  1
  Ga  Ga6  1  0.882236  0.882236  0.433490  1
  Ga  Ga7  1  0.882236  0.433490  0.882236  1
  Ga  Ga8  1  0.117764  0.566510  0.117764  1
  Ga  Ga9  1  0.117764  0.117764  0.566510  1
  Ga  Ga10  1  0.566510  0.117764  0.117764  1
  Ga  Ga11  1  0.128337  0.636705  0.636705  1
  Ga  Ga12  1  0.636705  0.636705  0.128337  1
  Ga  Ga13  1  0.636705  0.128337  0.636705  1
  Ga  Ga14  1  0.363295  0.871663  0.363295  1
  Ga  Ga15  1  0.363295  0.363295  0.871663  1
  Ga  Ga16  1  0.871663  0.363295  0.363295  1
  Ga  Ga17  1  0.500000  0.500000  0.000000  1
  Ga  Ga18  1  0.500000  0.000000  0.500000  1
  Ga  Ga19  1  0.000000  0.500000  0.500000  1
