# generated using pymatgen
data_TaTiCo4(Si2Mo)2
_symmetry_space_group_name_H-M   'P 1'
_cell_length_a   3.60956700
_cell_length_b   6.16529216
_cell_length_c   6.99901619
_cell_angle_alpha   90.02621503
_cell_angle_beta   90.00000000
_cell_angle_gamma   90.00000000
_symmetry_Int_Tables_number   1
_chemical_formula_structural   TaTiCo4(Si2Mo)2
_chemical_formula_sum   'Ta1 Ti1 Co4 Si4 Mo2'
_cell_volume   155.75633572
_cell_formula_units_Z   1
loop_
 _symmetry_equiv_pos_site_id
 _symmetry_equiv_pos_as_xyz
  1  'x, y, z'
loop_
 _atom_site_type_symbol
 _atom_site_label
 _atom_site_symmetry_multiplicity
 _atom_site_fract_x
 _atom_site_fract_y
 _atom_site_fract_z
 _atom_site_occupancy
  Ta  Ta0  1  0.250000  0.522324  0.677954  1
  Ti  Ti1  1  0.750000  0.981046  0.180565  1
  Co  Co2  1  0.250000  0.646092  0.060994  1
  Co  Co3  1  0.750000  0.363722  0.936102  1
  Co  Co4  1  0.250000  0.137483  0.435621  1
  Co  Co5  1  0.750000  0.849757  0.560889  1
  Si  Si6  1  0.750000  0.735033  0.882344  1
  Si  Si7  1  0.250000  0.770992  0.373300  1
  Si  Si8  1  0.750000  0.216752  0.619502  1
  Si  Si9  1  0.250000  0.276622  0.120289  1
  Mo  Mo10  1  0.250000  0.026997  0.825943  1
  Mo  Mo11  1  0.750000  0.473182  0.326497  1
