# generated using pymatgen
data_YPu(BC)4
_symmetry_space_group_name_H-M   'P 1'
_cell_length_a   5.36155000
_cell_length_b   5.36155000
_cell_length_c   3.62851800
_cell_angle_alpha   90.00000000
_cell_angle_beta   90.00000000
_cell_angle_gamma   90.00000000
_symmetry_Int_Tables_number   1
_chemical_formula_structural   YPu(BC)4
_chemical_formula_sum   'Y1 Pu1 B4 C4'
_cell_volume   104.30617091
_cell_formula_units_Z   1
loop_
 _symmetry_equiv_pos_site_id
 _symmetry_equiv_pos_as_xyz
  1  'x, y, z'
loop_
 _atom_site_type_symbol
 _atom_site_label
 _atom_site_symmetry_multiplicity
 _atom_site_fract_x
 _atom_site_fract_y
 _atom_site_fract_z
 _atom_site_occupancy
  Y  Y0  1  0.000000  0.000000  0.000000  1
  Pu  Pu1  1  0.500000  0.500000  0.000000  1
  B  B2  1  0.862727  0.363546  0.500000  1
  B  B3  1  0.137273  0.636454  0.500000  1
  B  B4  1  0.363546  0.137273  0.500000  1
  B  B5  1  0.636454  0.862727  0.500000  1
  C  C6  1  0.661427  0.162308  0.500000  1
  C  C7  1  0.338573  0.837692  0.500000  1
  C  C8  1  0.162308  0.338573  0.500000  1
  C  C9  1  0.837692  0.661427  0.500000  1
