# generated using pymatgen
data_Ba4CaEu3Sn4
_symmetry_space_group_name_H-M   'P 1'
_cell_length_a   5.36458700
_cell_length_b   8.93518354
_cell_length_c   9.89969953
_cell_angle_alpha   89.82456916
_cell_angle_beta   90.00000000
_cell_angle_gamma   90.00000000
_symmetry_Int_Tables_number   1
_chemical_formula_structural   Ba4CaEu3Sn4
_chemical_formula_sum   'Ba4 Ca1 Eu3 Sn4'
_cell_volume   474.52571049
_cell_formula_units_Z   1
loop_
 _symmetry_equiv_pos_site_id
 _symmetry_equiv_pos_as_xyz
  1  'x, y, z'
loop_
 _atom_site_type_symbol
 _atom_site_label
 _atom_site_symmetry_multiplicity
 _atom_site_fract_x
 _atom_site_fract_y
 _atom_site_fract_z
 _atom_site_occupancy
  Ba  Ba0  1  0.250000  0.020833  0.181675  1
  Ba  Ba1  1  0.750000  0.978960  0.818427  1
  Ba  Ba2  1  0.250000  0.521740  0.320461  1
  Ba  Ba3  1  0.750000  0.477384  0.680565  1
  Ca  Ca4  1  0.250000  0.144376  0.571847  1
  Eu  Eu5  1  0.750000  0.855402  0.426948  1
  Eu  Eu6  1  0.250000  0.645123  0.926348  1
  Eu  Eu7  1  0.750000  0.354785  0.073460  1
  Sn  Sn8  1  0.250000  0.271273  0.887755  1
  Sn  Sn9  1  0.750000  0.227138  0.393889  1
  Sn  Sn10  1  0.250000  0.774656  0.608916  1
  Sn  Sn11  1  0.750000  0.728330  0.109709  1
