# generated using pymatgen
data_Rb8Dy(WBr8)3
_symmetry_space_group_name_H-M   'P 1'
_cell_length_a   13.35787834
_cell_length_b   13.35787781
_cell_length_c   13.35787836
_cell_angle_alpha   131.90359384
_cell_angle_beta   131.90359226
_cell_angle_gamma   70.38133046
_symmetry_Int_Tables_number   1
_chemical_formula_structural   Rb8Dy(WBr8)3
_chemical_formula_sum   'Rb8 Dy1 W3 Br24'
_cell_volume   1293.86046810
_cell_formula_units_Z   1
loop_
 _symmetry_equiv_pos_site_id
 _symmetry_equiv_pos_as_xyz
  1  'x, y, z'
loop_
 _atom_site_type_symbol
 _atom_site_label
 _atom_site_symmetry_multiplicity
 _atom_site_fract_x
 _atom_site_fract_y
 _atom_site_fract_z
 _atom_site_occupancy
  Rb  Rb0  1  0.117805  0.639706  0.998378  1
  Rb  Rb1  1  0.360294  0.882195  0.001622  1
  Rb  Rb2  1  0.641328  0.639706  0.521901  1
  Rb  Rb3  1  0.360294  0.358672  0.478099  1
  Rb  Rb4  1  0.880573  0.358672  0.998378  1
  Rb  Rb5  1  0.880573  0.882195  0.521901  1
  Rb  Rb6  1  0.117805  0.119427  0.478099  1
  Rb  Rb7  1  0.641328  0.119427  0.001622  1
  Dy  Dy8  1  0.000000  0.000000  0.000000  1
  W  W9  1  0.750000  0.250000  0.500000  1
  W  W10  1  0.500000  0.500000  0.000000  1
  W  W11  1  0.250000  0.750000  0.500000  1
  Br  Br12  1  0.256021  0.999670  0.256351  1
  Br  Br13  1  0.000330  0.743979  0.743649  1
  Br  Br14  1  0.251794  0.985161  0.733368  1
  Br  Br15  1  0.748706  0.482710  0.734006  1
  Br  Br16  1  0.481574  0.748206  0.733368  1
  Br  Br17  1  0.127960  0.127960  0.000000  1
  Br  Br18  1  0.499572  0.732959  0.233387  1
  Br  Br19  1  0.866485  0.366485  0.500000  1
  Br  Br20  1  0.000330  0.256681  0.256351  1
  Br  Br21  1  0.383469  0.383469  0.000000  1
  Br  Br22  1  0.616531  0.616531  0.000000  1
  Br  Br23  1  0.499572  0.266185  0.766613  1
  Br  Br24  1  0.267041  0.500428  0.766613  1
  Br  Br25  1  0.517290  0.251294  0.265994  1
  Br  Br26  1  0.366058  0.866058  0.500000  1
  Br  Br27  1  0.633515  0.133515  0.500000  1
  Br  Br28  1  0.251794  0.518426  0.266632  1
  Br  Br29  1  0.133942  0.633942  0.500000  1
  Br  Br30  1  0.014839  0.748206  0.266632  1
  Br  Br31  1  0.985300  0.251294  0.734006  1
  Br  Br32  1  0.743319  0.999670  0.743649  1
  Br  Br33  1  0.733815  0.500428  0.233387  1
  Br  Br34  1  0.748706  0.014700  0.265994  1
  Br  Br35  1  0.872040  0.872040  0.000000  1
