# generated using pymatgen
data_Dy4Y16Cd3Ru2Au3
_symmetry_space_group_name_H-M   'P 1'
_cell_length_a   9.62338600
_cell_length_b   9.62338535
_cell_length_c   9.64987700
_cell_angle_alpha   90.00000000
_cell_angle_beta   90.00000000
_cell_angle_gamma   120.00000222
_symmetry_Int_Tables_number   1
_chemical_formula_structural   Dy4Y16Cd3Ru2Au3
_chemical_formula_sum   'Dy4 Y16 Cd3 Ru2 Au3'
_cell_volume   773.94158485
_cell_formula_units_Z   1
loop_
 _symmetry_equiv_pos_site_id
 _symmetry_equiv_pos_as_xyz
  1  'x, y, z'
loop_
 _atom_site_type_symbol
 _atom_site_label
 _atom_site_symmetry_multiplicity
 _atom_site_fract_x
 _atom_site_fract_y
 _atom_site_fract_z
 _atom_site_occupancy
  Dy  Dy0  1  0.000000  0.000000  0.459801  1
  Dy  Dy1  1  0.540587  0.459413  0.250138  1
  Dy  Dy2  1  0.540587  0.081173  0.250138  1
  Dy  Dy3  1  0.918827  0.459413  0.250138  1
  Y  Y4  1  0.000000  0.000000  0.038308  1
  Y  Y5  1  0.209367  0.790633  0.440165  1
  Y  Y6  1  0.209367  0.418735  0.440165  1
  Y  Y7  1  0.581265  0.790633  0.440165  1
  Y  Y8  1  0.791624  0.208376  0.558331  1
  Y  Y9  1  0.791624  0.583246  0.558331  1
  Y  Y10  1  0.416754  0.208376  0.558331  1
  Y  Y11  1  0.791531  0.208469  0.941579  1
  Y  Y12  1  0.791531  0.583059  0.941579  1
  Y  Y13  1  0.416941  0.208469  0.941579  1
  Y  Y14  1  0.209557  0.790443  0.060025  1
  Y  Y15  1  0.209557  0.419116  0.060025  1
  Y  Y16  1  0.580884  0.790443  0.060025  1
  Y  Y17  1  0.458662  0.541338  0.749816  1
  Y  Y18  1  0.458662  0.917325  0.749816  1
  Y  Y19  1  0.082675  0.541338  0.749816  1
  Cd  Cd20  1  0.109822  0.890178  0.749970  1
  Cd  Cd21  1  0.109822  0.219644  0.749970  1
  Cd  Cd22  1  0.780356  0.890178  0.749970  1
  Ru  Ru23  1  0.333333  0.666667  0.250166  1
  Ru  Ru24  1  0.666667  0.333333  0.750021  1
  Au  Au25  1  0.869387  0.130613  0.250545  1
  Au  Au26  1  0.869387  0.738773  0.250545  1
  Au  Au27  1  0.261227  0.130613  0.250545  1
