# generated using pymatgen
data_Tb6HoTm(MoO6)4
_symmetry_space_group_name_H-M   'P 1'
_cell_length_a   9.96893899
_cell_length_b   9.96893761
_cell_length_c   5.39738663
_cell_angle_alpha   74.96830730
_cell_angle_beta   74.96830687
_cell_angle_gamma   68.13430280
_symmetry_Int_Tables_number   1
_chemical_formula_structural   Tb6HoTm(MoO6)4
_chemical_formula_sum   'Tb6 Ho1 Tm1 Mo4 O24'
_cell_volume   472.77569124
_cell_formula_units_Z   1
loop_
 _symmetry_equiv_pos_site_id
 _symmetry_equiv_pos_as_xyz
  1  'x, y, z'
loop_
 _atom_site_type_symbol
 _atom_site_label
 _atom_site_symmetry_multiplicity
 _atom_site_fract_x
 _atom_site_fract_y
 _atom_site_fract_z
 _atom_site_occupancy
  Tb  Tb0  1  0.551809  0.783774  0.622195  1
  Tb  Tb1  1  0.783863  0.551114  0.122688  1
  Tb  Tb2  1  0.448886  0.216137  0.377312  1
  Tb  Tb3  1  0.216226  0.448191  0.877805  1
  Tb  Tb4  1  0.862749  0.137251  0.250000  1
  Tb  Tb5  1  0.136644  0.863356  0.750000  1
  Ho  Ho6  1  0.395412  0.604588  0.250000  1
  Tm  Tm7  1  0.603817  0.396183  0.750000  1
  Mo  Mo8  1  0.296353  0.011494  0.062404  1
  Mo  Mo9  1  0.988506  0.703647  0.437596  1
  Mo  Mo10  1  0.703538  0.988873  0.936956  1
  Mo  Mo11  1  0.011127  0.296462  0.563044  1
  O  O12  1  0.608993  0.570504  0.922055  1
  O  O13  1  0.429496  0.391007  0.577945  1
  O  O14  1  0.392334  0.428052  0.075867  1
  O  O15  1  0.571948  0.607666  0.424133  1
  O  O16  1  0.337588  0.806337  0.924540  1
  O  O17  1  0.193663  0.662412  0.575460  1
  O  O18  1  0.662301  0.195139  0.072034  1
  O  O19  1  0.804861  0.337699  0.427966  1
  O  O20  1  0.326792  0.886023  0.375759  1
  O  O21  1  0.113977  0.673208  0.124241  1
  O  O22  1  0.673428  0.113546  0.623221  1
  O  O23  1  0.886454  0.326572  0.876779  1
  O  O24  1  0.183800  0.289634  0.634496  1
  O  O25  1  0.710366  0.816200  0.865504  1
  O  O26  1  0.816207  0.710596  0.365179  1
  O  O27  1  0.289404  0.183793  0.134821  1
  O  O28  1  0.047857  0.111648  0.514318  1
  O  O29  1  0.888352  0.952143  0.985682  1
  O  O30  1  0.431576  0.024227  0.756563  1
  O  O31  1  0.111438  0.048034  0.014513  1
  O  O32  1  0.023835  0.431340  0.256546  1
  O  O33  1  0.568660  0.976165  0.243454  1
  O  O34  1  0.975773  0.568424  0.743437  1
  O  O35  1  0.951966  0.888562  0.485487  1
