# generated using pymatgen
data_DyLu3Cd2(CuNi)2
_symmetry_space_group_name_H-M   'P 1'
_cell_length_a   7.38209728
_cell_length_b   7.38209668
_cell_length_c   3.63846500
_cell_angle_alpha   90.00000000
_cell_angle_beta   90.00000000
_cell_angle_gamma   90.45768639
_symmetry_Int_Tables_number   1
_chemical_formula_structural   DyLu3Cd2(CuNi)2
_chemical_formula_sum   'Dy1 Lu3 Cd2 Cu2 Ni2'
_cell_volume   198.27311892
_cell_formula_units_Z   1
loop_
 _symmetry_equiv_pos_site_id
 _symmetry_equiv_pos_as_xyz
  1  'x, y, z'
loop_
 _atom_site_type_symbol
 _atom_site_label
 _atom_site_symmetry_multiplicity
 _atom_site_fract_x
 _atom_site_fract_y
 _atom_site_fract_z
 _atom_site_occupancy
  Dy  Dy0  1  0.316738  0.816738  0.500000  1
  Lu  Lu1  1  0.684160  0.184160  0.500000  1
  Lu  Lu2  1  0.163378  0.333828  0.500000  1
  Lu  Lu3  1  0.833828  0.663378  0.500000  1
  Cd  Cd4  1  0.998065  0.001194  0.000000  1
  Cd  Cd5  1  0.501194  0.498065  0.000000  1
  Cu  Cu6  1  0.624979  0.880266  0.000000  1
  Cu  Cu7  1  0.380266  0.124979  0.000000  1
  Ni  Ni8  1  0.118912  0.618912  0.000000  1
  Ni  Ni9  1  0.878479  0.378479  0.000000  1
