# generated using pymatgen
data_EuLu3(Ga2Ag)4
_symmetry_space_group_name_H-M   'P 1'
_cell_length_a   4.37134200
_cell_length_b   6.93367526
_cell_length_c   10.29958987
_cell_angle_alpha   90.74744855
_cell_angle_beta   90.00000000
_cell_angle_gamma   90.00000000
_symmetry_Int_Tables_number   1
_chemical_formula_structural   EuLu3(Ga2Ag)4
_chemical_formula_sum   'Eu1 Lu3 Ga8 Ag4'
_cell_volume   312.14850461
_cell_formula_units_Z   1
loop_
 _symmetry_equiv_pos_site_id
 _symmetry_equiv_pos_as_xyz
  1  'x, y, z'
loop_
 _atom_site_type_symbol
 _atom_site_label
 _atom_site_symmetry_multiplicity
 _atom_site_fract_x
 _atom_site_fract_y
 _atom_site_fract_z
 _atom_site_occupancy
  Eu  Eu0  1  0.250000  0.277859  0.675847  1
  Lu  Lu1  1  0.250000  0.777069  0.829245  1
  Lu  Lu2  1  0.750000  0.221455  0.173684  1
  Lu  Lu3  1  0.750000  0.724305  0.325899  1
  Ga  Ga4  1  0.250000  0.924375  0.156891  1
  Ga  Ga5  1  0.750000  0.064205  0.848158  1
  Ga  Ga6  1  0.750000  0.579138  0.653512  1
  Ga  Ga7  1  0.250000  0.433160  0.342609  1
  Ga  Ga8  1  0.250000  0.710884  0.534797  1
  Ga  Ga9  1  0.750000  0.302270  0.460977  1
  Ga  Ga10  1  0.750000  0.795873  0.038610  1
  Ga  Ga11  1  0.250000  0.189946  0.968725  1
  Ag  Ag12  1  0.250000  0.541549  0.094886  1
  Ag  Ag13  1  0.750000  0.455372  0.906065  1
  Ag  Ag14  1  0.750000  0.955450  0.591908  1
  Ag  Ag15  1  0.250000  0.047088  0.398188  1
