# generated using pymatgen
data_Be6V4GaAs
_symmetry_space_group_name_H-M   'P 1'
_cell_length_a   4.45801600
_cell_length_b   4.45801591
_cell_length_c   7.43972300
_cell_angle_alpha   90.00000000
_cell_angle_beta   90.00000000
_cell_angle_gamma   120.00000068
_symmetry_Int_Tables_number   1
_chemical_formula_structural   Be6V4GaAs
_chemical_formula_sum   'Be6 V4 Ga1 As1'
_cell_volume   128.04736073
_cell_formula_units_Z   1
loop_
 _symmetry_equiv_pos_site_id
 _symmetry_equiv_pos_as_xyz
  1  'x, y, z'
loop_
 _atom_site_type_symbol
 _atom_site_label
 _atom_site_symmetry_multiplicity
 _atom_site_fract_x
 _atom_site_fract_y
 _atom_site_fract_z
 _atom_site_occupancy
  Be  Be0  1  0.822319  0.644637  0.247698  1
  Be  Be1  1  0.177681  0.822319  0.752302  1
  Be  Be2  1  0.644637  0.822319  0.752302  1
  Be  Be3  1  0.355363  0.177681  0.247698  1
  Be  Be4  1  0.822319  0.177681  0.247698  1
  Be  Be5  1  0.177681  0.355363  0.752302  1
  V  V6  1  0.333333  0.666667  0.068413  1
  V  V7  1  0.666667  0.333333  0.565094  1
  V  V8  1  0.666667  0.333333  0.931587  1
  V  V9  1  0.333333  0.666667  0.434906  1
  Ga  Ga10  1  0.000000  0.000000  0.000000  1
  As  As11  1  0.000000  0.000000  0.500000  1
