# generated using pymatgen
data_Cs3Na5Zr12(BBr17)2
_symmetry_space_group_name_H-M   'P 1'
_cell_length_a   13.25980587
_cell_length_b   12.63227438
_cell_length_c   11.76203739
_cell_angle_alpha   89.90499696
_cell_angle_beta   90.40734981
_cell_angle_gamma   90.05260043
_symmetry_Int_Tables_number   1
_chemical_formula_structural   Cs3Na5Zr12(BBr17)2
_chemical_formula_sum   'Cs3 Na5 Zr12 B2 Br34'
_cell_volume   1970.10566822
_cell_formula_units_Z   1
loop_
 _symmetry_equiv_pos_site_id
 _symmetry_equiv_pos_as_xyz
  1  'x, y, z'
loop_
 _atom_site_type_symbol
 _atom_site_label
 _atom_site_symmetry_multiplicity
 _atom_site_fract_x
 _atom_site_fract_y
 _atom_site_fract_z
 _atom_site_occupancy
  Cs  Cs0  1  0.776083  0.008937  0.352155  1
  Cs  Cs1  1  0.282244  0.488348  0.657930  1
  Cs  Cs2  1  0.217916  0.988109  0.346551  1
  Na  Na3  1  0.583803  0.683084  0.364089  1
  Na  Na4  1  0.919254  0.181768  0.653062  1
  Na  Na5  1  0.418335  0.316959  0.356207  1
  Na  Na6  1  0.074715  0.816247  0.639344  1
  Na  Na7  1  0.693606  0.438484  0.588837  1
  Zr  Zr8  1  0.583936  0.901682  0.703401  1
  Zr  Zr9  1  0.919239  0.404342  0.298204  1
  Zr  Zr10  1  0.415600  0.097518  0.701049  1
  Zr  Zr11  1  0.086167  0.599537  0.299329  1
  Zr  Zr12  1  0.584699  0.903442  0.985480  1
  Zr  Zr13  1  0.915007  0.405976  0.016039  1
  Zr  Zr14  1  0.415506  0.099214  0.983312  1
  Zr  Zr15  1  0.085470  0.600792  0.016494  1
  Zr  Zr16  1  0.871106  0.627893  0.155887  1
  Zr  Zr17  1  0.630041  0.126607  0.846453  1
  Zr  Zr18  1  0.131335  0.376528  0.154201  1
  Zr  Zr19  1  0.369262  0.875390  0.846017  1
  B  B20  1  0.001594  0.502610  0.156527  1
  B  B21  1  0.500030  0.000454  0.843882  1
  Br  Br22  1  0.999561  0.503840  0.832485  1
  Br  Br23  1  0.500488  0.002411  0.169629  1
  Br  Br24  1  0.692955  0.780884  0.168278  1
  Br  Br25  1  0.801362  0.288859  0.831203  1
  Br  Br26  1  0.307102  0.221481  0.163483  1
  Br  Br27  1  0.191622  0.722311  0.834778  1
  Br  Br28  1  0.444999  0.745312  0.684375  1
  Br  Br29  1  0.056294  0.246580  0.316984  1
  Br  Br30  1  0.553699  0.256137  0.682223  1
  Br  Br31  1  0.948832  0.757280  0.319036  1
  Br  Br32  1  0.757914  0.534647  0.320355  1
  Br  Br33  1  0.745228  0.033577  0.685148  1
  Br  Br34  1  0.248570  0.469281  0.317110  1
  Br  Br35  1  0.254001  0.967657  0.682460  1
  Br  Br36  1  0.693143  0.786259  0.535265  1
  Br  Br37  1  0.810855  0.285656  0.472282  1
  Br  Br38  1  0.307873  0.214034  0.528306  1
  Br  Br39  1  0.195075  0.714611  0.472278  1
  Br  Br40  1  0.003536  0.500762  0.482970  1
  Br  Br41  1  0.499893  0.999722  0.517451  1
  Br  Br42  1  0.447638  0.745588  0.006086  1
  Br  Br43  1  0.050601  0.246802  0.994995  1
  Br  Br44  1  0.551389  0.257961  0.003271  1
  Br  Br45  1  0.949254  0.759249  0.998157  1
  Br  Br46  1  0.753022  0.533894  0.998655  1
  Br  Br47  1  0.747717  0.032305  0.005530  1
  Br  Br48  1  0.248343  0.472648  0.996925  1
  Br  Br49  1  0.252222  0.972030  0.002736  1
  Br  Br50  1  0.692904  0.780854  0.845419  1
  Br  Br51  1  0.807036  0.282329  0.158809  1
  Br  Br52  1  0.305927  0.221215  0.839688  1
  Br  Br53  1  0.196147  0.722303  0.159515  1
  Br  Br54  1  0.510625  0.493383  0.473547  1
  Br  Br55  1  0.999227  0.004215  0.536118  1
