# generated using pymatgen
data_Tb3SmHgPt
_symmetry_space_group_name_H-M   'P 1'
_cell_length_a   9.73992818
_cell_length_b   9.74234522
_cell_length_c   9.74234679
_cell_angle_alpha   59.98357817
_cell_angle_beta   60.00820762
_cell_angle_gamma   60.00820901
_symmetry_Int_Tables_number   1
_chemical_formula_structural   Tb3SmHgPt
_chemical_formula_sum   'Tb12 Sm4 Hg4 Pt4'
_cell_volume   653.68389523
_cell_formula_units_Z   4
loop_
 _symmetry_equiv_pos_site_id
 _symmetry_equiv_pos_as_xyz
  1  'x, y, z'
loop_
 _atom_site_type_symbol
 _atom_site_label
 _atom_site_symmetry_multiplicity
 _atom_site_fract_x
 _atom_site_fract_y
 _atom_site_fract_z
 _atom_site_occupancy
  Tb  Tb0  1  0.353379  0.352486  0.352486  1
  Tb  Tb1  1  0.352486  0.353379  0.941647  1
  Tb  Tb2  1  0.352486  0.941647  0.353379  1
  Tb  Tb3  1  0.941647  0.352486  0.352486  1
  Tb  Tb4  1  0.810042  0.189958  0.189958  1
  Tb  Tb5  1  0.189958  0.810042  0.810042  1
  Tb  Tb6  1  0.190117  0.809883  0.190117  1
  Tb  Tb7  1  0.809883  0.190117  0.809883  1
  Tb  Tb8  1  0.190117  0.190117  0.809883  1
  Tb  Tb9  1  0.809883  0.809883  0.190117  1
  Tb  Tb10  1  0.938452  0.561548  0.561548  1
  Tb  Tb11  1  0.561548  0.938452  0.938452  1
  Sm  Sm12  1  0.564389  0.935611  0.564389  1
  Sm  Sm13  1  0.935611  0.564389  0.935611  1
  Sm  Sm14  1  0.564389  0.564389  0.935611  1
  Sm  Sm15  1  0.935611  0.935611  0.564389  1
  Hg  Hg16  1  0.586644  0.584478  0.584478  1
  Hg  Hg17  1  0.584478  0.586644  0.244402  1
  Hg  Hg18  1  0.584478  0.244402  0.586644  1
  Hg  Hg19  1  0.244402  0.584478  0.584478  1
  Pt  Pt20  1  0.144399  0.142708  0.142708  1
  Pt  Pt21  1  0.142708  0.144399  0.570185  1
  Pt  Pt22  1  0.142708  0.570185  0.144399  1
  Pt  Pt23  1  0.570185  0.142708  0.142708  1
