# generated using pymatgen
data_Er5In3Rh2Pb
_symmetry_space_group_name_H-M   'P 1'
_cell_length_a   3.58301500
_cell_length_b   8.13160997
_cell_length_c   18.21120300
_cell_angle_alpha   89.96013341
_cell_angle_beta   90.00000000
_cell_angle_gamma   90.00000000
_symmetry_Int_Tables_number   1
_chemical_formula_structural   Er5In3Rh2Pb
_chemical_formula_sum   'Er10 In6 Rh4 Pb2'
_cell_volume   530.59566352
_cell_formula_units_Z   2
loop_
 _symmetry_equiv_pos_site_id
 _symmetry_equiv_pos_as_xyz
  1  'x, y, z'
loop_
 _atom_site_type_symbol
 _atom_site_label
 _atom_site_symmetry_multiplicity
 _atom_site_fract_x
 _atom_site_fract_y
 _atom_site_fract_z
 _atom_site_occupancy
  Er  Er0  1  0.000000  0.500000  0.500000  1
  Er  Er1  1  0.000000  0.000000  0.000000  1
  Er  Er2  1  0.000000  0.746010  0.281602  1
  Er  Er3  1  0.000000  0.253990  0.718398  1
  Er  Er4  1  0.000000  0.754472  0.776438  1
  Er  Er5  1  0.000000  0.245528  0.223562  1
  Er  Er6  1  0.000000  0.620072  0.090088  1
  Er  Er7  1  0.000000  0.379928  0.909912  1
  Er  Er8  1  0.000000  0.882946  0.587339  1
  Er  Er9  1  0.000000  0.117054  0.412661  1
  In  In10  1  0.500000  0.795853  0.433867  1
  In  In11  1  0.500000  0.204147  0.566133  1
  In  In12  1  0.500000  0.572820  0.649141  1
  In  In13  1  0.500000  0.427180  0.350859  1
  In  In14  1  0.500000  0.921864  0.152856  1
  In  In15  1  0.500000  0.078136  0.847144  1
  Rh  Rh16  1  0.500000  0.528650  0.197561  1
  Rh  Rh17  1  0.500000  0.471350  0.802439  1
  Rh  Rh18  1  0.500000  0.976392  0.694950  1
  Rh  Rh19  1  0.500000  0.023608  0.305050  1
  Pb  Pb20  1  0.500000  0.705694  0.933327  1
  Pb  Pb21  1  0.500000  0.294306  0.066673  1
