# generated using pymatgen
data_SmY(Ho3B10)2
_symmetry_space_group_name_H-M   'P 1'
_cell_length_a   7.09729322
_cell_length_b   7.08544096
_cell_length_c   7.11791164
_cell_angle_alpha   76.57967862
_cell_angle_beta   90.15194383
_cell_angle_gamma   89.90326629
_symmetry_Int_Tables_number   1
_chemical_formula_structural   SmY(Ho3B10)2
_chemical_formula_sum   'Sm1 Y1 Ho6 B20'
_cell_volume   348.16534984
_cell_formula_units_Z   1
loop_
 _symmetry_equiv_pos_site_id
 _symmetry_equiv_pos_as_xyz
  1  'x, y, z'
loop_
 _atom_site_type_symbol
 _atom_site_label
 _atom_site_symmetry_multiplicity
 _atom_site_fract_x
 _atom_site_fract_y
 _atom_site_fract_z
 _atom_site_occupancy
  Sm  Sm0  1  0.189741  0.775635  0.122099  1
  Y  Y1  1  0.307547  0.769141  0.624731  1
  Ho  Ho2  1  0.185469  0.244705  0.248267  1
  Ho  Ho3  1  0.814517  0.756208  0.752856  1
  Ho  Ho4  1  0.315116  0.243817  0.747590  1
  Ho  Ho5  1  0.806393  0.232384  0.872838  1
  Ho  Ho6  1  0.693988  0.231867  0.372701  1
  Ho  Ho7  1  0.684684  0.756301  0.253047  1
  B  B8  1  0.674225  0.495948  0.039710  1
  B  B9  1  0.538531  0.503133  0.825419  1
  B  B10  1  0.173285  0.503043  0.460637  1
  B  B11  1  0.825565  0.495942  0.539876  1
  B  B12  1  0.410913  0.497065  0.411270  1
  B  B13  1  0.498502  0.313741  0.041755  1
  B  B14  1  0.515556  0.927740  0.923365  1
  B  B15  1  0.504021  0.686829  0.957636  1
  B  B16  1  0.462591  0.496199  0.174317  1
  B  B17  1  0.009486  0.073129  0.578089  1
  B  B18  1  0.492225  0.074261  0.075442  1
  B  B19  1  0.986127  0.927369  0.425389  1
  B  B20  1  0.088838  0.496277  0.911496  1
  B  B21  1  0.589110  0.499131  0.589404  1
  B  B22  1  0.037543  0.495904  0.674901  1
  B  B23  1  0.960844  0.502665  0.326091  1
  B  B24  1  0.996103  0.686563  0.459406  1
  B  B25  1  0.001911  0.313349  0.542387  1
  B  B26  1  0.910573  0.498542  0.089518  1
  B  B27  1  0.326596  0.503106  0.959760  1
