# generated using pymatgen
data_HfSc(Co5P3)2
_symmetry_space_group_name_H-M   'P 1'
_cell_length_a   3.58163000
_cell_length_b   10.13281500
_cell_length_c   11.58787400
_cell_angle_alpha   90.00000000
_cell_angle_beta   90.00000000
_cell_angle_gamma   90.00000000
_symmetry_Int_Tables_number   1
_chemical_formula_structural   HfSc(Co5P3)2
_chemical_formula_sum   'Hf2 Sc2 Co20 P12'
_cell_volume   420.54705586
_cell_formula_units_Z   2
loop_
 _symmetry_equiv_pos_site_id
 _symmetry_equiv_pos_as_xyz
  1  'x, y, z'
loop_
 _atom_site_type_symbol
 _atom_site_label
 _atom_site_symmetry_multiplicity
 _atom_site_fract_x
 _atom_site_fract_y
 _atom_site_fract_z
 _atom_site_occupancy
  Hf  Hf0  1  0.250000  0.581487  0.702741  1
  Hf  Hf1  1  0.250000  0.918513  0.202741  1
  Sc  Sc2  1  0.750000  0.417999  0.297027  1
  Sc  Sc3  1  0.750000  0.082001  0.797027  1
  Co  Co4  1  0.250000  0.719783  0.992226  1
  Co  Co5  1  0.250000  0.780217  0.492226  1
  Co  Co6  1  0.750000  0.281246  0.007275  1
  Co  Co7  1  0.750000  0.218754  0.507275  1
  Co  Co8  1  0.250000  0.409424  0.486561  1
  Co  Co9  1  0.250000  0.090576  0.986561  1
  Co  Co10  1  0.750000  0.592216  0.515737  1
  Co  Co11  1  0.750000  0.907784  0.015737  1
  Co  Co12  1  0.250000  0.221529  0.177728  1
  Co  Co13  1  0.250000  0.278472  0.677728  1
  Co  Co14  1  0.750000  0.776814  0.822336  1
  Co  Co15  1  0.750000  0.723186  0.322336  1
  Co  Co16  1  0.250000  0.882548  0.699709  1
  Co  Co17  1  0.250000  0.617452  0.199709  1
  Co  Co18  1  0.750000  0.114834  0.299459  1
  Co  Co19  1  0.750000  0.385166  0.799459  1
  Co  Co20  1  0.250000  0.467029  0.929929  1
  Co  Co21  1  0.250000  0.032971  0.429929  1
  Co  Co22  1  0.750000  0.532957  0.069321  1
  Co  Co23  1  0.750000  0.967043  0.569321  1
  P  P24  1  0.250000  0.418381  0.115002  1
  P  P25  1  0.250000  0.081619  0.615002  1
  P  P26  1  0.750000  0.581530  0.885530  1
  P  P27  1  0.750000  0.918470  0.385530  1
  P  P28  1  0.250000  0.265261  0.869635  1
  P  P29  1  0.250000  0.234739  0.369635  1
  P  P30  1  0.750000  0.733397  0.130571  1
  P  P31  1  0.750000  0.766603  0.630571  1
  P  P32  1  0.250000  0.598157  0.388835  1
  P  P33  1  0.250000  0.901843  0.888835  1
  P  P34  1  0.750000  0.400813  0.610378  1
  P  P35  1  0.750000  0.099187  0.110378  1
