# generated using pymatgen
data_ZrPa5(Al3Os)8
_symmetry_space_group_name_H-M   'P 1'
_cell_length_a   8.87127847
_cell_length_b   8.87128019
_cell_length_c   9.40748100
_cell_angle_alpha   90.00000000
_cell_angle_beta   90.00000000
_cell_angle_gamma   120.14457889
_symmetry_Int_Tables_number   1
_chemical_formula_structural   ZrPa5(Al3Os)8
_chemical_formula_sum   'Zr1 Pa5 Al24 Os8'
_cell_volume   640.23871552
_cell_formula_units_Z   1
loop_
 _symmetry_equiv_pos_site_id
 _symmetry_equiv_pos_as_xyz
  1  'x, y, z'
loop_
 _atom_site_type_symbol
 _atom_site_label
 _atom_site_symmetry_multiplicity
 _atom_site_fract_x
 _atom_site_fract_y
 _atom_site_fract_z
 _atom_site_occupancy
  Zr  Zr0  1  0.798153  0.201847  0.750000  1
  Pa  Pa1  1  0.194646  0.393300  0.250000  1
  Pa  Pa2  1  0.801710  0.608617  0.750000  1
  Pa  Pa3  1  0.606700  0.805354  0.250000  1
  Pa  Pa4  1  0.391383  0.198290  0.750000  1
  Pa  Pa5  1  0.199443  0.800557  0.250000  1
  Al  Al6  1  0.335413  0.664587  0.014454  1
  Al  Al7  1  0.670175  0.329825  0.977996  1
  Al  Al8  1  0.670175  0.329825  0.522004  1
  Al  Al9  1  0.335413  0.664587  0.485546  1
  Al  Al10  1  0.158009  0.322431  0.580298  1
  Al  Al11  1  0.838341  0.675054  0.421109  1
  Al  Al12  1  0.677569  0.841991  0.580298  1
  Al  Al13  1  0.838341  0.675054  0.078891  1
  Al  Al14  1  0.324946  0.161659  0.421109  1
  Al  Al15  1  0.158009  0.322431  0.919702  1
  Al  Al16  1  0.162259  0.837741  0.581542  1
  Al  Al17  1  0.324946  0.161659  0.078891  1
  Al  Al18  1  0.838189  0.161811  0.426788  1
  Al  Al19  1  0.677569  0.841991  0.919702  1
  Al  Al20  1  0.838189  0.161811  0.073212  1
  Al  Al21  1  0.162259  0.837741  0.918458  1
  Al  Al22  1  0.565774  0.128662  0.250000  1
  Al  Al23  1  0.444313  0.883168  0.750000  1
  Al  Al24  1  0.871338  0.434226  0.250000  1
  Al  Al25  1  0.116832  0.555687  0.750000  1
  Al  Al26  1  0.561977  0.438023  0.250000  1
  Al  Al27  1  0.435413  0.564587  0.750000  1
  Al  Al28  1  0.000617  0.999383  0.250000  1
  Al  Al29  1  0.990653  0.009347  0.750000  1
  Os  Os30  1  0.498350  0.996049  0.004189  1
  Os  Os31  1  0.003951  0.501650  0.004189  1
  Os  Os32  1  0.498350  0.996049  0.495811  1
  Os  Os33  1  0.502207  0.497793  0.996620  1
  Os  Os34  1  0.003951  0.501650  0.495811  1
  Os  Os35  1  0.502207  0.497793  0.503380  1
  Os  Os36  1  0.001119  0.998881  0.999775  1
  Os  Os37  1  0.001119  0.998881  0.500225  1
