# generated using pymatgen
data_Sc4FeCo9(SiB2)2
_symmetry_space_group_name_H-M   'P 1'
_cell_length_a   8.66960186
_cell_length_b   8.66960186
_cell_length_c   2.92177200
_cell_angle_alpha   90.00000000
_cell_angle_beta   90.00000000
_cell_angle_gamma   90.23902773
_symmetry_Int_Tables_number   1
_chemical_formula_structural   Sc4FeCo9(SiB2)2
_chemical_formula_sum   'Sc4 Fe1 Co9 Si2 B4'
_cell_volume   219.60430560
_cell_formula_units_Z   1
loop_
 _symmetry_equiv_pos_site_id
 _symmetry_equiv_pos_as_xyz
  1  'x, y, z'
loop_
 _atom_site_type_symbol
 _atom_site_label
 _atom_site_symmetry_multiplicity
 _atom_site_fract_x
 _atom_site_fract_y
 _atom_site_fract_z
 _atom_site_occupancy
  Sc  Sc0  1  0.174234  0.674234  0.000000  1
  Sc  Sc1  1  0.675257  0.824743  0.000000  1
  Sc  Sc2  1  0.324743  0.175257  0.000000  1
  Sc  Sc3  1  0.825766  0.325766  0.000000  1
  Fe  Fe4  1  0.000000  0.500000  0.500000  1
  Co  Co5  1  0.500000  0.000000  0.500000  1
  Co  Co6  1  0.285580  0.430053  0.500000  1
  Co  Co7  1  0.714421  0.569947  0.500000  1
  Co  Co8  1  0.569175  0.283293  0.500000  1
  Co  Co9  1  0.430825  0.716708  0.500000  1
  Co  Co10  1  0.930053  0.785579  0.500000  1
  Co  Co11  1  0.783292  0.069175  0.500000  1
  Co  Co12  1  0.216707  0.930825  0.500000  1
  Co  Co13  1  0.069947  0.214420  0.500000  1
  Si  Si14  1  0.000000  0.000000  0.000000  1
  Si  Si15  1  0.500000  0.500000  0.000000  1
  B  B16  1  0.379016  0.879016  0.000000  1
  B  B17  1  0.878809  0.621191  0.000000  1
  B  B18  1  0.121191  0.378809  0.000000  1
  B  B19  1  0.620984  0.120984  0.000000  1
