# generated using pymatgen
data_Dy12Ga5Ge3Ru8
_symmetry_space_group_name_H-M   'P 1'
_cell_length_a   5.56503257
_cell_length_b   7.69445903
_cell_length_c   13.68512000
_cell_angle_alpha   90.00000000
_cell_angle_beta   90.00000000
_cell_angle_gamma   90.02055853
_symmetry_Int_Tables_number   1
_chemical_formula_structural   Dy12Ga5Ge3Ru8
_chemical_formula_sum   'Dy12 Ga5 Ge3 Ru8'
_cell_volume   585.99563926
_cell_formula_units_Z   1
loop_
 _symmetry_equiv_pos_site_id
 _symmetry_equiv_pos_as_xyz
  1  'x, y, z'
loop_
 _atom_site_type_symbol
 _atom_site_label
 _atom_site_symmetry_multiplicity
 _atom_site_fract_x
 _atom_site_fract_y
 _atom_site_fract_z
 _atom_site_occupancy
  Dy  Dy0  1  0.848199  0.903865  0.596287  1
  Dy  Dy1  1  0.151527  0.402398  0.904245  1
  Dy  Dy2  1  0.845716  0.595598  0.097880  1
  Dy  Dy3  1  0.626123  0.271936  0.750000  1
  Dy  Dy4  1  0.626877  0.230246  0.250000  1
  Dy  Dy5  1  0.845716  0.595598  0.402120  1
  Dy  Dy6  1  0.371774  0.730613  0.250000  1
  Dy  Dy7  1  0.153233  0.095120  0.098662  1
  Dy  Dy8  1  0.153233  0.095120  0.401338  1
  Dy  Dy9  1  0.378098  0.766137  0.750000  1
  Dy  Dy10  1  0.151527  0.402398  0.595755  1
  Dy  Dy11  1  0.848199  0.903865  0.903713  1
  Ga  Ga12  1  0.366126  0.750788  0.499383  1
  Ga  Ga13  1  0.366126  0.750788  0.000617  1
  Ga  Ga14  1  0.124967  0.112235  0.750000  1
  Ga  Ga15  1  0.632703  0.251286  0.499682  1
  Ga  Ga16  1  0.632703  0.251286  0.000318  1
  Ge  Ge17  1  0.121088  0.384423  0.250000  1
  Ge  Ge18  1  0.876754  0.883217  0.250000  1
  Ge  Ge19  1  0.883448  0.615184  0.750000  1
  Ru  Ru20  1  0.353173  0.035112  0.905636  1
  Ru  Ru21  1  0.352505  0.466120  0.094563  1
  Ru  Ru22  1  0.646115  0.966477  0.095559  1
  Ru  Ru23  1  0.646136  0.536240  0.904731  1
  Ru  Ru24  1  0.646115  0.966477  0.404441  1
  Ru  Ru25  1  0.646136  0.536240  0.595269  1
  Ru  Ru26  1  0.352505  0.466120  0.405437  1
  Ru  Ru27  1  0.353173  0.035112  0.594364  1
