# generated using pymatgen
data_Li2P2OsPt
_symmetry_space_group_name_H-M   'P 1'
_cell_length_a   3.89338400
_cell_length_b   6.58471200
_cell_length_c   6.77777700
_cell_angle_alpha   90.00000000
_cell_angle_beta   90.00000000
_cell_angle_gamma   90.00000000
_symmetry_Int_Tables_number   1
_chemical_formula_structural   Li2P2OsPt
_chemical_formula_sum   'Li4 P4 Os2 Pt2'
_cell_volume   173.76059707
_cell_formula_units_Z   2
loop_
 _symmetry_equiv_pos_site_id
 _symmetry_equiv_pos_as_xyz
  1  'x, y, z'
loop_
 _atom_site_type_symbol
 _atom_site_label
 _atom_site_symmetry_multiplicity
 _atom_site_fract_x
 _atom_site_fract_y
 _atom_site_fract_z
 _atom_site_occupancy
  Li  Li0  1  0.250000  0.018805  0.840082  1
  Li  Li1  1  0.250000  0.518805  0.659918  1
  Li  Li2  1  0.750000  0.972805  0.155742  1
  Li  Li3  1  0.750000  0.472805  0.344258  1
  P  P4  1  0.250000  0.785955  0.381017  1
  P  P5  1  0.250000  0.285955  0.118983  1
  P  P6  1  0.750000  0.208090  0.644241  1
  P  P7  1  0.750000  0.708090  0.855759  1
  Os  Os8  1  0.750000  0.858583  0.551791  1
  Os  Os9  1  0.750000  0.358583  0.948209  1
  Pt  Pt10  1  0.250000  0.155763  0.444975  1
  Pt  Pt11  1  0.250000  0.655763  0.055025  1
