# generated using pymatgen
data_NbCuS2
_symmetry_space_group_name_H-M   'P 1'
_cell_length_a   3.38670300
_cell_length_b   3.38670253
_cell_length_c   13.34135500
_cell_angle_alpha   90.00000000
_cell_angle_beta   90.00000000
_cell_angle_gamma   120.00001437
_symmetry_Int_Tables_number   1
_chemical_formula_structural   NbCuS2
_chemical_formula_sum   'Nb2 Cu2 S4'
_cell_volume   132.52099064
_cell_formula_units_Z   2
loop_
 _symmetry_equiv_pos_site_id
 _symmetry_equiv_pos_as_xyz
  1  'x, y, z'
loop_
 _atom_site_type_symbol
 _atom_site_label
 _atom_site_symmetry_multiplicity
 _atom_site_fract_x
 _atom_site_fract_y
 _atom_site_fract_z
 _atom_site_occupancy
  Nb  Nb0  1  0.333333  0.666667  0.245715  1
  Nb  Nb1  1  0.666667  0.333333  0.745715  1
  Cu  Cu2  1  0.333333  0.666667  0.463918  1
  Cu  Cu3  1  0.666667  0.333333  0.963918  1
  S  S4  1  0.333333  0.666667  0.866866  1
  S  S5  1  0.666667  0.333333  0.129500  1
  S  S6  1  0.666667  0.333333  0.366866  1
  S  S7  1  0.333333  0.666667  0.629500  1
