# generated using pymatgen
data_B4IrPt4Rh3
_symmetry_space_group_name_H-M   'P 1'
_cell_length_a   6.18933274
_cell_length_b   5.52257952
_cell_length_c   6.76071416
_cell_angle_alpha   58.55105416
_cell_angle_beta   50.15343153
_cell_angle_gamma   70.17385589
_symmetry_Int_Tables_number   1
_chemical_formula_structural   B4IrPt4Rh3
_chemical_formula_sum   'B4 Ir1 Pt4 Rh3'
_cell_volume   151.35481676
_cell_formula_units_Z   1
loop_
 _symmetry_equiv_pos_site_id
 _symmetry_equiv_pos_as_xyz
  1  'x, y, z'
loop_
 _atom_site_type_symbol
 _atom_site_label
 _atom_site_symmetry_multiplicity
 _atom_site_fract_x
 _atom_site_fract_y
 _atom_site_fract_z
 _atom_site_occupancy
  B  B0  1  0.438771  0.998845  0.104488  1
  B  B1  1  0.791117  0.146619  0.254333  1
  B  B2  1  0.997157  0.437518  0.456671  1
  B  B3  1  0.146235  0.784674  0.811478  1
  Ir  Ir4  1  0.138575  0.347388  0.104177  1
  Pt  Pt5  1  0.721882  0.632316  0.015381  1
  Pt  Pt6  1  0.232307  0.619225  0.526912  1
  Pt  Pt7  1  0.617589  0.235242  0.621815  1
  Pt  Pt8  1  0.632408  0.723190  0.629125  1
  Rh  Rh9  1  0.150053  0.841956  0.106944  1
  Rh  Rh10  1  0.349244  0.139637  0.411212  1
  Rh  Rh11  1  0.839752  0.148479  0.902373  1
