# generated using pymatgen
data_U4ReB12Mo
_symmetry_space_group_name_H-M   'P 1'
_cell_length_a   3.66685800
_cell_length_b   9.27677508
_cell_length_c   11.36761432
_cell_angle_alpha   90.05533680
_cell_angle_beta   90.00000000
_cell_angle_gamma   90.00000000
_symmetry_Int_Tables_number   1
_chemical_formula_structural   U4ReB12Mo
_chemical_formula_sum   'U8 Re2 B24 Mo2'
_cell_volume   386.68760148
_cell_formula_units_Z   2
loop_
 _symmetry_equiv_pos_site_id
 _symmetry_equiv_pos_as_xyz
  1  'x, y, z'
loop_
 _atom_site_type_symbol
 _atom_site_label
 _atom_site_symmetry_multiplicity
 _atom_site_fract_x
 _atom_site_fract_y
 _atom_site_fract_z
 _atom_site_occupancy
  U  U0  1  0.000000  0.335798  0.407731  1
  U  U1  1  0.000000  0.664202  0.592269  1
  U  U2  1  0.000000  0.835361  0.092412  1
  U  U3  1  0.000000  0.164639  0.907588  1
  U  U4  1  0.000000  0.955239  0.395407  1
  U  U5  1  0.000000  0.044761  0.604593  1
  U  U6  1  0.000000  0.456842  0.105182  1
  U  U7  1  0.000000  0.543158  0.894818  1
  Re  Re8  1  0.000000  0.144259  0.179414  1
  Re  Re9  1  0.000000  0.855741  0.820586  1
  B  B10  1  0.500000  0.549721  0.433289  1
  B  B11  1  0.500000  0.450279  0.566711  1
  B  B12  1  0.500000  0.049716  0.067118  1
  B  B13  1  0.500000  0.950284  0.932882  1
  B  B14  1  0.500000  0.743186  0.424609  1
  B  B15  1  0.500000  0.256814  0.575391  1
  B  B16  1  0.500000  0.242884  0.076517  1
  B  B17  1  0.500000  0.757116  0.923483  1
  B  B18  1  0.500000  0.804402  0.272629  1
  B  B19  1  0.500000  0.195598  0.727371  1
  B  B20  1  0.500000  0.303017  0.226826  1
  B  B21  1  0.500000  0.696983  0.773174  1
  B  B22  1  0.500000  0.645062  0.187038  1
  B  B23  1  0.500000  0.354938  0.812962  1
  B  B24  1  0.500000  0.144085  0.311537  1
  B  B25  1  0.500000  0.855915  0.688463  1
  B  B26  1  0.500000  0.985886  0.218401  1
  B  B27  1  0.500000  0.014114  0.781599  1
  B  B28  1  0.500000  0.484759  0.281044  1
  B  B29  1  0.500000  0.515241  0.718956  1
  B  B30  1  0.500000  0.642969  0.038866  1
  B  B31  1  0.500000  0.357031  0.961134  1
  B  B32  1  0.500000  0.142382  0.459841  1
  B  B33  1  0.500000  0.857618  0.540159  1
  Mo  Mo34  1  0.000000  0.644756  0.319781  1
  Mo  Mo35  1  0.000000  0.355244  0.680219  1
