# generated using pymatgen
data_AcCeN4
_symmetry_space_group_name_H-M   'P 1'
_cell_length_a   3.97050857
_cell_length_b   3.97050938
_cell_length_c   6.42722593
_cell_angle_alpha   100.50603344
_cell_angle_beta   100.50603392
_cell_angle_gamma   63.37650218
_symmetry_Int_Tables_number   1
_chemical_formula_structural   AcCeN4
_chemical_formula_sum   'Ac1 Ce1 N4'
_cell_volume   88.47732402
_cell_formula_units_Z   1
loop_
 _symmetry_equiv_pos_site_id
 _symmetry_equiv_pos_as_xyz
  1  'x, y, z'
loop_
 _atom_site_type_symbol
 _atom_site_label
 _atom_site_symmetry_multiplicity
 _atom_site_fract_x
 _atom_site_fract_y
 _atom_site_fract_z
 _atom_site_occupancy
  Ac  Ac0  1  0.787705  0.212295  0.250000  1
  Ce  Ce1  1  0.233414  0.766587  0.749999  1
  N  N2  1  0.163852  0.437080  0.035880  1
  N  N3  1  0.562920  0.836148  0.464121  1
  N  N4  1  0.428569  0.176460  0.572497  1
  N  N5  1  0.823540  0.571431  0.927503  1
