# generated using pymatgen
data_Th4OsPt3
_symmetry_space_group_name_H-M   'P 1'
_cell_length_a   4.39664500
_cell_length_b   5.98811500
_cell_length_c   14.88008600
_cell_angle_alpha   90.00000000
_cell_angle_beta   90.00000000
_cell_angle_gamma   90.00000000
_symmetry_Int_Tables_number   1
_chemical_formula_structural   Th4OsPt3
_chemical_formula_sum   'Th8 Os2 Pt6'
_cell_volume   391.75718838
_cell_formula_units_Z   2
loop_
 _symmetry_equiv_pos_site_id
 _symmetry_equiv_pos_as_xyz
  1  'x, y, z'
loop_
 _atom_site_type_symbol
 _atom_site_label
 _atom_site_symmetry_multiplicity
 _atom_site_fract_x
 _atom_site_fract_y
 _atom_site_fract_z
 _atom_site_occupancy
  Th  Th0  1  0.250000  0.541879  0.280356  1
  Th  Th1  1  0.750000  0.450810  0.713384  1
  Th  Th2  1  0.250000  0.950810  0.786616  1
  Th  Th3  1  0.250000  0.761121  0.530413  1
  Th  Th4  1  0.250000  0.741865  0.042893  1
  Th  Th5  1  0.750000  0.261121  0.969587  1
  Th  Th6  1  0.750000  0.041879  0.219644  1
  Th  Th7  1  0.750000  0.241865  0.457107  1
  Os  Os8  1  0.250000  0.070089  0.351067  1
  Os  Os9  1  0.750000  0.570089  0.148933  1
  Pt  Pt10  1  0.750000  0.725207  0.399862  1
  Pt  Pt11  1  0.250000  0.432146  0.850055  1
  Pt  Pt12  1  0.750000  0.932146  0.649945  1
  Pt  Pt13  1  0.750000  0.776882  0.901357  1
  Pt  Pt14  1  0.250000  0.225207  0.100138  1
  Pt  Pt15  1  0.250000  0.276882  0.598643  1
