# generated using pymatgen
data_Er2Lu2Ni3Os5
_symmetry_space_group_name_H-M   'P 1'
_cell_length_a   5.17004089
_cell_length_b   5.18437444
_cell_length_c   8.60308000
_cell_angle_alpha   90.00000000
_cell_angle_beta   90.06060894
_cell_angle_gamma   120.09173670
_symmetry_Int_Tables_number   1
_chemical_formula_structural   Er2Lu2Ni3Os5
_chemical_formula_sum   'Er2 Lu2 Ni3 Os5'
_cell_volume   199.51355308
_cell_formula_units_Z   1
loop_
 _symmetry_equiv_pos_site_id
 _symmetry_equiv_pos_as_xyz
  1  'x, y, z'
loop_
 _atom_site_type_symbol
 _atom_site_label
 _atom_site_symmetry_multiplicity
 _atom_site_fract_x
 _atom_site_fract_y
 _atom_site_fract_z
 _atom_site_occupancy
  Er  Er0  1  0.323727  0.661864  0.437345  1
  Er  Er1  1  0.654866  0.327432  0.565690  1
  Lu  Lu2  1  0.659915  0.329958  0.934946  1
  Lu  Lu3  1  0.327846  0.663923  0.062322  1
  Ni  Ni4  1  0.187745  0.348815  0.752224  1
  Ni  Ni5  1  0.187745  0.838930  0.752224  1
  Ni  Ni6  1  0.342112  0.171057  0.247423  1
  Os  Os7  1  0.833079  0.660395  0.248442  1
  Os  Os8  1  0.682827  0.841414  0.751217  1
  Os  Os9  1  0.985437  0.992718  0.996765  1
  Os  Os10  1  0.833079  0.172684  0.248442  1
  Os  Os11  1  0.981621  0.990811  0.502961  1
