# generated using pymatgen
data_Tb3Cd(Ir2O7)2
_symmetry_space_group_name_H-M   'P 1'
_cell_length_a   7.32640898
_cell_length_b   7.20540654
_cell_length_c   7.32640800
_cell_angle_alpha   59.44290552
_cell_angle_beta   59.99999539
_cell_angle_gamma   59.44290709
_symmetry_Int_Tables_number   1
_chemical_formula_structural   Tb3Cd(Ir2O7)2
_chemical_formula_sum   'Tb3 Cd1 Ir4 O14'
_cell_volume   271.15460397
_cell_formula_units_Z   1
loop_
 _symmetry_equiv_pos_site_id
 _symmetry_equiv_pos_as_xyz
  1  'x, y, z'
loop_
 _atom_site_type_symbol
 _atom_site_label
 _atom_site_symmetry_multiplicity
 _atom_site_fract_x
 _atom_site_fract_y
 _atom_site_fract_z
 _atom_site_occupancy
  Tb  Tb0  1  0.125000  0.125000  0.125000  1
  Tb  Tb1  1  0.625000  0.125000  0.125000  1
  Tb  Tb2  1  0.125000  0.125000  0.625000  1
  Cd  Cd3  1  0.125000  0.625000  0.125000  1
  Ir  Ir4  1  0.625000  0.625000  0.625000  1
  Ir  Ir5  1  0.125000  0.625000  0.625000  1
  Ir  Ir6  1  0.625000  0.625000  0.125000  1
  Ir  Ir7  1  0.625000  0.125000  0.625000  1
  O  O8  1  0.999545  0.001365  0.999545  1
  O  O9  1  0.250455  0.248635  0.250455  1
  O  O10  1  0.290432  0.286857  0.711355  1
  O  O11  1  0.552664  0.540144  0.953596  1
  O  O12  1  0.711355  0.286857  0.711355  1
  O  O13  1  0.711355  0.286857  0.290432  1
  O  O14  1  0.296404  0.709856  0.697336  1
  O  O15  1  0.296404  0.709856  0.296404  1
  O  O16  1  0.697336  0.709856  0.296404  1
  O  O17  1  0.953596  0.540144  0.552664  1
  O  O18  1  0.538645  0.963143  0.959568  1
  O  O19  1  0.959568  0.963143  0.538645  1
  O  O20  1  0.953596  0.540144  0.953596  1
  O  O21  1  0.538645  0.963143  0.538645  1
