# generated using pymatgen
data_Mg2ZrZnRh4
_symmetry_space_group_name_H-M   'P 1'
_cell_length_a   6.31387900
_cell_length_b   6.31390900
_cell_length_c   6.21623300
_cell_angle_alpha   89.99979879
_cell_angle_beta   90.00038413
_cell_angle_gamma   90.00163342
_symmetry_Int_Tables_number   1
_chemical_formula_structural   Mg2ZrZnRh4
_chemical_formula_sum   'Mg4 Zr2 Zn2 Rh8'
_cell_volume   247.81172882
_cell_formula_units_Z   2
loop_
 _symmetry_equiv_pos_site_id
 _symmetry_equiv_pos_as_xyz
  1  'x, y, z'
loop_
 _atom_site_type_symbol
 _atom_site_label
 _atom_site_symmetry_multiplicity
 _atom_site_fract_x
 _atom_site_fract_y
 _atom_site_fract_z
 _atom_site_occupancy
  Mg  Mg0  1  0.749993  0.249997  0.000016  1
  Mg  Mg1  1  0.250012  0.750000  0.000002  1
  Mg  Mg2  1  0.749991  0.250002  0.499978  1
  Mg  Mg3  1  0.250010  0.749999  0.499995  1
  Zr  Zr4  1  0.750007  0.749994  0.499976  1
  Zr  Zr5  1  0.249990  0.250007  0.499974  1
  Zn  Zn6  1  0.249986  0.250006  0.999995  1
  Zn  Zn7  1  0.750018  0.749993  0.999995  1
  Rh  Rh8  1  0.499997  0.999996  0.241575  1
  Rh  Rh9  1  0.499996  0.500003  0.241560  1
  Rh  Rh10  1  0.000000  0.000001  0.241568  1
  Rh  Rh11  1  0.000003  0.500002  0.241547  1
  Rh  Rh12  1  0.999996  0.999999  0.758472  1
  Rh  Rh13  1  0.999994  0.500000  0.758450  1
  Rh  Rh14  1  0.500001  0.000004  0.758455  1
  Rh  Rh15  1  0.500007  0.499995  0.758436  1
