# generated using pymatgen
data_Nd9Y3(Si2Ni)4
_symmetry_space_group_name_H-M   'P 1'
_cell_length_a   4.21408700
_cell_length_b   11.78063578
_cell_length_c   11.51941746
_cell_angle_alpha   89.84027751
_cell_angle_beta   90.00000000
_cell_angle_gamma   90.00000000
_symmetry_Int_Tables_number   1
_chemical_formula_structural   Nd9Y3(Si2Ni)4
_chemical_formula_sum   'Nd9 Y3 Si8 Ni4'
_cell_volume   571.87492748
_cell_formula_units_Z   1
loop_
 _symmetry_equiv_pos_site_id
 _symmetry_equiv_pos_as_xyz
  1  'x, y, z'
loop_
 _atom_site_type_symbol
 _atom_site_label
 _atom_site_symmetry_multiplicity
 _atom_site_fract_x
 _atom_site_fract_y
 _atom_site_fract_z
 _atom_site_occupancy
  Nd  Nd0  1  0.250000  0.059046  0.887385  1
  Nd  Nd1  1  0.250000  0.439619  0.383989  1
  Nd  Nd2  1  0.750000  0.940249  0.116841  1
  Nd  Nd3  1  0.750000  0.557621  0.612591  1
  Nd  Nd4  1  0.250000  0.123373  0.561668  1
  Nd  Nd5  1  0.250000  0.377687  0.061072  1
  Nd  Nd6  1  0.750000  0.878513  0.437299  1
  Nd  Nd7  1  0.750000  0.621483  0.939269  1
  Nd  Nd8  1  0.250000  0.802637  0.709952  1
  Y  Y9  1  0.250000  0.691817  0.208586  1
  Y  Y10  1  0.750000  0.194842  0.289172  1
  Y  Y11  1  0.750000  0.305097  0.788553  1
  Si  Si12  1  0.250000  0.809417  0.972630  1
  Si  Si13  1  0.250000  0.688404  0.463786  1
  Si  Si14  1  0.750000  0.189556  0.031864  1
  Si  Si15  1  0.750000  0.310910  0.530840  1
  Si  Si16  1  0.250000  0.484028  0.800252  1
  Si  Si17  1  0.250000  0.017828  0.301679  1
  Si  Si18  1  0.750000  0.514775  0.198403  1
  Si  Si19  1  0.750000  0.989492  0.701621  1
  Ni  Ni20  1  0.250000  0.361829  0.632568  1
  Ni  Ni21  1  0.250000  0.139752  0.133921  1
  Ni  Ni22  1  0.750000  0.638766  0.364682  1
  Ni  Ni23  1  0.750000  0.863258  0.871378  1
