# generated using pymatgen
data_Zr18CrCu2Re7
_symmetry_space_group_name_H-M   'P 1'
_cell_length_a   8.71151500
_cell_length_b   8.71130219
_cell_length_c   8.57398800
_cell_angle_alpha   90.00031555
_cell_angle_beta   89.99944310
_cell_angle_gamma   119.99969743
_symmetry_Int_Tables_number   1
_chemical_formula_structural   Zr18CrCu2Re7
_chemical_formula_sum   'Zr18 Cr1 Cu2 Re7'
_cell_volume   563.49698332
_cell_formula_units_Z   1
loop_
 _symmetry_equiv_pos_site_id
 _symmetry_equiv_pos_as_xyz
  1  'x, y, z'
loop_
 _atom_site_type_symbol
 _atom_site_label
 _atom_site_symmetry_multiplicity
 _atom_site_fract_x
 _atom_site_fract_y
 _atom_site_fract_z
 _atom_site_occupancy
  Zr  Zr0  1  0.193402  0.806597  0.446547  1
  Zr  Zr1  1  0.193400  0.386800  0.446548  1
  Zr  Zr2  1  0.613190  0.806597  0.446551  1
  Zr  Zr3  1  0.806598  0.193403  0.553453  1
  Zr  Zr4  1  0.806600  0.613200  0.553452  1
  Zr  Zr5  1  0.386810  0.193403  0.553449  1
  Zr  Zr6  1  0.804971  0.195034  0.945464  1
  Zr  Zr7  1  0.804972  0.609941  0.945464  1
  Zr  Zr8  1  0.390067  0.195033  0.945466  1
  Zr  Zr9  1  0.195029  0.804966  0.054536  1
  Zr  Zr10  1  0.195028  0.390059  0.054536  1
  Zr  Zr11  1  0.609933  0.804967  0.054534  1
  Zr  Zr12  1  0.541989  0.458017  0.250302  1
  Zr  Zr13  1  0.541988  0.083975  0.250304  1
  Zr  Zr14  1  0.916032  0.458013  0.250308  1
  Zr  Zr15  1  0.458011  0.541983  0.749698  1
  Zr  Zr16  1  0.458012  0.916025  0.749696  1
  Zr  Zr17  1  0.083968  0.541987  0.749692  1
  Cr  Cr18  1  0.000000  0.000000  0.500000  1
  Cu  Cu19  1  0.333332  0.666663  0.251740  1
  Cu  Cu20  1  0.666668  0.333337  0.748260  1
  Re  Re21  1  0.892752  0.107284  0.253349  1
  Re  Re22  1  0.892719  0.785447  0.253350  1
  Re  Re23  1  0.214541  0.107288  0.253356  1
  Re  Re24  1  0.107248  0.892716  0.746651  1
  Re  Re25  1  0.107281  0.214553  0.746650  1
  Re  Re26  1  0.785459  0.892712  0.746644  1
  Re  Re27  1  0.000000  0.000000  0.000000  1
