# generated using pymatgen
data_Bi(ClO4)3
_symmetry_space_group_name_H-M   'P 1'
_cell_length_a   9.55824400
_cell_length_b   9.55824390
_cell_length_c   5.77866200
_cell_angle_alpha   90.00000000
_cell_angle_beta   90.00000000
_cell_angle_gamma   120.00000036
_symmetry_Int_Tables_number   1
_chemical_formula_structural   Bi(ClO4)3
_chemical_formula_sum   'Bi2 Cl6 O24'
_cell_volume   457.20834021
_cell_formula_units_Z   2
loop_
 _symmetry_equiv_pos_site_id
 _symmetry_equiv_pos_as_xyz
  1  'x, y, z'
loop_
 _atom_site_type_symbol
 _atom_site_label
 _atom_site_symmetry_multiplicity
 _atom_site_fract_x
 _atom_site_fract_y
 _atom_site_fract_z
 _atom_site_occupancy
  Bi  Bi0  1  0.666667  0.333333  0.750000  1
  Bi  Bi1  1  0.333333  0.666667  0.250000  1
  Cl  Cl2  1  0.613724  0.706478  0.750000  1
  Cl  Cl3  1  0.907245  0.613724  0.250000  1
  Cl  Cl4  1  0.706478  0.092755  0.250000  1
  Cl  Cl5  1  0.293522  0.907245  0.750000  1
  Cl  Cl6  1  0.092755  0.386276  0.750000  1
  Cl  Cl7  1  0.386276  0.293522  0.250000  1
  O  O8  1  0.784783  0.802805  0.750000  1
  O  O9  1  0.981978  0.784783  0.250000  1
  O  O10  1  0.802805  0.018022  0.250000  1
  O  O11  1  0.197195  0.981978  0.750000  1
  O  O12  1  0.018022  0.215217  0.750000  1
  O  O13  1  0.215217  0.197195  0.250000  1
  O  O14  1  0.452737  0.254435  0.044363  1
  O  O15  1  0.198301  0.452737  0.544363  1
  O  O16  1  0.444540  0.467888  0.250000  1
  O  O17  1  0.976653  0.444540  0.750000  1
  O  O18  1  0.467888  0.023347  0.750000  1
  O  O19  1  0.532112  0.976653  0.250000  1
  O  O20  1  0.023347  0.555460  0.250000  1
  O  O21  1  0.555460  0.532112  0.750000  1
  O  O22  1  0.452737  0.254435  0.455637  1
  O  O23  1  0.198301  0.452737  0.955637  1
  O  O24  1  0.254435  0.801699  0.955637  1
  O  O25  1  0.745565  0.198301  0.455637  1
  O  O26  1  0.801699  0.547263  0.455637  1
  O  O27  1  0.547263  0.745565  0.955637  1
  O  O28  1  0.547263  0.745565  0.544363  1
  O  O29  1  0.801699  0.547263  0.044363  1
  O  O30  1  0.745565  0.198301  0.044363  1
  O  O31  1  0.254435  0.801699  0.544363  1
