# generated using pymatgen
data_PrGdTe2(RhO6)2
_symmetry_space_group_name_H-M   'P 1'
_cell_length_a   5.28317352
_cell_length_b   5.29259392
_cell_length_c   10.12006336
_cell_angle_alpha   90.11618286
_cell_angle_beta   89.91363874
_cell_angle_gamma   120.03700956
_symmetry_Int_Tables_number   1
_chemical_formula_structural   PrGdTe2(RhO6)2
_chemical_formula_sum   'Pr1 Gd1 Te2 Rh2 O12'
_cell_volume   244.97076874
_cell_formula_units_Z   1
loop_
 _symmetry_equiv_pos_site_id
 _symmetry_equiv_pos_as_xyz
  1  'x, y, z'
loop_
 _atom_site_type_symbol
 _atom_site_label
 _atom_site_symmetry_multiplicity
 _atom_site_fract_x
 _atom_site_fract_y
 _atom_site_fract_z
 _atom_site_occupancy
  Pr  Pr0  1  0.000002  0.000008  0.499765  1
  Gd  Gd1  1  0.000018  0.000005  0.999813  1
  Te  Te2  1  0.668032  0.334158  0.245731  1
  Te  Te3  1  0.331999  0.665861  0.754138  1
  Rh  Rh4  1  0.335316  0.667917  0.246229  1
  Rh  Rh5  1  0.664747  0.332123  0.753819  1
  O  O6  1  0.651444  0.638357  0.138929  1
  O  O7  1  0.364189  0.012005  0.138762  1
  O  O8  1  0.991191  0.350691  0.139535  1
  O  O9  1  0.373613  0.362983  0.355367  1
  O  O10  1  0.990716  0.629805  0.354908  1
  O  O11  1  0.639848  0.013042  0.355616  1
  O  O12  1  0.359463  0.986928  0.644475  1
  O  O13  1  0.626993  0.637653  0.644704  1
  O  O14  1  0.009285  0.369491  0.645206  1
  O  O15  1  0.008764  0.648712  0.860529  1
  O  O16  1  0.635180  0.988020  0.861325  1
  O  O17  1  0.349194  0.362243  0.861148  1
