# generated using pymatgen
data_Tb14Dy6IrRu11
_symmetry_space_group_name_H-M   'P 1'
_cell_length_a   10.86340200
_cell_length_b   10.86357188
_cell_length_c   6.40135506
_cell_angle_alpha   89.97695566
_cell_angle_beta   89.96864999
_cell_angle_gamma   90.00785506
_symmetry_Int_Tables_number   1
_chemical_formula_structural   Tb14Dy6IrRu11
_chemical_formula_sum   'Tb14 Dy6 Ir1 Ru11'
_cell_volume   755.45796606
_cell_formula_units_Z   1
loop_
 _symmetry_equiv_pos_site_id
 _symmetry_equiv_pos_as_xyz
  1  'x, y, z'
loop_
 _atom_site_type_symbol
 _atom_site_label
 _atom_site_symmetry_multiplicity
 _atom_site_fract_x
 _atom_site_fract_y
 _atom_site_fract_z
 _atom_site_occupancy
  Tb  Tb0  1  0.291861  0.087089  0.377509  1
  Tb  Tb1  1  0.291862  0.913754  0.877745  1
  Tb  Tb2  1  0.708261  0.087154  0.877618  1
  Tb  Tb3  1  0.708211  0.912976  0.377595  1
  Tb  Tb4  1  0.587325  0.792302  0.877606  1
  Tb  Tb5  1  0.587066  0.207634  0.377311  1
  Tb  Tb6  1  0.413236  0.792711  0.377257  1
  Tb  Tb7  1  0.412854  0.208350  0.877621  1
  Tb  Tb8  1  0.207579  0.412723  0.622398  1
  Tb  Tb9  1  0.207163  0.586664  0.122784  1
  Tb  Tb10  1  0.792483  0.412883  0.122717  1
  Tb  Tb11  1  0.791785  0.587137  0.622469  1
  Tb  Tb12  1  0.913102  0.708020  0.122431  1
  Tb  Tb13  1  0.912958  0.291784  0.622404  1
  Dy  Dy14  1  0.086158  0.707823  0.622064  1
  Dy  Dy15  1  0.086955  0.292025  0.122270  1
  Dy  Dy16  1  0.000105  0.000082  0.500044  1
  Dy  Dy17  1  0.999893  0.000063  0.999964  1
  Dy  Dy18  1  0.501120  0.499410  0.000929  1
  Dy  Dy19  1  0.500569  0.498864  0.499114  1
  Ir  Ir20  1  0.346445  0.653400  0.749886  1
  Ru  Ru21  1  0.847416  0.152775  0.249911  1
  Ru  Ru22  1  0.847395  0.847037  0.749693  1
  Ru  Ru23  1  0.152840  0.152818  0.750516  1
  Ru  Ru24  1  0.153390  0.846483  0.250289  1
  Ru  Ru25  1  0.652519  0.347486  0.749994  1
  Ru  Ru26  1  0.651968  0.652872  0.250186  1
  Ru  Ru27  1  0.346963  0.347986  0.249730  1
  Ru  Ru28  1  0.500054  0.999612  0.123902  1
  Ru  Ru29  1  0.500001  0.000111  0.624451  1
  Ru  Ru30  1  0.999978  0.499994  0.875525  1
  Ru  Ru31  1  0.000484  0.499981  0.376069  1
