# generated using pymatgen
data_YbCr2(WC2)2
_symmetry_space_group_name_H-M   'P 1'
_cell_length_a   8.02167200
_cell_length_b   8.02167200
_cell_length_c   3.27139600
_cell_angle_alpha   90.00000000
_cell_angle_beta   90.00000000
_cell_angle_gamma   90.00000000
_symmetry_Int_Tables_number   1
_chemical_formula_structural   YbCr2(WC2)2
_chemical_formula_sum   'Yb2 Cr4 W4 C8'
_cell_volume   210.50524360
_cell_formula_units_Z   2
loop_
 _symmetry_equiv_pos_site_id
 _symmetry_equiv_pos_as_xyz
  1  'x, y, z'
loop_
 _atom_site_type_symbol
 _atom_site_label
 _atom_site_symmetry_multiplicity
 _atom_site_fract_x
 _atom_site_fract_y
 _atom_site_fract_z
 _atom_site_occupancy
  Yb  Yb0  1  0.000000  0.000000  0.000000  1
  Yb  Yb1  1  0.500000  0.500000  0.500000  1
  Cr  Cr2  1  0.304444  0.852928  0.500000  1
  Cr  Cr3  1  0.147072  0.304444  0.500000  1
  Cr  Cr4  1  0.695556  0.147072  0.500000  1
  Cr  Cr5  1  0.852928  0.695556  0.500000  1
  W  W6  1  0.382360  0.158945  0.000000  1
  W  W7  1  0.158945  0.617640  0.000000  1
  W  W8  1  0.617640  0.841055  0.000000  1
  W  W9  1  0.841055  0.382360  0.000000  1
  C  C10  1  0.759598  0.919725  0.500000  1
  C  C11  1  0.240402  0.080275  0.500000  1
  C  C12  1  0.919725  0.240402  0.500000  1
  C  C13  1  0.261753  0.383431  0.000000  1
  C  C14  1  0.383431  0.738247  0.000000  1
  C  C15  1  0.080275  0.759598  0.500000  1
  C  C16  1  0.616569  0.261753  0.000000  1
  C  C17  1  0.738247  0.616569  0.000000  1
