# generated using pymatgen
data_Tb2Dy5Pa(ReB6)4
_symmetry_space_group_name_H-M   'P 1'
_cell_length_a   3.70090400
_cell_length_b   9.18697576
_cell_length_c   11.56167401
_cell_angle_alpha   90.17207256
_cell_angle_beta   90.00000000
_cell_angle_gamma   90.00000000
_symmetry_Int_Tables_number   1
_chemical_formula_structural   Tb2Dy5Pa(ReB6)4
_chemical_formula_sum   'Tb2 Dy5 Pa1 Re4 B24'
_cell_volume   393.09647723
_cell_formula_units_Z   1
loop_
 _symmetry_equiv_pos_site_id
 _symmetry_equiv_pos_as_xyz
  1  'x, y, z'
loop_
 _atom_site_type_symbol
 _atom_site_label
 _atom_site_symmetry_multiplicity
 _atom_site_fract_x
 _atom_site_fract_y
 _atom_site_fract_z
 _atom_site_occupancy
  Tb  Tb0  1  0.000000  0.678778  0.586906  1
  Tb  Tb1  1  0.000000  0.823677  0.085608  1
  Dy  Dy2  1  0.000000  0.175640  0.913483  1
  Dy  Dy3  1  0.000000  0.942614  0.371761  1
  Dy  Dy4  1  0.000000  0.055376  0.629080  1
  Dy  Dy5  1  0.000000  0.443307  0.127692  1
  Dy  Dy6  1  0.000000  0.557131  0.870086  1
  Pa  Pa7  1  0.000000  0.323487  0.414063  1
  Re  Re8  1  0.000000  0.635140  0.322113  1
  Re  Re9  1  0.000000  0.362117  0.675966  1
  Re  Re10  1  0.000000  0.141037  0.181841  1
  Re  Re11  1  0.000000  0.862046  0.821236  1
  B  B12  1  0.500000  0.552393  0.431900  1
  B  B13  1  0.500000  0.445544  0.566918  1
  B  B14  1  0.500000  0.054058  0.067774  1
  B  B15  1  0.500000  0.947174  0.933356  1
  B  B16  1  0.500000  0.748052  0.418439  1
  B  B17  1  0.500000  0.251443  0.580846  1
  B  B18  1  0.500000  0.248299  0.080893  1
  B  B19  1  0.500000  0.751613  0.918738  1
  B  B20  1  0.500000  0.791047  0.266411  1
  B  B21  1  0.500000  0.208390  0.734187  1
  B  B22  1  0.500000  0.291685  0.234480  1
  B  B23  1  0.500000  0.708600  0.766048  1
  B  B24  1  0.500000  0.631138  0.185424  1
  B  B25  1  0.500000  0.369203  0.813578  1
  B  B26  1  0.500000  0.132439  0.314742  1
  B  B27  1  0.500000  0.868635  0.686423  1
  B  B28  1  0.500000  0.983329  0.212571  1
  B  B29  1  0.500000  0.017350  0.788089  1
  B  B30  1  0.500000  0.482831  0.287565  1
  B  B31  1  0.500000  0.517114  0.712620  1
  B  B32  1  0.500000  0.602282  0.028037  1
  B  B33  1  0.500000  0.397527  0.970601  1
  B  B34  1  0.500000  0.106502  0.470571  1
  B  B35  1  0.500000  0.892999  0.529954  1
