# generated using pymatgen
data_TbY3(HfIr)4
_symmetry_space_group_name_H-M   'P 1'
_cell_length_a   4.54275000
_cell_length_b   7.08383589
_cell_length_c   8.33047822
_cell_angle_alpha   89.98761249
_cell_angle_beta   90.00000000
_cell_angle_gamma   90.00000000
_symmetry_Int_Tables_number   1
_chemical_formula_structural   TbY3(HfIr)4
_chemical_formula_sum   'Tb1 Y3 Hf4 Ir4'
_cell_volume   268.07557835
_cell_formula_units_Z   1
loop_
 _symmetry_equiv_pos_site_id
 _symmetry_equiv_pos_as_xyz
  1  'x, y, z'
loop_
 _atom_site_type_symbol
 _atom_site_label
 _atom_site_symmetry_multiplicity
 _atom_site_fract_x
 _atom_site_fract_y
 _atom_site_fract_z
 _atom_site_occupancy
  Tb  Tb0  1  0.250000  0.984233  0.323013  1
  Y  Y1  1  0.250000  0.485804  0.176914  1
  Y  Y2  1  0.750000  0.014554  0.678487  1
  Y  Y3  1  0.750000  0.515692  0.822777  1
  Hf  Hf4  1  0.250000  0.357541  0.572273  1
  Hf  Hf5  1  0.250000  0.860231  0.927501  1
  Hf  Hf6  1  0.750000  0.638906  0.428103  1
  Hf  Hf7  1  0.750000  0.142073  0.071211  1
  Ir  Ir8  1  0.250000  0.231706  0.907482  1
  Ir  Ir9  1  0.250000  0.729530  0.591686  1
  Ir  Ir10  1  0.750000  0.771370  0.092796  1
  Ir  Ir11  1  0.750000  0.268360  0.407758  1
