# generated using pymatgen
data_Ce5U(Ni3Sb4)2
_symmetry_space_group_name_H-M   'P 1'
_cell_length_a   8.22390600
_cell_length_b   8.22390596
_cell_length_c   8.22390603
_cell_angle_alpha   109.46605530
_cell_angle_beta   109.46605639
_cell_angle_gamma   109.48155168
_symmetry_Int_Tables_number   1
_chemical_formula_structural   Ce5U(Ni3Sb4)2
_chemical_formula_sum   'Ce5 U1 Ni6 Sb8'
_cell_volume   428.16632391
_cell_formula_units_Z   1
loop_
 _symmetry_equiv_pos_site_id
 _symmetry_equiv_pos_as_xyz
  1  'x, y, z'
loop_
 _atom_site_type_symbol
 _atom_site_label
 _atom_site_symmetry_multiplicity
 _atom_site_fract_x
 _atom_site_fract_y
 _atom_site_fract_z
 _atom_site_occupancy
  Ce  Ce0  1  0.875102  0.250199  0.124153  1
  Ce  Ce1  1  0.626047  0.750950  0.375847  1
  Ce  Ce2  1  0.249050  0.124898  0.875097  1
  Ce  Ce3  1  0.749801  0.373953  0.624903  1
  Ce  Ce4  1  0.125000  0.875000  0.250000  1
  U  U5  1  0.375000  0.625000  0.750000  1
  Ni  Ni6  1  0.377163  0.256081  0.628188  1
  Ni  Ni7  1  0.127893  0.748975  0.871812  1
  Ni  Ni8  1  0.251025  0.622837  0.378918  1
  Ni  Ni9  1  0.743919  0.872107  0.121082  1
  Ni  Ni10  1  0.625000  0.375000  0.250000  1
  Ni  Ni11  1  0.875000  0.125000  0.750000  1
  Sb  Sb12  1  0.661360  0.500572  0.000697  1
  Sb  Sb13  1  0.499189  0.999261  0.662014  1
  Sb  Sb14  1  0.999875  0.660663  0.499303  1
  Sb  Sb15  1  0.837246  0.837175  0.837986  1
  Sb  Sb16  1  0.499428  0.000125  0.160788  1
  Sb  Sb17  1  0.162825  0.500811  0.000072  1
  Sb  Sb18  1  0.000739  0.162754  0.499928  1
  Sb  Sb19  1  0.339337  0.338640  0.339212  1
