# generated using pymatgen
data_Y3ErMoRu7
_symmetry_space_group_name_H-M   'P 1'
_cell_length_a   5.49119000
_cell_length_b   5.20414255
_cell_length_c   9.04028502
_cell_angle_alpha   90.00612958
_cell_angle_beta   90.00000000
_cell_angle_gamma   121.84200592
_symmetry_Int_Tables_number   1
_chemical_formula_structural   Y3ErMoRu7
_chemical_formula_sum   'Y3 Er1 Mo1 Ru7'
_cell_volume   219.46450644
_cell_formula_units_Z   1
loop_
 _symmetry_equiv_pos_site_id
 _symmetry_equiv_pos_as_xyz
  1  'x, y, z'
loop_
 _atom_site_type_symbol
 _atom_site_label
 _atom_site_symmetry_multiplicity
 _atom_site_fract_x
 _atom_site_fract_y
 _atom_site_fract_z
 _atom_site_occupancy
  Y  Y0  1  0.334006  0.668013  0.431518  1
  Y  Y1  1  0.671668  0.343336  0.563383  1
  Y  Y2  1  0.671642  0.343283  0.937184  1
  Er  Er3  1  0.333608  0.667217  0.068587  1
  Mo  Mo4  1  0.162639  0.325278  0.750623  1
  Ru  Ru5  1  0.170100  0.821265  0.750674  1
  Ru  Ru6  1  0.333546  0.164506  0.248948  1
  Ru  Ru7  1  0.823747  0.647494  0.249201  1
  Ru  Ru8  1  0.651166  0.821265  0.750674  1
  Ru  Ru9  1  0.008864  0.017726  0.001704  1
  Ru  Ru10  1  0.830960  0.164506  0.248948  1
  Ru  Ru11  1  0.008055  0.016109  0.498556  1
