# generated using pymatgen
data_Sc8Mn6FeSi14Ru
_symmetry_space_group_name_H-M   'P 1'
_cell_length_a   5.16233537
_cell_length_b   9.67962839
_cell_length_c   9.63600364
_cell_angle_alpha   85.85937053
_cell_angle_beta   74.46262188
_cell_angle_gamma   74.36227077
_symmetry_Int_Tables_number   1
_chemical_formula_structural   Sc8Mn6FeSi14Ru
_chemical_formula_sum   'Sc8 Mn6 Fe1 Si14 Ru1'
_cell_volume   446.73846380
_cell_formula_units_Z   1
loop_
 _symmetry_equiv_pos_site_id
 _symmetry_equiv_pos_as_xyz
  1  'x, y, z'
loop_
 _atom_site_type_symbol
 _atom_site_label
 _atom_site_symmetry_multiplicity
 _atom_site_fract_x
 _atom_site_fract_y
 _atom_site_fract_z
 _atom_site_occupancy
  Sc  Sc0  1  0.193776  0.804778  0.802943  1
  Sc  Sc1  1  0.799435  0.195846  0.196408  1
  Sc  Sc2  1  0.003281  0.195222  0.802943  1
  Sc  Sc3  1  0.004157  0.804154  0.196408  1
  Sc  Sc4  1  0.361820  0.000000  0.276362  1
  Sc  Sc5  1  0.638505  0.000000  0.722987  1
  Sc  Sc6  1  0.644920  0.724001  0.999515  1
  Sc  Sc7  1  0.355566  0.275999  0.999515  1
  Mn  Mn8  1  0.102451  0.500000  0.795097  1
  Mn  Mn9  1  0.600517  0.800267  0.500603  1
  Mn  Mn10  1  0.903774  0.500000  0.192454  1
  Mn  Mn11  1  0.393347  0.209953  0.501574  1
  Mn  Mn12  1  0.898880  0.199733  0.500603  1
  Mn  Mn13  1  0.105078  0.790047  0.501574  1
  Fe  Fe14  1  0.602312  0.500000  0.795375  1
  Si  Si15  1  0.437357  0.592723  0.590100  1
  Si  Si16  1  0.618791  0.408517  0.413580  1
  Si  Si17  1  0.972544  0.407277  0.590100  1
  Si  Si18  1  0.967629  0.591483  0.413580  1
  Si  Si19  1  0.249667  0.999456  0.999742  1
  Si  Si20  1  0.750591  0.000544  0.999742  1
  Si  Si21  1  0.187410  0.292747  0.297610  1
  Si  Si22  1  0.781199  0.703654  0.703059  1
  Si  Si23  1  0.514980  0.707253  0.297610  1
  Si  Si24  1  0.515743  0.296346  0.703059  1
  Si  Si25  1  0.209556  0.000000  0.580890  1
  Si  Si26  1  0.790432  0.000000  0.419134  1
  Si  Si27  1  0.776031  0.415223  0.996122  1
  Si  Si28  1  0.227847  0.584777  0.996122  1
  Ru  Ru29  1  0.392405  0.500000  0.215191  1
