# generated using pymatgen
data_K5Cd9
_symmetry_space_group_name_H-M   'P 1'
_cell_length_a   13.63198486
_cell_length_b   13.63198362
_cell_length_c   13.63198330
_cell_angle_alpha   27.26206884
_cell_angle_beta   27.26206845
_cell_angle_gamma   27.26206870
_symmetry_Int_Tables_number   1
_chemical_formula_structural   K5Cd9
_chemical_formula_sum   'K5 Cd9'
_cell_volume   468.99060520
_cell_formula_units_Z   1
loop_
 _symmetry_equiv_pos_site_id
 _symmetry_equiv_pos_as_xyz
  1  'x, y, z'
loop_
 _atom_site_type_symbol
 _atom_site_label
 _atom_site_symmetry_multiplicity
 _atom_site_fract_x
 _atom_site_fract_y
 _atom_site_fract_z
 _atom_site_occupancy
  K  K0  1  0.217001  0.217001  0.217001  1
  K  K1  1  0.316803  0.316803  0.316803  1
  K  K2  1  0.500000  0.500000  0.500000  1
  K  K3  1  0.683197  0.683197  0.683197  1
  K  K4  1  0.782999  0.782999  0.782999  1
  Cd  Cd5  1  0.000000  0.000000  0.000000  1
  Cd  Cd6  1  0.125097  0.125097  0.125097  1
  Cd  Cd7  1  0.720293  0.239007  0.239007  1
  Cd  Cd8  1  0.239007  0.720293  0.239007  1
  Cd  Cd9  1  0.760992  0.760992  0.279707  1
  Cd  Cd10  1  0.239007  0.239007  0.720293  1
  Cd  Cd11  1  0.760993  0.279707  0.760992  1
  Cd  Cd12  1  0.279707  0.760993  0.760992  1
  Cd  Cd13  1  0.874903  0.874903  0.874903  1
