# generated using pymatgen
data_LaHo(ZnSi)2
_symmetry_space_group_name_H-M   'P 1'
_cell_length_a   4.21379900
_cell_length_b   4.21379790
_cell_length_c   16.40763900
_cell_angle_alpha   90.00000000
_cell_angle_beta   90.00000000
_cell_angle_gamma   120.00000078
_symmetry_Int_Tables_number   1
_chemical_formula_structural   LaHo(ZnSi)2
_chemical_formula_sum   'La2 Ho2 Zn4 Si4'
_cell_volume   252.30405972
_cell_formula_units_Z   2
loop_
 _symmetry_equiv_pos_site_id
 _symmetry_equiv_pos_as_xyz
  1  'x, y, z'
loop_
 _atom_site_type_symbol
 _atom_site_label
 _atom_site_symmetry_multiplicity
 _atom_site_fract_x
 _atom_site_fract_y
 _atom_site_fract_z
 _atom_site_occupancy
  La  La0  1  0.000000  0.000000  0.000000  1
  La  La1  1  0.000000  0.000000  0.500000  1
  Ho  Ho2  1  0.000000  0.000000  0.250000  1
  Ho  Ho3  1  0.000000  0.000000  0.750000  1
  Zn  Zn4  1  0.333333  0.666667  0.147381  1
  Zn  Zn5  1  0.666667  0.333333  0.852619  1
  Zn  Zn6  1  0.666667  0.333333  0.647381  1
  Zn  Zn7  1  0.333333  0.666667  0.352619  1
  Si  Si8  1  0.333333  0.666667  0.624114  1
  Si  Si9  1  0.666667  0.333333  0.375886  1
  Si  Si10  1  0.666667  0.333333  0.124114  1
  Si  Si11  1  0.333333  0.666667  0.875886  1
