# generated using pymatgen
data_CsCaFe2F9
_symmetry_space_group_name_H-M   'P 1'
_cell_length_a   7.58612700
_cell_length_b   7.58612718
_cell_length_c   23.93561900
_cell_angle_alpha   90.00000000
_cell_angle_beta   90.00000000
_cell_angle_gamma   119.82004060
_symmetry_Int_Tables_number   1
_chemical_formula_structural   CsCaFe2F9
_chemical_formula_sum   'Cs6 Ca6 Fe12 F54'
_cell_volume   1195.08890832
_cell_formula_units_Z   6
loop_
 _symmetry_equiv_pos_site_id
 _symmetry_equiv_pos_as_xyz
  1  'x, y, z'
loop_
 _atom_site_type_symbol
 _atom_site_label
 _atom_site_symmetry_multiplicity
 _atom_site_fract_x
 _atom_site_fract_y
 _atom_site_fract_z
 _atom_site_occupancy
  Cs  Cs0  1  0.492432  0.507568  0.750000  1
  Cs  Cs1  1  0.507568  0.492432  0.250000  1
  Cs  Cs2  1  0.526307  0.490837  0.583285  1
  Cs  Cs3  1  0.473693  0.509163  0.083285  1
  Cs  Cs4  1  0.509163  0.473693  0.916715  1
  Cs  Cs5  1  0.490837  0.526307  0.416715  1
  Ca  Ca6  1  0.011733  0.011733  0.500000  1
  Ca  Ca7  1  0.988267  0.988267  0.000000  1
  Ca  Ca8  1  0.999531  0.487741  0.833327  1
  Ca  Ca9  1  0.000469  0.512259  0.333327  1
  Ca  Ca10  1  0.512259  0.000469  0.666673  1
  Ca  Ca11  1  0.487741  0.999531  0.166673  1
  Fe  Fe12  1  0.016597  0.517177  0.501939  1
  Fe  Fe13  1  0.983403  0.482823  0.001939  1
  Fe  Fe14  1  0.482823  0.983403  0.998061  1
  Fe  Fe15  1  0.517177  0.016597  0.498061  1
  Fe  Fe16  1  0.011253  0.497477  0.664815  1
  Fe  Fe17  1  0.988747  0.502523  0.164815  1
  Fe  Fe18  1  0.502523  0.988747  0.835185  1
  Fe  Fe19  1  0.497477  0.011253  0.335185  1
  Fe  Fe20  1  0.990592  0.004719  0.168491  1
  Fe  Fe21  1  0.009408  0.995281  0.668491  1
  Fe  Fe22  1  0.995281  0.009408  0.331509  1
  Fe  Fe23  1  0.004719  0.990592  0.831509  1
  F  F24  1  0.140595  0.351677  0.515251  1
  F  F25  1  0.859405  0.648323  0.015251  1
  F  F26  1  0.648323  0.859405  0.984749  1
  F  F27  1  0.351677  0.140595  0.484749  1
  F  F28  1  0.723092  0.339532  0.678037  1
  F  F29  1  0.276908  0.660468  0.178037  1
  F  F30  1  0.660468  0.276908  0.821963  1
  F  F31  1  0.339532  0.723092  0.321963  1
  F  F32  1  0.025188  0.252895  0.647925  1
  F  F33  1  0.974812  0.747105  0.147925  1
  F  F34  1  0.747105  0.974812  0.852075  1
  F  F35  1  0.252895  0.025188  0.352075  1
  F  F36  1  0.070131  0.477837  0.742223  1
  F  F37  1  0.929869  0.522163  0.242223  1
  F  F38  1  0.522163  0.929869  0.757777  1
  F  F39  1  0.477837  0.070131  0.257777  1
  F  F40  1  0.039308  0.956176  0.590562  1
  F  F41  1  0.960692  0.043824  0.090562  1
  F  F42  1  0.043824  0.960692  0.909438  1
  F  F43  1  0.956176  0.039308  0.409438  1
  F  F44  1  0.272404  0.762674  0.517698  1
  F  F45  1  0.727596  0.237326  0.017698  1
  F  F46  1  0.237326  0.727596  0.982302  1
  F  F47  1  0.762674  0.272404  0.482302  1
  F  F48  1  0.972809  0.027191  0.750000  1
  F  F49  1  0.027191  0.972809  0.250000  1
  F  F50  1  0.909623  0.456182  0.924065  1
  F  F51  1  0.090377  0.543818  0.424065  1
  F  F52  1  0.543818  0.090377  0.575935  1
  F  F53  1  0.456182  0.909623  0.075935  1
  F  F54  1  0.139865  0.282365  0.839279  1
  F  F55  1  0.860135  0.717635  0.339279  1
  F  F56  1  0.717635  0.860135  0.660721  1
  F  F57  1  0.282365  0.139865  0.160721  1
  F  F58  1  0.120599  0.329375  0.990177  1
  F  F59  1  0.879401  0.670625  0.490177  1
  F  F60  1  0.670625  0.879401  0.509823  1
  F  F61  1  0.329375  0.120599  0.009823  1
  F  F62  1  0.867192  0.699042  0.822431  1
  F  F63  1  0.132808  0.300958  0.322431  1
  F  F64  1  0.300958  0.132808  0.677569  1
  F  F65  1  0.699042  0.867192  0.177569  1
  F  F66  1  0.994321  0.737485  0.686518  1
  F  F67  1  0.005679  0.262515  0.186518  1
  F  F68  1  0.262515  0.005679  0.813482  1
  F  F69  1  0.737485  0.994321  0.313482  1
  F  F70  1  0.296738  0.665525  0.649284  1
  F  F71  1  0.703262  0.334475  0.149284  1
  F  F72  1  0.334475  0.703262  0.850716  1
  F  F73  1  0.665525  0.296738  0.350716  1
  F  F74  1  0.948325  0.506611  0.583548  1
  F  F75  1  0.051675  0.493389  0.083548  1
  F  F76  1  0.493389  0.051675  0.916452  1
  F  F77  1  0.506611  0.948325  0.416452  1
