# generated using pymatgen
data_TbGdMgMnO6
_symmetry_space_group_name_H-M   'P 1'
_cell_length_a   5.33646533
_cell_length_b   5.59857900
_cell_length_c   7.65220023
_cell_angle_alpha   90.00000000
_cell_angle_beta   89.99416169
_cell_angle_gamma   90.00000000
_symmetry_Int_Tables_number   1
_chemical_formula_structural   TbGdMgMnO6
_chemical_formula_sum   'Tb2 Gd2 Mg2 Mn2 O12'
_cell_volume   228.62189813
_cell_formula_units_Z   2
loop_
 _symmetry_equiv_pos_site_id
 _symmetry_equiv_pos_as_xyz
  1  'x, y, z'
loop_
 _atom_site_type_symbol
 _atom_site_label
 _atom_site_symmetry_multiplicity
 _atom_site_fract_x
 _atom_site_fract_y
 _atom_site_fract_z
 _atom_site_occupancy
  Tb  Tb0  1  0.516095  0.565140  0.248848  1
  Tb  Tb1  1  0.983905  0.065140  0.251152  1
  Gd  Gd2  1  0.483911  0.437266  0.751094  1
  Gd  Gd3  1  0.016089  0.937266  0.748906  1
  Mg  Mg4  1  0.500154  0.000503  0.000941  1
  Mg  Mg5  1  0.999846  0.500503  0.499059  1
  Mn  Mn6  1  0.499582  0.000314  0.498585  1
  Mn  Mn7  1  0.000418  0.500314  0.001415  1
  O  O8  1  0.396061  0.964331  0.258840  1
  O  O9  1  0.103939  0.464331  0.241160  1
  O  O10  1  0.599370  0.032845  0.740927  1
  O  O11  1  0.900630  0.532845  0.759073  1
  O  O12  1  0.812858  0.790159  0.057376  1
  O  O13  1  0.687142  0.290159  0.442624  1
  O  O14  1  0.205787  0.190383  0.548236  1
  O  O15  1  0.294213  0.690383  0.951764  1
  O  O16  1  0.186055  0.209399  0.946971  1
  O  O17  1  0.313945  0.709399  0.553029  1
  O  O18  1  0.792870  0.809660  0.447086  1
  O  O19  1  0.707130  0.309660  0.052914  1
