# generated using pymatgen
data_Yb8VSi16Tc11
_symmetry_space_group_name_H-M   'P 1'
_cell_length_a   6.77937091
_cell_length_b   6.77923765
_cell_length_c   12.56778876
_cell_angle_alpha   90.03907510
_cell_angle_beta   89.85292748
_cell_angle_gamma   90.07155554
_symmetry_Int_Tables_number   1
_chemical_formula_structural   Yb8VSi16Tc11
_chemical_formula_sum   'Yb8 V1 Si16 Tc11'
_cell_volume   577.60009690
_cell_formula_units_Z   1
loop_
 _symmetry_equiv_pos_site_id
 _symmetry_equiv_pos_as_xyz
  1  'x, y, z'
loop_
 _atom_site_type_symbol
 _atom_site_label
 _atom_site_symmetry_multiplicity
 _atom_site_fract_x
 _atom_site_fract_y
 _atom_site_fract_z
 _atom_site_occupancy
  Yb  Yb0  1  0.993661  0.667311  0.028536  1
  Yb  Yb1  1  0.831303  0.494043  0.276480  1
  Yb  Yb2  1  0.166933  0.507156  0.777554  1
  Yb  Yb3  1  0.494664  0.834666  0.722166  1
  Yb  Yb4  1  0.504323  0.166250  0.222272  1
  Yb  Yb5  1  0.007429  0.330149  0.528960  1
  Yb  Yb6  1  0.666280  0.993792  0.972445  1
  Yb  Yb7  1  0.331619  0.008387  0.472071  1
  V  V8  1  0.834930  0.991593  0.378154  1
  Si  Si9  1  0.283890  0.972899  0.067032  1
  Si  Si10  1  0.527847  0.785344  0.316083  1
  Si  Si11  1  0.472340  0.216578  0.817657  1
  Si  Si12  1  0.785477  0.529823  0.682305  1
  Si  Si13  1  0.214532  0.469376  0.182721  1
  Si  Si14  1  0.717888  0.030823  0.568523  1
  Si  Si15  1  0.971907  0.286010  0.932566  1
  Si  Si16  1  0.035119  0.707035  0.434257  1
  Si  Si17  1  0.693513  0.376381  0.059059  1
  Si  Si18  1  0.116791  0.195099  0.310781  1
  Si  Si19  1  0.875016  0.807546  0.809749  1
  Si  Si20  1  0.194688  0.124421  0.690381  1
  Si  Si21  1  0.803959  0.878419  0.189822  1
  Si  Si22  1  0.308555  0.624779  0.559959  1
  Si  Si23  1  0.373940  0.694847  0.939251  1
  Si  Si24  1  0.628451  0.305749  0.440025  1
  Tc  Tc25  1  0.331750  0.332207  0.999591  1
  Tc  Tc26  1  0.164881  0.830462  0.252760  1
  Tc  Tc27  1  0.832234  0.170457  0.751825  1
  Tc  Tc28  1  0.668498  0.671413  0.496708  1
  Tc  Tc29  1  0.989030  0.170196  0.123954  1
  Tc  Tc30  1  0.331646  0.490578  0.374933  1
  Tc  Tc31  1  0.667730  0.513442  0.875682  1
  Tc  Tc32  1  0.491680  0.333104  0.624412  1
  Tc  Tc33  1  0.505686  0.668301  0.122190  1
  Tc  Tc34  1  0.013758  0.831655  0.625234  1
  Tc  Tc35  1  0.168050  0.989708  0.873901  1
