# generated using pymatgen
data_Ca7ThSb6
_symmetry_space_group_name_H-M   'P 1'
_cell_length_a   8.25971534
_cell_length_b   8.25971433
_cell_length_c   8.17349300
_cell_angle_alpha   109.25990082
_cell_angle_beta   109.25989837
_cell_angle_gamma   109.68170924
_symmetry_Int_Tables_number   1
_chemical_formula_structural   Ca7ThSb6
_chemical_formula_sum   'Ca7 Th1 Sb6'
_cell_volume   430.36993237
_cell_formula_units_Z   1
loop_
 _symmetry_equiv_pos_site_id
 _symmetry_equiv_pos_as_xyz
  1  'x, y, z'
loop_
 _atom_site_type_symbol
 _atom_site_label
 _atom_site_symmetry_multiplicity
 _atom_site_fract_x
 _atom_site_fract_y
 _atom_site_fract_z
 _atom_site_occupancy
  Ca  Ca0  1  0.648722  0.648584  0.648824  1
  Ca  Ca1  1  0.007408  0.361533  0.502586  1
  Ca  Ca2  1  0.354125  0.492592  0.995179  1
  Ca  Ca3  1  0.999862  0.851278  0.500102  1
  Ca  Ca4  1  0.851416  0.500138  0.000240  1
  Ca  Ca5  1  0.500000  0.000000  0.854233  1
  Ca  Ca6  1  0.138467  0.145875  0.141054  1
  Th  Th7  1  0.500000  0.000000  0.354005  1
  Sb  Sb8  1  0.872813  0.125049  0.745046  1
  Sb  Sb9  1  0.374951  0.247765  0.619998  1
  Sb  Sb10  1  0.130825  0.754706  0.884011  1
  Sb  Sb11  1  0.745294  0.876119  0.129304  1
  Sb  Sb12  1  0.252235  0.627187  0.372234  1
  Sb  Sb13  1  0.623881  0.369175  0.253185  1
