# generated using pymatgen
data_LaPdF7
_symmetry_space_group_name_H-M   'P 1'
_cell_length_a   5.77921000
_cell_length_b   9.26673623
_cell_length_c   12.41938731
_cell_angle_alpha   62.01952150
_cell_angle_beta   90.00000000
_cell_angle_gamma   90.00000000
_symmetry_Int_Tables_number   1
_chemical_formula_structural   LaPdF7
_chemical_formula_sum   'La4 Pd4 F28'
_cell_volume   587.36629300
_cell_formula_units_Z   4
loop_
 _symmetry_equiv_pos_site_id
 _symmetry_equiv_pos_as_xyz
  1  'x, y, z'
loop_
 _atom_site_type_symbol
 _atom_site_label
 _atom_site_symmetry_multiplicity
 _atom_site_fract_x
 _atom_site_fract_y
 _atom_site_fract_z
 _atom_site_occupancy
  La  La0  1  0.760610  0.809670  0.265148  1
  La  La1  1  0.260610  0.190330  0.234852  1
  La  La2  1  0.239390  0.190330  0.734852  1
  La  La3  1  0.739390  0.809670  0.765148  1
  Pd  Pd4  1  0.242890  0.726207  0.543496  1
  Pd  Pd5  1  0.742890  0.273793  0.956504  1
  Pd  Pd6  1  0.757110  0.273793  0.456504  1
  Pd  Pd7  1  0.257110  0.726207  0.043496  1
  F  F8  1  0.965346  0.713684  0.459204  1
  F  F9  1  0.465346  0.286316  0.040796  1
  F  F10  1  0.034654  0.286316  0.540796  1
  F  F11  1  0.534654  0.713684  0.959204  1
  F  F12  1  0.060834  0.706488  0.923836  1
  F  F13  1  0.560834  0.293512  0.576164  1
  F  F14  1  0.939166  0.293512  0.076164  1
  F  F15  1  0.439166  0.706488  0.423836  1
  F  F16  1  0.736985  0.511396  0.861075  1
  F  F17  1  0.236985  0.488604  0.638925  1
  F  F18  1  0.263015  0.488604  0.138925  1
  F  F19  1  0.763015  0.511396  0.361075  1
  F  F20  1  0.741481  0.036284  0.047534  1
  F  F21  1  0.241481  0.963716  0.452466  1
  F  F22  1  0.258519  0.963716  0.952466  1
  F  F23  1  0.758519  0.036284  0.547534  1
  F  F24  1  0.049740  0.741965  0.666468  1
  F  F25  1  0.549740  0.258035  0.833532  1
  F  F26  1  0.950260  0.258035  0.333532  1
  F  F27  1  0.450260  0.741965  0.166468  1
  F  F28  1  0.016037  0.269417  0.866674  1
  F  F29  1  0.516037  0.730583  0.633326  1
  F  F30  1  0.983963  0.730583  0.133326  1
  F  F31  1  0.483963  0.269417  0.366674  1
  F  F32  1  0.089210  0.968779  0.231708  1
  F  F33  1  0.589210  0.031221  0.268292  1
  F  F34  1  0.910790  0.031221  0.768292  1
  F  F35  1  0.410790  0.968779  0.731708  1
