# generated using pymatgen
data_Ho8V(PdPt3)6
_symmetry_space_group_name_H-M   'P 1'
_cell_length_a   8.31480900
_cell_length_b   8.31031700
_cell_length_c   8.35007400
_cell_angle_alpha   90.00000000
_cell_angle_beta   90.00000000
_cell_angle_gamma   90.00000000
_symmetry_Int_Tables_number   1
_chemical_formula_structural   Ho8V(PdPt3)6
_chemical_formula_sum   'Ho8 V1 Pd6 Pt18'
_cell_volume   576.97924648
_cell_formula_units_Z   1
loop_
 _symmetry_equiv_pos_site_id
 _symmetry_equiv_pos_as_xyz
  1  'x, y, z'
loop_
 _atom_site_type_symbol
 _atom_site_label
 _atom_site_symmetry_multiplicity
 _atom_site_fract_x
 _atom_site_fract_y
 _atom_site_fract_z
 _atom_site_occupancy
  Ho  Ho0  1  0.251278  0.251094  0.251224  1
  Ho  Ho1  1  0.747748  0.747329  0.747153  1
  Ho  Ho2  1  0.748722  0.748906  0.251224  1
  Ho  Ho3  1  0.747748  0.252671  0.747153  1
  Ho  Ho4  1  0.252252  0.252671  0.747153  1
  Ho  Ho5  1  0.251278  0.748906  0.251224  1
  Ho  Ho6  1  0.252252  0.747329  0.747153  1
  Ho  Ho7  1  0.748722  0.251094  0.251224  1
  V  V8  1  0.000000  0.000000  0.014244  1
  Pd  Pd9  1  0.261309  0.000000  0.501203  1
  Pd  Pd10  1  0.500000  0.000000  0.737230  1
  Pd  Pd11  1  0.738691  0.000000  0.501203  1
  Pd  Pd12  1  0.000000  0.500000  0.259559  1
  Pd  Pd13  1  0.000000  0.500000  0.737289  1
  Pd  Pd14  1  0.000000  0.000000  0.714087  1
  Pt  Pt15  1  0.260835  0.500000  0.999768  1
  Pt  Pt16  1  0.739165  0.500000  0.999768  1
  Pt  Pt17  1  0.000000  0.261530  0.500123  1
  Pt  Pt18  1  0.500000  0.260776  0.999731  1
  Pt  Pt19  1  0.000000  0.738470  0.500123  1
  Pt  Pt20  1  0.500000  0.739224  0.999731  1
  Pt  Pt21  1  0.500000  0.000000  0.259856  1
  Pt  Pt22  1  0.252987  0.500000  0.499036  1
  Pt  Pt23  1  0.747013  0.500000  0.499036  1
  Pt  Pt24  1  0.500000  0.252944  0.498608  1
  Pt  Pt25  1  0.500000  0.747056  0.498608  1
  Pt  Pt26  1  0.500000  0.500000  0.253448  1
  Pt  Pt27  1  0.500000  0.500000  0.745307  1
  Pt  Pt28  1  0.291430  0.000000  0.996654  1
  Pt  Pt29  1  0.708570  0.000000  0.996654  1
  Pt  Pt30  1  0.000000  0.292341  0.996987  1
  Pt  Pt31  1  0.000000  0.707659  0.996987  1
  Pt  Pt32  1  0.000000  0.000000  0.301251  1
