# generated using pymatgen
data_Dy4MnTc6Ru
_symmetry_space_group_name_H-M   'P 1'
_cell_length_a   5.27024506
_cell_length_b   5.27032792
_cell_length_c   9.13125401
_cell_angle_alpha   89.99910062
_cell_angle_beta   90.00153662
_cell_angle_gamma   120.00852025
_symmetry_Int_Tables_number   1
_chemical_formula_structural   Dy4MnTc6Ru
_chemical_formula_sum   'Dy4 Mn1 Tc6 Ru1'
_cell_volume   219.63027760
_cell_formula_units_Z   1
loop_
 _symmetry_equiv_pos_site_id
 _symmetry_equiv_pos_as_xyz
  1  'x, y, z'
loop_
 _atom_site_type_symbol
 _atom_site_label
 _atom_site_symmetry_multiplicity
 _atom_site_fract_x
 _atom_site_fract_y
 _atom_site_fract_z
 _atom_site_occupancy
  Dy  Dy0  1  0.666654  0.333343  0.563295  1
  Dy  Dy1  1  0.333346  0.666657  0.436705  1
  Dy  Dy2  1  0.333346  0.666663  0.065206  1
  Dy  Dy3  1  0.666654  0.333337  0.934794  1
  Mn  Mn4  1  0.000000  0.000000  0.000000  1
  Tc  Tc5  1  0.169161  0.338369  0.753551  1
  Tc  Tc6  1  0.169133  0.830844  0.753536  1
  Tc  Tc7  1  0.661590  0.830810  0.753562  1
  Tc  Tc8  1  0.830839  0.661631  0.246449  1
  Tc  Tc9  1  0.830867  0.169156  0.246464  1
  Tc  Tc10  1  0.338410  0.169190  0.246438  1
  Ru  Ru11  1  0.000000  0.000000  0.500000  1
