# generated using pymatgen
data_Ho10In8Ni3Au
_symmetry_space_group_name_H-M   'P 1'
_cell_length_a   8.02929717
_cell_length_b   17.99552254
_cell_length_c   3.60251400
_cell_angle_alpha   90.00000000
_cell_angle_beta   90.00000000
_cell_angle_gamma   90.02382288
_symmetry_Int_Tables_number   1
_chemical_formula_structural   Ho10In8Ni3Au
_chemical_formula_sum   'Ho10 In8 Ni3 Au1'
_cell_volume   520.53223993
_cell_formula_units_Z   1
loop_
 _symmetry_equiv_pos_site_id
 _symmetry_equiv_pos_as_xyz
  1  'x, y, z'
loop_
 _atom_site_type_symbol
 _atom_site_label
 _atom_site_symmetry_multiplicity
 _atom_site_fract_x
 _atom_site_fract_y
 _atom_site_fract_z
 _atom_site_occupancy
  Ho  Ho0  1  0.498613  0.502495  0.000000  1
  Ho  Ho1  1  0.999963  0.997611  0.000000  1
  Ho  Ho2  1  0.760790  0.283933  0.000000  1
  Ho  Ho3  1  0.253200  0.721504  0.000000  1
  Ho  Ho4  1  0.754809  0.777863  0.000000  1
  Ho  Ho5  1  0.227982  0.223693  0.000000  1
  Ho  Ho6  1  0.621873  0.079328  0.000000  1
  Ho  Ho7  1  0.384754  0.908938  0.000000  1
  Ho  Ho8  1  0.882902  0.588817  0.000000  1
  Ho  Ho9  1  0.115825  0.413794  0.000000  1
  In  In10  1  0.706649  0.928243  0.500000  1
  In  In11  1  0.291971  0.064773  0.500000  1
  In  In12  1  0.795224  0.434984  0.500000  1
  In  In13  1  0.204075  0.570460  0.500000  1
  In  In14  1  0.574066  0.652543  0.500000  1
  In  In15  1  0.423316  0.353579  0.500000  1
  In  In16  1  0.926641  0.149846  0.500000  1
  In  In17  1  0.072906  0.846643  0.500000  1
  Ni  Ni18  1  0.478359  0.802389  0.500000  1
  Ni  Ni19  1  0.972288  0.695415  0.500000  1
  Ni  Ni20  1  0.025301  0.305007  0.500000  1
  Au  Au21  1  0.528495  0.198141  0.500000  1
