# generated using pymatgen
data_Nd16Hg4Ru3Pt
_symmetry_space_group_name_H-M   'P 1'
_cell_length_a   9.88621456
_cell_length_b   9.90655671
_cell_length_c   9.90655600
_cell_angle_alpha   59.99999570
_cell_angle_beta   59.93190654
_cell_angle_gamma   59.93190398
_symmetry_Int_Tables_number   1
_chemical_formula_structural   Nd16Hg4Ru3Pt
_chemical_formula_sum   'Nd16 Hg4 Ru3 Pt1'
_cell_volume   685.35041954
_cell_formula_units_Z   1
loop_
 _symmetry_equiv_pos_site_id
 _symmetry_equiv_pos_as_xyz
  1  'x, y, z'
loop_
 _atom_site_type_symbol
 _atom_site_label
 _atom_site_symmetry_multiplicity
 _atom_site_fract_x
 _atom_site_fract_y
 _atom_site_fract_z
 _atom_site_occupancy
  Nd  Nd0  1  0.345241  0.351632  0.351632  1
  Nd  Nd1  1  0.345241  0.351632  0.951495  1
  Nd  Nd2  1  0.345241  0.951495  0.351632  1
  Nd  Nd3  1  0.955806  0.348065  0.348065  1
  Nd  Nd4  1  0.814765  0.190913  0.190913  1
  Nd  Nd5  1  0.190567  0.810040  0.810040  1
  Nd  Nd6  1  0.190567  0.810040  0.189354  1
  Nd  Nd7  1  0.814765  0.190913  0.803410  1
  Nd  Nd8  1  0.190567  0.189354  0.810040  1
  Nd  Nd9  1  0.814765  0.803410  0.190913  1
  Nd  Nd10  1  0.937488  0.561966  0.561966  1
  Nd  Nd11  1  0.558692  0.938516  0.938516  1
  Nd  Nd12  1  0.558692  0.938516  0.564276  1
  Nd  Nd13  1  0.937488  0.561966  0.938581  1
  Nd  Nd14  1  0.558692  0.564276  0.938516  1
  Nd  Nd15  1  0.937488  0.938581  0.561966  1
  Hg  Hg16  1  0.583933  0.583428  0.583428  1
  Hg  Hg17  1  0.583933  0.583428  0.249212  1
  Hg  Hg18  1  0.583933  0.249212  0.583428  1
  Hg  Hg19  1  0.249500  0.583500  0.583500  1
  Ru  Ru20  1  0.142659  0.138057  0.138057  1
  Ru  Ru21  1  0.142659  0.138057  0.581227  1
  Ru  Ru22  1  0.142659  0.581227  0.138057  1
  Pt  Pt23  1  0.574658  0.141780  0.141780  1
