# generated using pymatgen
data_Rb(MnS2)2
_symmetry_space_group_name_H-M   'P 1'
_cell_length_a   5.86606000
_cell_length_b   6.76907700
_cell_length_c   15.96563900
_cell_angle_alpha   90.00000000
_cell_angle_beta   90.00000000
_cell_angle_gamma   90.00000000
_symmetry_Int_Tables_number   1
_chemical_formula_structural   Rb(MnS2)2
_chemical_formula_sum   'Rb4 Mn8 S16'
_cell_volume   633.96058910
_cell_formula_units_Z   4
loop_
 _symmetry_equiv_pos_site_id
 _symmetry_equiv_pos_as_xyz
  1  'x, y, z'
loop_
 _atom_site_type_symbol
 _atom_site_label
 _atom_site_symmetry_multiplicity
 _atom_site_fract_x
 _atom_site_fract_y
 _atom_site_fract_z
 _atom_site_occupancy
  Rb  Rb0  1  0.357664  0.000000  0.000000  1
  Rb  Rb1  1  0.642336  0.500000  0.500000  1
  Rb  Rb2  1  0.037862  0.000000  0.500000  1
  Rb  Rb3  1  0.962138  0.500000  0.000000  1
  Mn  Mn4  1  0.002116  0.000000  0.250005  1
  Mn  Mn5  1  0.002116  0.000000  0.749995  1
  Mn  Mn6  1  0.997884  0.500000  0.249995  1
  Mn  Mn7  1  0.997884  0.500000  0.750005  1
  Mn  Mn8  1  0.500000  0.250000  0.250000  1
  Mn  Mn9  1  0.500000  0.750000  0.750000  1
  Mn  Mn10  1  0.500000  0.750000  0.250000  1
  Mn  Mn11  1  0.500000  0.250000  0.750000  1
  S  S12  1  0.834074  0.249821  0.331381  1
  S  S13  1  0.834074  0.750179  0.668619  1
  S  S14  1  0.165926  0.749821  0.168619  1
  S  S15  1  0.165926  0.250179  0.831381  1
  S  S16  1  0.165926  0.250179  0.168619  1
  S  S17  1  0.165926  0.749821  0.831381  1
  S  S18  1  0.834074  0.750179  0.331381  1
  S  S19  1  0.834074  0.249821  0.668619  1
  S  S20  1  0.670199  0.000000  0.168930  1
  S  S21  1  0.670199  0.000000  0.831070  1
  S  S22  1  0.329801  0.500000  0.331070  1
  S  S23  1  0.329801  0.500000  0.668930  1
  S  S24  1  0.337985  0.000000  0.330663  1
  S  S25  1  0.337985  0.000000  0.669337  1
  S  S26  1  0.662015  0.500000  0.169337  1
  S  S27  1  0.662015  0.500000  0.830663  1
