# generated using pymatgen
data_SrGd7Be3Si12Rh
_symmetry_space_group_name_H-M   'P 1'
_cell_length_a   7.98098900
_cell_length_b   7.98098806
_cell_length_c   8.36304100
_cell_angle_alpha   90.00000000
_cell_angle_beta   90.00000000
_cell_angle_gamma   119.99999147
_symmetry_Int_Tables_number   1
_chemical_formula_structural   SrGd7Be3Si12Rh
_chemical_formula_sum   'Sr1 Gd7 Be3 Si12 Rh1'
_cell_volume   461.32635730
_cell_formula_units_Z   1
loop_
 _symmetry_equiv_pos_site_id
 _symmetry_equiv_pos_as_xyz
  1  'x, y, z'
loop_
 _atom_site_type_symbol
 _atom_site_label
 _atom_site_symmetry_multiplicity
 _atom_site_fract_x
 _atom_site_fract_y
 _atom_site_fract_z
 _atom_site_occupancy
  Sr  Sr0  1  0.000000  0.000000  0.252083  1
  Gd  Gd1  1  0.000000  0.000000  0.750059  1
  Gd  Gd2  1  0.500740  0.499260  0.250757  1
  Gd  Gd3  1  0.500740  0.001479  0.250757  1
  Gd  Gd4  1  0.998521  0.499260  0.250757  1
  Gd  Gd5  1  0.500495  0.499505  0.749827  1
  Gd  Gd6  1  0.500495  0.000989  0.749827  1
  Gd  Gd7  1  0.999011  0.499505  0.749827  1
  Be  Be8  1  0.333333  0.666667  0.503178  1
  Be  Be9  1  0.666667  0.333333  0.503222  1
  Be  Be10  1  0.666667  0.333333  0.998984  1
  Si  Si11  1  0.173985  0.826015  0.502971  1
  Si  Si12  1  0.173985  0.347969  0.502971  1
  Si  Si13  1  0.652031  0.826015  0.502971  1
  Si  Si14  1  0.826652  0.173348  0.503429  1
  Si  Si15  1  0.826652  0.653302  0.503429  1
  Si  Si16  1  0.346698  0.173348  0.503429  1
  Si  Si17  1  0.829489  0.170511  0.996852  1
  Si  Si18  1  0.829489  0.658976  0.996852  1
  Si  Si19  1  0.341024  0.170511  0.996852  1
  Si  Si20  1  0.168594  0.831406  0.992416  1
  Si  Si21  1  0.168594  0.337189  0.992416  1
  Si  Si22  1  0.662811  0.831406  0.992416  1
  Rh  Rh23  1  0.333333  0.666667  0.003717  1
