# generated using pymatgen
data_Ce8Ta11Si16Mo
_symmetry_space_group_name_H-M   'P 1'
_cell_length_a   6.94019887
_cell_length_b   7.11859539
_cell_length_c   13.41709700
_cell_angle_alpha   90.00000000
_cell_angle_beta   90.00000000
_cell_angle_gamma   89.93906279
_symmetry_Int_Tables_number   1
_chemical_formula_structural   Ce8Ta11Si16Mo
_chemical_formula_sum   'Ce8 Ta11 Si16 Mo1'
_cell_volume   662.86415997
_cell_formula_units_Z   1
loop_
 _symmetry_equiv_pos_site_id
 _symmetry_equiv_pos_as_xyz
  1  'x, y, z'
loop_
 _atom_site_type_symbol
 _atom_site_label
 _atom_site_symmetry_multiplicity
 _atom_site_fract_x
 _atom_site_fract_y
 _atom_site_fract_z
 _atom_site_occupancy
  Ce  Ce0  1  0.996579  0.168224  0.093935  1
  Ce  Ce1  1  0.497154  0.331677  0.405894  1
  Ce  Ce2  1  0.502585  0.667541  0.905488  1
  Ce  Ce3  1  0.003120  0.832265  0.594755  1
  Ce  Ce4  1  0.003120  0.832265  0.905245  1
  Ce  Ce5  1  0.502585  0.667541  0.594512  1
  Ce  Ce6  1  0.497154  0.331677  0.094106  1
  Ce  Ce7  1  0.996579  0.168224  0.406065  1
  Ta  Ta8  1  0.661735  0.993857  0.250000  1
  Ta  Ta9  1  0.161913  0.506457  0.250000  1
  Ta  Ta10  1  0.837530  0.493651  0.750000  1
  Ta  Ta11  1  0.836486  0.673042  0.125444  1
  Ta  Ta12  1  0.336751  0.827467  0.375139  1
  Ta  Ta13  1  0.663822  0.172457  0.874130  1
  Ta  Ta14  1  0.163818  0.326834  0.625830  1
  Ta  Ta15  1  0.163818  0.326834  0.874170  1
  Ta  Ta16  1  0.663822  0.172457  0.625870  1
  Ta  Ta17  1  0.336751  0.827467  0.124861  1
  Ta  Ta18  1  0.836486  0.673042  0.374556  1
  Si  Si19  1  0.797002  0.376429  0.250000  1
  Si  Si20  1  0.296856  0.123791  0.250000  1
  Si  Si21  1  0.699325  0.877607  0.750000  1
  Si  Si22  1  0.201740  0.623534  0.750000  1
  Si  Si23  1  0.039867  0.875583  0.250000  1
  Si  Si24  1  0.538958  0.624645  0.250000  1
  Si  Si25  1  0.459213  0.372982  0.750000  1
  Si  Si26  1  0.962616  0.124386  0.750000  1
  Si  Si27  1  0.840045  0.460166  0.956672  1
  Si  Si28  1  0.340589  0.040913  0.543937  1
  Si  Si29  1  0.660815  0.959158  0.042365  1
  Si  Si30  1  0.160365  0.540482  0.457303  1
  Si  Si31  1  0.160365  0.540482  0.042697  1
  Si  Si32  1  0.660815  0.959158  0.457635  1
  Si  Si33  1  0.340589  0.040913  0.956063  1
  Si  Si34  1  0.840045  0.460166  0.543328  1
  Mo  Mo35  1  0.338992  0.006623  0.750000  1
