# generated using pymatgen
data_Ca9Ac(Si3H)2
_symmetry_space_group_name_H-M   'P 1'
_cell_length_a   9.13659385
_cell_length_b   9.13659343
_cell_length_c   9.11951959
_cell_angle_alpha   129.95448683
_cell_angle_beta   129.95449262
_cell_angle_gamma   73.37984912
_symmetry_Int_Tables_number   1
_chemical_formula_structural   Ca9Ac(Si3H)2
_chemical_formula_sum   'Ca9 Ac1 Si6 H2'
_cell_volume   436.86215135
_cell_formula_units_Z   1
loop_
 _symmetry_equiv_pos_site_id
 _symmetry_equiv_pos_as_xyz
  1  'x, y, z'
loop_
 _atom_site_type_symbol
 _atom_site_label
 _atom_site_symmetry_multiplicity
 _atom_site_fract_x
 _atom_site_fract_y
 _atom_site_fract_z
 _atom_site_occupancy
  Ca  Ca0  1  0.502971  0.510910  0.001094  1
  Ca  Ca1  1  0.010910  0.002971  0.001094  1
  Ca  Ca2  1  0.180309  0.680309  0.158506  1
  Ca  Ca3  1  0.023922  0.187010  0.506233  1
  Ca  Ca4  1  0.687010  0.523922  0.506233  1
  Ca  Ca5  1  0.481161  0.981161  0.173296  1
  Ca  Ca6  1  0.815545  0.315545  0.834191  1
  Ca  Ca7  1  0.975919  0.813227  0.493021  1
  Ca  Ca8  1  0.313227  0.475919  0.493021  1
  Ac  Ac9  1  0.528245  0.028245  0.855750  1
  Si  Si10  1  0.242221  0.247833  0.995690  1
  Si  Si11  1  0.747833  0.742221  0.995690  1
  Si  Si12  1  0.889812  0.389812  0.282425  1
  Si  Si13  1  0.115158  0.615158  0.725432  1
  Si  Si14  1  0.387262  0.113319  0.501497  1
  Si  Si15  1  0.613319  0.887262  0.501497  1
  H  H16  1  0.238596  0.738596  0.484245  1
  H  H17  1  0.746579  0.246579  0.491087  1
