# generated using pymatgen
data_TmLu5CrCo17P12
_symmetry_space_group_name_H-M   'P 1'
_cell_length_a   3.65152700
_cell_length_b   10.46120700
_cell_length_c   12.09542600
_cell_angle_alpha   90.00000000
_cell_angle_beta   90.00000000
_cell_angle_gamma   90.00000000
_symmetry_Int_Tables_number   1
_chemical_formula_structural   TmLu5CrCo17P12
_chemical_formula_sum   'Tm1 Lu5 Cr1 Co17 P12'
_cell_volume   462.03777178
_cell_formula_units_Z   1
loop_
 _symmetry_equiv_pos_site_id
 _symmetry_equiv_pos_as_xyz
  1  'x, y, z'
loop_
 _atom_site_type_symbol
 _atom_site_label
 _atom_site_symmetry_multiplicity
 _atom_site_fract_x
 _atom_site_fract_y
 _atom_site_fract_z
 _atom_site_occupancy
  Tm  Tm0  1  0.500000  0.000000  0.476796  1
  Lu  Lu1  1  0.000000  0.500000  0.523550  1
  Lu  Lu2  1  0.500000  0.818208  0.206491  1
  Lu  Lu3  1  0.500000  0.181792  0.206491  1
  Lu  Lu4  1  0.000000  0.681457  0.795601  1
  Lu  Lu5  1  0.000000  0.318543  0.795601  1
  Cr  Cr6  1  0.500000  0.500000  0.155413  1
  Co  Co7  1  0.000000  0.000000  0.839445  1
  Co  Co8  1  0.500000  0.500000  0.702458  1
  Co  Co9  1  0.000000  0.000000  0.296588  1
  Co  Co10  1  0.000000  0.500000  0.987349  1
  Co  Co11  1  0.500000  0.000000  0.014810  1
  Co  Co12  1  0.500000  0.332553  0.992707  1
  Co  Co13  1  0.500000  0.667447  0.992707  1
  Co  Co14  1  0.000000  0.166888  0.006408  1
  Co  Co15  1  0.000000  0.833112  0.006408  1
  Co  Co16  1  0.500000  0.297349  0.431001  1
  Co  Co17  1  0.500000  0.702651  0.431001  1
  Co  Co18  1  0.000000  0.203171  0.569027  1
  Co  Co19  1  0.000000  0.796829  0.569027  1
  Co  Co20  1  0.500000  0.877892  0.708636  1
  Co  Co21  1  0.500000  0.122108  0.708636  1
  Co  Co22  1  0.000000  0.621506  0.291361  1
  Co  Co23  1  0.000000  0.378494  0.291361  1
  P  P24  1  0.500000  0.500000  0.880941  1
  P  P25  1  0.000000  0.000000  0.118450  1
  P  P26  1  0.500000  0.500000  0.347827  1
  P  P27  1  0.000000  0.000000  0.654374  1
  P  P28  1  0.500000  0.312827  0.617154  1
  P  P29  1  0.500000  0.687173  0.617154  1
  P  P30  1  0.000000  0.187590  0.383308  1
  P  P31  1  0.000000  0.812410  0.383308  1
  P  P32  1  0.500000  0.848140  0.891075  1
  P  P33  1  0.500000  0.151860  0.891075  1
  P  P34  1  0.000000  0.654650  0.108231  1
  P  P35  1  0.000000  0.345350  0.108231  1
