# generated using pymatgen
data_Sc10Pb6N
_symmetry_space_group_name_H-M   'P 1'
_cell_length_a   8.53142700
_cell_length_b   8.53142717
_cell_length_c   6.17415400
_cell_angle_alpha   90.00000000
_cell_angle_beta   90.00000000
_cell_angle_gamma   119.99999546
_symmetry_Int_Tables_number   1
_chemical_formula_structural   Sc10Pb6N
_chemical_formula_sum   'Sc10 Pb6 N1'
_cell_volume   389.18086248
_cell_formula_units_Z   1
loop_
 _symmetry_equiv_pos_site_id
 _symmetry_equiv_pos_as_xyz
  1  'x, y, z'
loop_
 _atom_site_type_symbol
 _atom_site_label
 _atom_site_symmetry_multiplicity
 _atom_site_fract_x
 _atom_site_fract_y
 _atom_site_fract_z
 _atom_site_occupancy
  Sc  Sc0  1  0.000000  0.781126  0.278673  1
  Sc  Sc1  1  0.218874  0.218874  0.278673  1
  Sc  Sc2  1  0.781126  0.000000  0.278673  1
  Sc  Sc3  1  0.000000  0.218874  0.721327  1
  Sc  Sc4  1  0.781126  0.781126  0.721327  1
  Sc  Sc5  1  0.218874  0.000000  0.721327  1
  Sc  Sc6  1  0.333333  0.666667  0.000000  1
  Sc  Sc7  1  0.666667  0.333333  0.000000  1
  Sc  Sc8  1  0.666667  0.333333  0.500000  1
  Sc  Sc9  1  0.333333  0.666667  0.500000  1
  Pb  Pb10  1  0.000000  0.398654  0.248058  1
  Pb  Pb11  1  0.601346  0.601346  0.248058  1
  Pb  Pb12  1  0.398654  0.000000  0.248058  1
  Pb  Pb13  1  0.000000  0.601346  0.751942  1
  Pb  Pb14  1  0.398654  0.398654  0.751942  1
  Pb  Pb15  1  0.601346  0.000000  0.751942  1
  N  N16  1  0.000000  0.000000  0.500000  1
