# generated using pymatgen
data_LuNp3(WF7)4
_symmetry_space_group_name_H-M   'P 1'
_cell_length_a   5.79182776
_cell_length_b   9.33289920
_cell_length_c   12.51463300
_cell_angle_alpha   61.83774639
_cell_angle_beta   89.95528580
_cell_angle_gamma   90.11295007
_symmetry_Int_Tables_number   1
_chemical_formula_structural   LuNp3(WF7)4
_chemical_formula_sum   'Lu1 Np3 W4 F28'
_cell_volume   596.38598948
_cell_formula_units_Z   1
loop_
 _symmetry_equiv_pos_site_id
 _symmetry_equiv_pos_as_xyz
  1  'x, y, z'
loop_
 _atom_site_type_symbol
 _atom_site_label
 _atom_site_symmetry_multiplicity
 _atom_site_fract_x
 _atom_site_fract_y
 _atom_site_fract_z
 _atom_site_occupancy
  Lu  Lu0  1  0.744272  0.811241  0.261031  1
  Np  Np1  1  0.246363  0.186142  0.232243  1
  Np  Np2  1  0.252153  0.192449  0.732047  1
  Np  Np3  1  0.754926  0.808557  0.763131  1
  W  W4  1  0.745201  0.280059  0.453976  1
  W  W5  1  0.243487  0.729753  0.048816  1
  W  W6  1  0.258238  0.728097  0.534348  1
  W  W7  1  0.751285  0.267755  0.960213  1
  F  F8  1  0.466075  0.714444  0.923568  1
  F  F9  1  0.971899  0.287885  0.584751  1
  F  F10  1  0.529097  0.290349  0.086145  1
  F  F11  1  0.041685  0.711608  0.418147  1
  F  F12  1  0.457817  0.285237  0.557272  1
  F  F13  1  0.971224  0.720480  0.951687  1
  F  F14  1  0.543906  0.724062  0.436091  1
  F  F15  1  0.045507  0.278763  0.057111  1
  F  F16  1  0.761040  0.527799  0.855254  1
  F  F17  1  0.263989  0.486936  0.638289  1
  F  F18  1  0.229543  0.487551  0.142310  1
  F  F19  1  0.741014  0.537551  0.349929  1
  F  F20  1  0.752620  0.013365  0.068937  1
  F  F21  1  0.263438  0.969998  0.442488  1
  F  F22  1  0.237202  0.970515  0.946607  1
  F  F23  1  0.736003  0.022328  0.565678  1
  F  F24  1  0.989455  0.737450  0.641226  1
  F  F25  1  0.473965  0.262728  0.851157  1
  F  F26  1  0.018242  0.258728  0.348799  1
  F  F27  1  0.503910  0.738872  0.149942  1
  F  F28  1  0.026888  0.749986  0.172707  1
  F  F29  1  0.521422  0.255506  0.328856  1
  F  F30  1  0.967385  0.248118  0.830449  1
  F  F31  1  0.468006  0.741988  0.658318  1
  F  F32  1  0.433741  0.974260  0.235734  1
  F  F33  1  0.937602  0.009835  0.267128  1
  F  F34  1  0.571501  0.021012  0.768481  1
  F  F35  1  0.079899  0.968593  0.737132  1
