# generated using pymatgen
data_Gd8In4Pt3Au5
_symmetry_space_group_name_H-M   'P 1'
_cell_length_a   7.99483625
_cell_length_b   7.99483657
_cell_length_c   7.34590700
_cell_angle_alpha   90.05168551
_cell_angle_beta   90.05168551
_cell_angle_gamma   90.63322094
_symmetry_Int_Tables_number   1
_chemical_formula_structural   Gd8In4Pt3Au5
_chemical_formula_sum   'Gd8 In4 Pt3 Au5'
_cell_volume   469.50228340
_cell_formula_units_Z   1
loop_
 _symmetry_equiv_pos_site_id
 _symmetry_equiv_pos_as_xyz
  1  'x, y, z'
loop_
 _atom_site_type_symbol
 _atom_site_label
 _atom_site_symmetry_multiplicity
 _atom_site_fract_x
 _atom_site_fract_y
 _atom_site_fract_z
 _atom_site_occupancy
  Gd  Gd0  1  0.167921  0.167871  0.004959  1
  Gd  Gd1  1  0.825117  0.825048  0.999307  1
  Gd  Gd2  1  0.664310  0.344621  0.496339  1
  Gd  Gd3  1  0.344633  0.664316  0.496368  1
  Gd  Gd4  1  0.675339  0.333758  0.002911  1
  Gd  Gd5  1  0.333839  0.675416  0.002951  1
  Gd  Gd6  1  0.813708  0.813736  0.500359  1
  Gd  Gd7  1  0.181580  0.181520  0.495960  1
  In  In8  1  0.499935  0.005196  0.249500  1
  In  In9  1  0.500856  0.997432  0.749006  1
  In  In10  1  0.005182  0.499927  0.249511  1
  In  In11  1  0.997380  0.500901  0.749063  1
  Pt  Pt12  1  0.370315  0.370322  0.239451  1
  Pt  Pt13  1  0.626536  0.626511  0.760115  1
  Pt  Pt14  1  0.628059  0.628022  0.239262  1
  Au  Au15  1  0.871007  0.127862  0.737800  1
  Au  Au16  1  0.869888  0.125631  0.262701  1
  Au  Au17  1  0.371058  0.371098  0.764001  1
  Au  Au18  1  0.125528  0.869867  0.262978  1
  Au  Au19  1  0.127810  0.870945  0.737457  1
