# generated using pymatgen
data_SrCeAsPt8
_symmetry_space_group_name_H-M   'P 1'
_cell_length_a   4.31993800
_cell_length_b   9.26987249
_cell_length_c   9.35730589
_cell_angle_alpha   145.46356998
_cell_angle_beta   90.00000000
_cell_angle_gamma   90.00000000
_symmetry_Int_Tables_number   1
_chemical_formula_structural   SrCeAsPt8
_chemical_formula_sum   'Sr1 Ce1 As1 Pt8'
_cell_volume   212.43772081
_cell_formula_units_Z   1
loop_
 _symmetry_equiv_pos_site_id
 _symmetry_equiv_pos_as_xyz
  1  'x, y, z'
loop_
 _atom_site_type_symbol
 _atom_site_label
 _atom_site_symmetry_multiplicity
 _atom_site_fract_x
 _atom_site_fract_y
 _atom_site_fract_z
 _atom_site_occupancy
  Sr  Sr0  1  0.500000  0.616379  0.374628  1
  Ce  Ce1  1  0.500000  0.376832  0.633535  1
  As  As2  1  0.000000  0.232020  0.225407  1
  Pt  Pt3  1  0.000000  0.887286  0.111683  1
  Pt  Pt4  1  0.500000  0.794413  0.196770  1
  Pt  Pt5  1  0.000000  0.995699  0.489789  1
  Pt  Pt6  1  0.000000  0.639921  0.656799  1
  Pt  Pt7  1  0.500000  0.197135  0.786499  1
  Pt  Pt8  1  0.000000  0.098547  0.869313  1
  Pt  Pt9  1  0.000000  0.491045  0.979732  1
  Pt  Pt10  1  0.500000  0.984305  0.989428  1
