# generated using pymatgen
data_Tm12AlInTc3
_symmetry_space_group_name_H-M   'P 1'
_cell_length_a   8.30631143
_cell_length_b   8.30631004
_cell_length_c   8.30631000
_cell_angle_alpha   111.98047611
_cell_angle_beta   107.61022938
_cell_angle_gamma   108.85469623
_symmetry_Int_Tables_number   1
_chemical_formula_structural   Tm12AlInTc3
_chemical_formula_sum   'Tm12 Al1 In1 Tc3'
_cell_volume   440.47928024
_cell_formula_units_Z   1
loop_
 _symmetry_equiv_pos_site_id
 _symmetry_equiv_pos_as_xyz
  1  'x, y, z'
loop_
 _atom_site_type_symbol
 _atom_site_label
 _atom_site_symmetry_multiplicity
 _atom_site_fract_x
 _atom_site_fract_y
 _atom_site_fract_z
 _atom_site_occupancy
  Tm  Tm0  1  0.187024  0.437342  0.250318  1
  Tm  Tm1  1  0.812976  0.562658  0.749682  1
  Tm  Tm2  1  0.187024  0.936707  0.749682  1
  Tm  Tm3  1  0.944943  0.184855  0.760086  1
  Tm  Tm4  1  0.812976  0.063293  0.250318  1
  Tm  Tm5  1  0.055057  0.815145  0.239914  1
  Tm  Tm6  1  0.424769  0.184855  0.239914  1
  Tm  Tm7  1  0.575231  0.815145  0.760086  1
  Tm  Tm8  1  0.317857  0.317473  0.635330  1
  Tm  Tm9  1  0.682143  0.682527  0.364670  1
  Tm  Tm10  1  0.682143  0.317473  0.999617  1
  Tm  Tm11  1  0.317857  0.682527  0.000383  1
  Al  Al12  1  0.000000  0.500000  0.500000  1
  In  In13  1  0.500000  0.000000  0.500000  1
  Tc  Tc14  1  0.338250  0.338250  0.000000  1
  Tc  Tc15  1  0.661750  0.661750  0.000000  1
  Tc  Tc16  1  0.000000  0.000000  0.000000  1
