# generated using pymatgen
data_Cs4Mn3VS8
_symmetry_space_group_name_H-M   'P 1'
_cell_length_a   5.39781839
_cell_length_b   7.37053177
_cell_length_c   12.56696005
_cell_angle_alpha   88.25491325
_cell_angle_beta   83.58142808
_cell_angle_gamma   79.59030160
_symmetry_Int_Tables_number   1
_chemical_formula_structural   Cs4Mn3VS8
_chemical_formula_sum   'Cs4 Mn3 V1 S8'
_cell_volume   488.63549178
_cell_formula_units_Z   1
loop_
 _symmetry_equiv_pos_site_id
 _symmetry_equiv_pos_as_xyz
  1  'x, y, z'
loop_
 _atom_site_type_symbol
 _atom_site_label
 _atom_site_symmetry_multiplicity
 _atom_site_fract_x
 _atom_site_fract_y
 _atom_site_fract_z
 _atom_site_occupancy
  Cs  Cs0  1  0.080108  0.025880  0.672668  1
  Cs  Cs1  1  0.568809  0.527018  0.178285  1
  Cs  Cs2  1  0.422226  0.473875  0.822124  1
  Cs  Cs3  1  0.928183  0.974252  0.327212  1
  Mn  Mn4  1  0.250399  0.498604  0.499399  1
  Mn  Mn5  1  0.749828  0.501351  0.500424  1
  Mn  Mn6  1  0.249970  0.001940  0.000683  1
  V  V7  1  0.750380  0.998336  0.999562  1
  S  S8  1  0.953511  0.555947  0.634313  1
  S  S9  1  0.467599  0.061128  0.141272  1
  S  S10  1  0.930737  0.241842  0.959679  1
  S  S11  1  0.451559  0.730103  0.461363  1
  S  S12  1  0.565865  0.937933  0.858937  1
  S  S13  1  0.046163  0.444113  0.365420  1
  S  S14  1  0.549140  0.269936  0.538683  1
  S  S15  1  0.035523  0.757737  0.039974  1
