# generated using pymatgen
data_Tb8Lu2Sn7Te
_symmetry_space_group_name_H-M   'P 1'
_cell_length_a   8.06129200
_cell_length_b   8.15135038
_cell_length_c   15.45836500
_cell_angle_alpha   90.25915280
_cell_angle_beta   90.00000000
_cell_angle_gamma   90.00000000
_symmetry_Int_Tables_number   1
_chemical_formula_structural   Tb8Lu2Sn7Te
_chemical_formula_sum   'Tb16 Lu4 Sn14 Te2'
_cell_volume   1015.76519841
_cell_formula_units_Z   2
loop_
 _symmetry_equiv_pos_site_id
 _symmetry_equiv_pos_as_xyz
  1  'x, y, z'
loop_
 _atom_site_type_symbol
 _atom_site_label
 _atom_site_symmetry_multiplicity
 _atom_site_fract_x
 _atom_site_fract_y
 _atom_site_fract_z
 _atom_site_occupancy
  Tb  Tb0  1  0.375577  0.837931  0.879228  1
  Tb  Tb1  1  0.875577  0.662069  0.620772  1
  Tb  Tb2  1  0.625683  0.158209  0.377027  1
  Tb  Tb3  1  0.125683  0.341791  0.122973  1
  Tb  Tb4  1  0.627691  0.161959  0.120961  1
  Tb  Tb5  1  0.127691  0.338041  0.379039  1
  Tb  Tb6  1  0.374272  0.838158  0.622362  1
  Tb  Tb7  1  0.874272  0.661842  0.877638  1
  Tb  Tb8  1  0.540377  0.333627  0.895354  1
  Tb  Tb9  1  0.040377  0.166373  0.604646  1
  Tb  Tb10  1  0.459628  0.680176  0.397654  1
  Tb  Tb11  1  0.959628  0.819824  0.102346  1
  Tb  Tb12  1  0.471997  0.669269  0.100266  1
  Tb  Tb13  1  0.971997  0.830731  0.399734  1
  Tb  Tb14  1  0.525888  0.317214  0.601532  1
  Tb  Tb15  1  0.025888  0.182786  0.898468  1
  Lu  Lu16  1  0.202871  0.502072  0.749157  1
  Lu  Lu17  1  0.702871  0.997928  0.750843  1
  Lu  Lu18  1  0.796788  0.499171  0.244788  1
  Lu  Lu19  1  0.296788  0.000829  0.255212  1
  Sn  Sn20  1  0.718006  0.970330  0.543268  1
  Sn  Sn21  1  0.218006  0.529670  0.956732  1
  Sn  Sn22  1  0.716701  0.969603  0.955859  1
  Sn  Sn23  1  0.216701  0.530397  0.544141  1
  Sn  Sn24  1  0.289380  0.033846  0.456887  1
  Sn  Sn25  1  0.789380  0.466154  0.043113  1
  Sn  Sn26  1  0.569129  0.622196  0.748433  1
  Sn  Sn27  1  0.069129  0.877804  0.751567  1
  Sn  Sn28  1  0.432356  0.377743  0.250237  1
  Sn  Sn29  1  0.932356  0.122257  0.249763  1
  Sn  Sn30  1  0.338675  0.147870  0.752501  1
  Sn  Sn31  1  0.838675  0.352130  0.747499  1
  Sn  Sn32  1  0.659115  0.850945  0.249819  1
  Sn  Sn33  1  0.159115  0.649055  0.250181  1
  Te  Te34  1  0.275865  0.023155  0.049313  1
  Te  Te35  1  0.775865  0.476845  0.450687  1
