# generated using pymatgen
data_PaTe13
_symmetry_space_group_name_H-M   'P 1'
_cell_length_a   9.77138092
_cell_length_b   11.48662584
_cell_length_c   11.03246921
_cell_angle_alpha   113.82947230
_cell_angle_beta   109.75427095
_cell_angle_gamma   82.14834353
_symmetry_Int_Tables_number   1
_chemical_formula_structural   PaTe13
_chemical_formula_sum   'Pa2 Te26'
_cell_volume   1066.06508739
_cell_formula_units_Z   2
loop_
 _symmetry_equiv_pos_site_id
 _symmetry_equiv_pos_as_xyz
  1  'x, y, z'
loop_
 _atom_site_type_symbol
 _atom_site_label
 _atom_site_symmetry_multiplicity
 _atom_site_fract_x
 _atom_site_fract_y
 _atom_site_fract_z
 _atom_site_occupancy
  Pa  Pa0  1  0.326357  0.803698  0.850651  1
  Pa  Pa1  1  0.673643  0.196302  0.149349  1
  Te  Te2  1  0.455885  0.677533  0.081452  1
  Te  Te3  1  0.544115  0.322467  0.918548  1
  Te  Te4  1  0.554226  0.890546  0.329903  1
  Te  Te5  1  0.445774  0.109454  0.670097  1
  Te  Te6  1  0.668925  0.750427  0.961154  1
  Te  Te7  1  0.331075  0.249573  0.038846  1
  Te  Te8  1  0.806648  0.978557  0.263401  1
  Te  Te9  1  0.193352  0.021443  0.736599  1
  Te  Te10  1  0.420195  0.047677  0.159444  1
  Te  Te11  1  0.579805  0.952323  0.840556  1
  Te  Te12  1  0.167034  0.650573  0.521499  1
  Te  Te13  1  0.832966  0.349427  0.478501  1
  Te  Te14  1  0.065613  0.813059  0.977276  1
  Te  Te15  1  0.934387  0.186941  0.022724  1
  Te  Te16  1  0.053371  0.073462  0.243556  1
  Te  Te17  1  0.946629  0.926538  0.756444  1
  Te  Te18  1  0.232298  0.818496  0.419376  1
  Te  Te19  1  0.767702  0.181504  0.580624  1
  Te  Te20  1  0.496851  0.580616  0.700695  1
  Te  Te21  1  0.503149  0.419384  0.299305  1
  Te  Te22  1  0.143963  0.565493  0.782935  1
  Te  Te23  1  0.856037  0.434507  0.217065  1
  Te  Te24  1  0.864564  0.687680  0.470630  1
  Te  Te25  1  0.135436  0.312320  0.529370  1
  Te  Te26  1  0.194768  0.645141  0.142512  1
  Te  Te27  1  0.805232  0.354859  0.857488  1
