# generated using pymatgen
data_Gd2Zn2As(PN2)6
_symmetry_space_group_name_H-M   'P 1'
_cell_length_a   7.43458063
_cell_length_b   7.43390938
_cell_length_c   7.43458059
_cell_angle_alpha   110.03118156
_cell_angle_beta   108.36076143
_cell_angle_gamma   110.03117866
_symmetry_Int_Tables_number   1
_chemical_formula_structural   Gd2Zn2As(PN2)6
_chemical_formula_sum   'Gd2 Zn2 As1 P6 N12'
_cell_volume   316.20282091
_cell_formula_units_Z   1
loop_
 _symmetry_equiv_pos_site_id
 _symmetry_equiv_pos_as_xyz
  1  'x, y, z'
loop_
 _atom_site_type_symbol
 _atom_site_label
 _atom_site_symmetry_multiplicity
 _atom_site_fract_x
 _atom_site_fract_y
 _atom_site_fract_z
 _atom_site_occupancy
  Gd  Gd0  1  0.984952  0.325043  0.984952  1
  Gd  Gd1  1  0.659910  0.674957  0.659910  1
  Zn  Zn2  1  0.358520  0.000000  0.004917  1
  Zn  Zn3  1  0.004917  0.000000  0.358520  1
  As  As4  1  0.053145  0.000000  0.053145  1
  P  P5  1  0.744577  0.245885  0.488710  1
  P  P6  1  0.242826  0.754115  0.498692  1
  P  P7  1  0.498692  0.754115  0.242826  1
  P  P8  1  0.488710  0.245885  0.744577  1
  P  P9  1  0.746962  0.500000  0.246962  1
  P  P10  1  0.246962  0.500000  0.746962  1
  N  N11  1  0.582750  0.280528  0.996041  1
  N  N12  1  0.420630  0.423941  0.714424  1
  N  N13  1  0.996041  0.280528  0.582750  1
  N  N14  1  0.269575  0.000000  0.578757  1
  N  N15  1  0.714424  0.423941  0.420630  1
  N  N16  1  0.996689  0.576059  0.290484  1
  N  N17  1  0.578757  0.000000  0.269575  1
  N  N18  1  0.407763  0.712784  0.407763  1
  N  N19  1  0.290484  0.576059  0.996689  1
  N  N20  1  0.694979  0.287216  0.694979  1
  N  N21  1  0.715513  0.719472  0.302223  1
  N  N22  1  0.302223  0.719472  0.715513  1
