# generated using pymatgen
data_Ta5Be15NbNi8
_symmetry_space_group_name_H-M   'P 1'
_cell_length_a   7.56553455
_cell_length_b   7.56553384
_cell_length_c   7.56715100
_cell_angle_alpha   59.99292448
_cell_angle_beta   59.99292758
_cell_angle_gamma   60.01413431
_symmetry_Int_Tables_number   1
_chemical_formula_structural   Ta5Be15NbNi8
_chemical_formula_sum   'Ta5 Be15 Nb1 Ni8'
_cell_volume   306.26439857
_cell_formula_units_Z   1
loop_
 _symmetry_equiv_pos_site_id
 _symmetry_equiv_pos_as_xyz
  1  'x, y, z'
loop_
 _atom_site_type_symbol
 _atom_site_label
 _atom_site_symmetry_multiplicity
 _atom_site_fract_x
 _atom_site_fract_y
 _atom_site_fract_z
 _atom_site_occupancy
  Ta  Ta0  1  0.703503  0.296142  0.296497  1
  Ta  Ta1  1  0.296142  0.703503  0.703858  1
  Ta  Ta2  1  0.296142  0.703503  0.296497  1
  Ta  Ta3  1  0.703503  0.296142  0.703858  1
  Ta  Ta4  1  0.297087  0.297087  0.702913  1
  Be  Be5  1  0.326417  0.326417  0.326473  1
  Be  Be6  1  0.673599  0.673599  0.673910  1
  Be  Be7  1  0.326417  0.326417  0.020693  1
  Be  Be8  1  0.326090  0.021110  0.326401  1
  Be  Be9  1  0.673599  0.673599  0.978890  1
  Be  Be10  1  0.673527  0.979307  0.673583  1
  Be  Be11  1  0.021110  0.326090  0.326401  1
  Be  Be12  1  0.979307  0.673527  0.673583  1
  Be  Be13  1  0.499832  0.000058  0.999942  1
  Be  Be14  1  0.000058  0.499832  0.500168  1
  Be  Be15  1  0.000058  0.499832  0.999942  1
  Be  Be16  1  0.499832  0.000058  0.500168  1
  Be  Be17  1  0.000035  0.000035  0.499965  1
  Be  Be18  1  0.500035  0.500035  0.999965  1
  Be  Be19  1  0.000085  0.000085  0.999915  1
  Nb  Nb20  1  0.702327  0.702327  0.297673  1
  Ni  Ni21  1  0.122754  0.122754  0.122627  1
  Ni  Ni22  1  0.877570  0.877570  0.876658  1
  Ni  Ni23  1  0.122754  0.122754  0.631865  1
  Ni  Ni24  1  0.123342  0.631797  0.122430  1
  Ni  Ni25  1  0.877570  0.877570  0.368203  1
  Ni  Ni26  1  0.877373  0.368135  0.877246  1
  Ni  Ni27  1  0.631797  0.123342  0.122430  1
  Ni  Ni28  1  0.368135  0.877373  0.877246  1
