# generated using pymatgen
data_Tb16In4RuPtRh2
_symmetry_space_group_name_H-M   'P 1'
_cell_length_a   9.71053028
_cell_length_b   9.72704337
_cell_length_c   9.71053032
_cell_angle_alpha   60.01833701
_cell_angle_beta   59.92171470
_cell_angle_gamma   60.01833410
_symmetry_Int_Tables_number   1
_chemical_formula_structural   Tb16In4RuPtRh2
_chemical_formula_sum   'Tb16 In4 Ru1 Pt1 Rh2'
_cell_volume   648.35715502
_cell_formula_units_Z   1
loop_
 _symmetry_equiv_pos_site_id
 _symmetry_equiv_pos_as_xyz
  1  'x, y, z'
loop_
 _atom_site_type_symbol
 _atom_site_label
 _atom_site_symmetry_multiplicity
 _atom_site_fract_x
 _atom_site_fract_y
 _atom_site_fract_z
 _atom_site_occupancy
  Tb  Tb0  1  0.809938  0.808876  0.194871  1
  Tb  Tb1  1  0.809104  0.196872  0.809104  1
  Tb  Tb2  1  0.188197  0.192449  0.811174  1
  Tb  Tb3  1  0.646041  0.053536  0.646041  1
  Tb  Tb4  1  0.061057  0.060225  0.437500  1
  Tb  Tb5  1  0.440760  0.436670  0.059915  1
  Tb  Tb6  1  0.653005  0.652014  0.653005  1
  Tb  Tb7  1  0.811174  0.192449  0.188197  1
  Tb  Tb8  1  0.194871  0.808876  0.809938  1
  Tb  Tb9  1  0.051885  0.645437  0.647622  1
  Tb  Tb10  1  0.437500  0.060225  0.061057  1
  Tb  Tb11  1  0.437780  0.060042  0.437780  1
  Tb  Tb12  1  0.059231  0.436490  0.059231  1
  Tb  Tb13  1  0.647622  0.645437  0.051885  1
  Tb  Tb14  1  0.190742  0.810548  0.190742  1
  Tb  Tb15  1  0.059915  0.436670  0.440760  1
  In  In16  1  0.416876  0.416856  0.416876  1
  In  In17  1  0.417406  0.417691  0.748153  1
  In  In18  1  0.418483  0.746708  0.418483  1
  In  In19  1  0.748153  0.417691  0.417406  1
  Ru  Ru20  1  0.858663  0.426013  0.858663  1
  Pt  Pt21  1  0.856785  0.858541  0.856785  1
  Rh  Rh22  1  0.858718  0.859841  0.426095  1
  Rh  Rh23  1  0.426095  0.859841  0.858718  1
