# generated using pymatgen
data_K3TbRhO6
_symmetry_space_group_name_H-M   'P 1'
_cell_length_a   7.23074839
_cell_length_b   7.23110181
_cell_length_c   7.23098300
_cell_angle_alpha   94.40147356
_cell_angle_beta   94.39968180
_cell_angle_gamma   94.40955259
_symmetry_Int_Tables_number   1
_chemical_formula_structural   K3TbRhO6
_chemical_formula_sum   'K6 Tb2 Rh2 O12'
_cell_volume   374.55017770
_cell_formula_units_Z   2
loop_
 _symmetry_equiv_pos_site_id
 _symmetry_equiv_pos_as_xyz
  1  'x, y, z'
loop_
 _atom_site_type_symbol
 _atom_site_label
 _atom_site_symmetry_multiplicity
 _atom_site_fract_x
 _atom_site_fract_y
 _atom_site_fract_z
 _atom_site_occupancy
  K  K0  1  0.750009  0.383083  0.116935  1
  K  K1  1  0.616932  0.883073  0.250006  1
  K  K2  1  0.116908  0.749996  0.383082  1
  K  K3  1  0.883092  0.250004  0.616918  1
  K  K4  1  0.383068  0.116926  0.749994  1
  K  K5  1  0.249991  0.616917  0.883065  1
  Tb  Tb6  1  0.249988  0.250003  0.250011  1
  Tb  Tb7  1  0.750012  0.749997  0.749989  1
  Rh  Rh8  1  0.000000  0.000000  0.000000  1
  Rh  Rh9  1  0.500001  0.500000  0.500001  1
  O  O10  1  0.911057  0.737974  0.031976  1
  O  O11  1  0.262019  0.968037  0.088936  1
  O  O12  1  0.411060  0.531970  0.237988  1
  O  O13  1  0.968036  0.088954  0.262030  1
  O  O14  1  0.531957  0.237987  0.411067  1
  O  O15  1  0.762025  0.588947  0.468030  1
  O  O16  1  0.237975  0.411053  0.531970  1
  O  O17  1  0.468043  0.762012  0.588933  1
  O  O18  1  0.031964  0.911046  0.737970  1
  O  O19  1  0.588940  0.468029  0.762012  1
  O  O20  1  0.737982  0.031963  0.911064  1
  O  O21  1  0.088943  0.262026  0.968024  1
