# generated using pymatgen
data_HoSc3(MoN2)4
_symmetry_space_group_name_H-M   'P 1'
_cell_length_a   3.09660600
_cell_length_b   5.55589814
_cell_length_c   10.36884737
_cell_angle_alpha   90.30006941
_cell_angle_beta   90.00000000
_cell_angle_gamma   90.00000000
_symmetry_Int_Tables_number   1
_chemical_formula_structural   HoSc3(MoN2)4
_chemical_formula_sum   'Ho1 Sc3 Mo4 N8'
_cell_volume   178.38763671
_cell_formula_units_Z   1
loop_
 _symmetry_equiv_pos_site_id
 _symmetry_equiv_pos_as_xyz
  1  'x, y, z'
loop_
 _atom_site_type_symbol
 _atom_site_label
 _atom_site_symmetry_multiplicity
 _atom_site_fract_x
 _atom_site_fract_y
 _atom_site_fract_z
 _atom_site_occupancy
  Ho  Ho0  1  0.750000  0.419025  0.353621  1
  Sc  Sc1  1  0.250000  0.077449  0.854006  1
  Sc  Sc2  1  0.250000  0.576881  0.649343  1
  Sc  Sc3  1  0.750000  0.922141  0.145225  1
  Mo  Mo4  1  0.250000  0.430430  0.091556  1
  Mo  Mo5  1  0.250000  0.926567  0.405411  1
  Mo  Mo6  1  0.750000  0.571948  0.904533  1
  Mo  Mo7  1  0.750000  0.069471  0.597097  1
  N  N8  1  0.250000  0.156026  0.243342  1
  N  N9  1  0.250000  0.670819  0.247814  1
  N  N10  1  0.750000  0.838795  0.754919  1
  N  N11  1  0.750000  0.340109  0.747049  1
  N  N12  1  0.250000  0.773559  0.995144  1
  N  N13  1  0.250000  0.268338  0.509115  1
  N  N14  1  0.750000  0.227353  0.001051  1
  N  N15  1  0.750000  0.731089  0.500774  1
