# generated using pymatgen
data_Ac3La(Sn2Rh)4
_symmetry_space_group_name_H-M   'P 1'
_cell_length_a   9.02636731
_cell_length_b   9.02636662
_cell_length_c   9.84467300
_cell_angle_alpha   90.00000000
_cell_angle_beta   90.00000000
_cell_angle_gamma   149.21536631
_symmetry_Int_Tables_number   1
_chemical_formula_structural   Ac3La(Sn2Rh)4
_chemical_formula_sum   'Ac3 La1 Sn8 Rh4'
_cell_volume   410.52360880
_cell_formula_units_Z   1
loop_
 _symmetry_equiv_pos_site_id
 _symmetry_equiv_pos_as_xyz
  1  'x, y, z'
loop_
 _atom_site_type_symbol
 _atom_site_label
 _atom_site_symmetry_multiplicity
 _atom_site_fract_x
 _atom_site_fract_y
 _atom_site_fract_z
 _atom_site_occupancy
  Ac  Ac0  1  0.499832  0.500168  0.500651  1
  Ac  Ac1  1  0.499832  0.500168  0.999349  1
  Ac  Ac2  1  0.297412  0.702588  0.250000  1
  La  La3  1  0.703631  0.296369  0.750000  1
  Sn  Sn4  1  0.907112  0.092888  0.750000  1
  Sn  Sn5  1  0.927106  0.072894  0.250000  1
  Sn  Sn6  1  0.093477  0.906523  0.250000  1
  Sn  Sn7  1  0.076480  0.923520  0.750000  1
  Sn  Sn8  1  0.696281  0.303719  0.411820  1
  Sn  Sn9  1  0.301922  0.698078  0.593511  1
  Sn  Sn10  1  0.301922  0.698078  0.906489  1
  Sn  Sn11  1  0.696281  0.303719  0.088180  1
  Rh  Rh12  1  0.148662  0.851338  0.503868  1
  Rh  Rh13  1  0.850693  0.149307  0.001866  1
  Rh  Rh14  1  0.148662  0.851338  0.996132  1
  Rh  Rh15  1  0.850693  0.149307  0.498134  1
