# generated using pymatgen
data_Nb10AlPt4
_symmetry_space_group_name_H-M   'P 1'
_cell_length_a   9.98102000
_cell_length_b   9.98102000
_cell_length_c   5.20696900
_cell_angle_alpha   90.00000000
_cell_angle_beta   90.00000000
_cell_angle_gamma   90.00000000
_symmetry_Int_Tables_number   1
_chemical_formula_structural   Nb10AlPt4
_chemical_formula_sum   'Nb20 Al2 Pt8'
_cell_volume   518.72221033
_cell_formula_units_Z   2
loop_
 _symmetry_equiv_pos_site_id
 _symmetry_equiv_pos_as_xyz
  1  'x, y, z'
loop_
 _atom_site_type_symbol
 _atom_site_label
 _atom_site_symmetry_multiplicity
 _atom_site_fract_x
 _atom_site_fract_y
 _atom_site_fract_z
 _atom_site_occupancy
  Nb  Nb0  1  0.397343  0.397343  0.000000  1
  Nb  Nb1  1  0.897343  0.102657  0.500000  1
  Nb  Nb2  1  0.102657  0.897343  0.500000  1
  Nb  Nb3  1  0.602657  0.602657  0.000000  1
  Nb  Nb4  1  0.127177  0.463021  0.000000  1
  Nb  Nb5  1  0.963021  0.372823  0.500000  1
  Nb  Nb6  1  0.036979  0.627177  0.500000  1
  Nb  Nb7  1  0.872823  0.536979  0.000000  1
  Nb  Nb8  1  0.372823  0.963021  0.500000  1
  Nb  Nb9  1  0.627177  0.036979  0.500000  1
  Nb  Nb10  1  0.463021  0.127177  0.000000  1
  Nb  Nb11  1  0.536979  0.872823  0.000000  1
  Nb  Nb12  1  0.182201  0.182201  0.252989  1
  Nb  Nb13  1  0.682201  0.317799  0.752989  1
  Nb  Nb14  1  0.317799  0.682201  0.752989  1
  Nb  Nb15  1  0.817799  0.817799  0.252989  1
  Nb  Nb16  1  0.317799  0.682201  0.247011  1
  Nb  Nb17  1  0.682201  0.317799  0.247011  1
  Nb  Nb18  1  0.182201  0.182201  0.747011  1
  Nb  Nb19  1  0.817799  0.817799  0.747011  1
  Al  Al20  1  0.000000  0.000000  0.000000  1
  Al  Al21  1  0.500000  0.500000  0.500000  1
  Pt  Pt22  1  0.261119  0.936932  0.000000  1
  Pt  Pt23  1  0.436932  0.238881  0.500000  1
  Pt  Pt24  1  0.563068  0.761119  0.500000  1
  Pt  Pt25  1  0.738881  0.063068  0.000000  1
  Pt  Pt26  1  0.238881  0.436932  0.500000  1
  Pt  Pt27  1  0.761119  0.563068  0.500000  1
  Pt  Pt28  1  0.936932  0.261119  0.000000  1
  Pt  Pt29  1  0.063068  0.738881  0.000000  1
