# generated using pymatgen
data_Cs3K5(ZrTe3)4
_symmetry_space_group_name_H-M   'P 1'
_cell_length_a   14.64285764
_cell_length_b   6.96022458
_cell_length_c   9.82376080
_cell_angle_alpha   70.40759096
_cell_angle_beta   89.03748893
_cell_angle_gamma   88.77240878
_symmetry_Int_Tables_number   1
_chemical_formula_structural   Cs3K5(ZrTe3)4
_chemical_formula_sum   'Cs3 K5 Zr4 Te12'
_cell_volume   942.97988853
_cell_formula_units_Z   1
loop_
 _symmetry_equiv_pos_site_id
 _symmetry_equiv_pos_as_xyz
  1  'x, y, z'
loop_
 _atom_site_type_symbol
 _atom_site_label
 _atom_site_symmetry_multiplicity
 _atom_site_fract_x
 _atom_site_fract_y
 _atom_site_fract_z
 _atom_site_occupancy
  Cs  Cs0  1  0.948970  0.670226  0.663786  1
  Cs  Cs1  1  0.448287  0.832798  0.335932  1
  Cs  Cs2  1  0.048245  0.327764  0.344590  1
  K  K3  1  0.539444  0.174183  0.639141  1
  K  K4  1  0.863831  0.063790  0.902542  1
  K  K5  1  0.367542  0.434737  0.095653  1
  K  K6  1  0.141815  0.935347  0.103122  1
  K  K7  1  0.636552  0.567763  0.900700  1
  Zr  Zr8  1  0.747375  0.662534  0.286281  1
  Zr  Zr9  1  0.251672  0.837320  0.715529  1
  Zr  Zr10  1  0.253254  0.337957  0.715173  1
  Zr  Zr11  1  0.749546  0.160720  0.287321  1
  Te  Te12  1  0.911600  0.890495  0.263257  1
  Te  Te13  1  0.415561  0.594889  0.734377  1
  Te  Te14  1  0.089836  0.105404  0.744994  1
  Te  Te15  1  0.585602  0.401900  0.264320  1
  Te  Te16  1  0.806173  0.272367  0.524914  1
  Te  Te17  1  0.312034  0.223112  0.476571  1
  Te  Te18  1  0.188740  0.725891  0.481674  1
  Te  Te19  1  0.684256  0.780657  0.521920  1
  Te  Te20  1  0.845515  0.484449  0.077374  1
  Te  Te21  1  0.353364  0.009690  0.917342  1
  Te  Te22  1  0.157115  0.513617  0.927106  1
  Te  Te23  1  0.653670  0.992391  0.076382  1
