# generated using pymatgen
data_YTm2Pa(Al3Ir)6
_symmetry_space_group_name_H-M   'P 1'
_cell_length_a   7.56543936
_cell_length_b   7.55925448
_cell_length_c   9.40651300
_cell_angle_alpha   90.00000000
_cell_angle_beta   90.00000000
_cell_angle_gamma   119.59727165
_symmetry_Int_Tables_number   1
_chemical_formula_structural   YTm2Pa(Al3Ir)6
_chemical_formula_sum   'Y1 Tm2 Pa1 Al18 Ir6'
_cell_volume   467.75730817
_cell_formula_units_Z   1
loop_
 _symmetry_equiv_pos_site_id
 _symmetry_equiv_pos_as_xyz
  1  'x, y, z'
loop_
 _atom_site_type_symbol
 _atom_site_label
 _atom_site_symmetry_multiplicity
 _atom_site_fract_x
 _atom_site_fract_y
 _atom_site_fract_z
 _atom_site_occupancy
  Y  Y0  1  0.672498  0.994859  0.250000  1
  Tm  Tm1  1  0.004727  0.328614  0.750000  1
  Tm  Tm2  1  0.328673  0.004226  0.750000  1
  Pa  Pa3  1  0.995948  0.671681  0.250000  1
  Al  Al4  1  0.132526  0.131255  0.250000  1
  Al  Al5  1  0.872934  0.874558  0.750000  1
  Al  Al6  1  0.001194  0.332533  0.073854  1
  Al  Al7  1  0.999531  0.664517  0.919869  1
  Al  Al8  1  0.999531  0.664517  0.580131  1
  Al  Al9  1  0.338592  0.004019  0.425930  1
  Al  Al10  1  0.001194  0.332533  0.426146  1
  Al  Al11  1  0.664954  0.000412  0.577120  1
  Al  Al12  1  0.664954  0.000412  0.922880  1
  Al  Al13  1  0.338592  0.004019  0.074070  1
  Al  Al14  1  0.332138  0.332227  0.556892  1
  Al  Al15  1  0.663088  0.665544  0.449321  1
  Al  Al16  1  0.663088  0.665544  0.050679  1
  Al  Al17  1  0.332138  0.332227  0.943108  1
  Al  Al18  1  0.339187  0.546880  0.250000  1
  Al  Al19  1  0.658971  0.448940  0.750000  1
  Al  Al20  1  0.546915  0.341992  0.250000  1
  Al  Al21  1  0.449890  0.660651  0.750000  1
  Ir  Ir22  1  0.673939  0.329786  0.001536  1
  Ir  Ir23  1  0.325542  0.671899  0.001564  1
  Ir  Ir24  1  0.325542  0.671899  0.498436  1
  Ir  Ir25  1  0.673939  0.329786  0.498464  1
  Ir  Ir26  1  0.999889  0.997237  0.002415  1
  Ir  Ir27  1  0.999889  0.997237  0.497585  1
