# generated using pymatgen
data_BaNb8FeS16
_symmetry_space_group_name_H-M   'P 1'
_cell_length_a   6.69869800
_cell_length_b   6.69865914
_cell_length_c   13.86698600
_cell_angle_alpha   90.00165852
_cell_angle_beta   89.99924400
_cell_angle_gamma   119.99961480
_symmetry_Int_Tables_number   1
_chemical_formula_structural   BaNb8FeS16
_chemical_formula_sum   'Ba1 Nb8 Fe1 S16'
_cell_volume   538.88075295
_cell_formula_units_Z   1
loop_
 _symmetry_equiv_pos_site_id
 _symmetry_equiv_pos_as_xyz
  1  'x, y, z'
loop_
 _atom_site_type_symbol
 _atom_site_label
 _atom_site_symmetry_multiplicity
 _atom_site_fract_x
 _atom_site_fract_y
 _atom_site_fract_z
 _atom_site_occupancy
  Ba  Ba0  1  0.000000  0.000000  0.500000  1
  Nb  Nb1  1  0.999993  0.000015  0.212396  1
  Nb  Nb2  1  0.000007  0.999985  0.787604  1
  Nb  Nb3  1  0.503706  0.007422  0.207507  1
  Nb  Nb4  1  0.992576  0.496290  0.207503  1
  Nb  Nb5  1  0.503698  0.496297  0.207508  1
  Nb  Nb6  1  0.496294  0.992578  0.792493  1
  Nb  Nb7  1  0.007424  0.503710  0.792497  1
  Nb  Nb8  1  0.496302  0.503703  0.792492  1
  Fe  Fe9  1  0.000000  0.000000  0.000000  1
  S  S10  1  0.333335  0.666665  0.905866  1
  S  S11  1  0.666665  0.333335  0.094134  1
  S  S12  1  0.666656  0.333338  0.323976  1
  S  S13  1  0.333344  0.666662  0.676024  1
  S  S14  1  0.169343  0.830646  0.322561  1
  S  S15  1  0.169347  0.338726  0.322567  1
  S  S16  1  0.661280  0.830655  0.322563  1
  S  S17  1  0.830657  0.169354  0.677439  1
  S  S18  1  0.830653  0.661274  0.677433  1
  S  S19  1  0.338720  0.169345  0.677437  1
  S  S20  1  0.837252  0.162746  0.902719  1
  S  S21  1  0.837246  0.674489  0.902724  1
  S  S22  1  0.325497  0.162746  0.902717  1
  S  S23  1  0.162748  0.837254  0.097281  1
  S  S24  1  0.162754  0.325511  0.097276  1
  S  S25  1  0.674503  0.837254  0.097283  1
