# generated using pymatgen
data_K4Zr6BBr18
_symmetry_space_group_name_H-M   'P 1'
_cell_length_a   10.44251640
_cell_length_b   10.64059450
_cell_length_c   10.74165285
_cell_angle_alpha   118.77842830
_cell_angle_beta   100.04385186
_cell_angle_gamma   103.94460203
_symmetry_Int_Tables_number   1
_chemical_formula_structural   K4Zr6BBr18
_chemical_formula_sum   'K4 Zr6 B1 Br18'
_cell_volume   954.30284444
_cell_formula_units_Z   1
loop_
 _symmetry_equiv_pos_site_id
 _symmetry_equiv_pos_as_xyz
  1  'x, y, z'
loop_
 _atom_site_type_symbol
 _atom_site_label
 _atom_site_symmetry_multiplicity
 _atom_site_fract_x
 _atom_site_fract_y
 _atom_site_fract_z
 _atom_site_occupancy
  K  K0  1  0.185408  0.724403  0.563866  1
  K  K1  1  0.848382  0.962306  0.773266  1
  K  K2  1  0.151618  0.037694  0.226734  1
  K  K3  1  0.814592  0.275597  0.436134  1
  Zr  Zr4  1  0.352087  0.446031  0.770759  1
  Zr  Zr5  1  0.361852  0.627163  0.133659  1
  Zr  Zr6  1  0.643317  0.737842  0.043194  1
  Zr  Zr7  1  0.647913  0.553969  0.229241  1
  Zr  Zr8  1  0.356683  0.262158  0.956806  1
  Zr  Zr9  1  0.638148  0.372837  0.866341  1
  B  B10  1  0.500000  0.500000  0.000000  1
  Br  Br11  1  0.822251  0.422831  0.110309  1
  Br  Br12  1  0.514839  0.706223  0.410796  1
  Br  Br13  1  0.177043  0.976322  0.899537  1
  Br  Br14  1  0.177749  0.577169  0.889691  1
  Br  Br15  1  0.829130  0.833547  0.311077  1
  Br  Br16  1  0.503739  0.293684  0.211095  1
  Br  Br17  1  0.797387  0.223316  0.710491  1
  Br  Br18  1  0.170870  0.166453  0.688923  1
  Br  Br19  1  0.508135  0.912283  0.198830  1
  Br  Br20  1  0.818816  0.628195  0.903082  1
  Br  Br21  1  0.202613  0.776684  0.289509  1
  Br  Br22  1  0.166317  0.378934  0.497093  1
  Br  Br23  1  0.496261  0.706316  0.788905  1
  Br  Br24  1  0.822957  0.023678  0.100463  1
  Br  Br25  1  0.485161  0.293777  0.589204  1
  Br  Br26  1  0.181184  0.371805  0.096918  1
  Br  Br27  1  0.833683  0.621066  0.502907  1
  Br  Br28  1  0.491865  0.087717  0.801170  1
