# generated using pymatgen
data_HoErGa9Ir2Pt
_symmetry_space_group_name_H-M   'P 1'
_cell_length_a   7.61314806
_cell_length_b   7.61305896
_cell_length_c   9.45512300
_cell_angle_alpha   90.00000000
_cell_angle_beta   90.00000000
_cell_angle_gamma   119.94177686
_symmetry_Int_Tables_number   1
_chemical_formula_structural   HoErGa9Ir2Pt
_chemical_formula_sum   'Ho2 Er2 Ga18 Ir4 Pt2'
_cell_volume   474.87114790
_cell_formula_units_Z   2
loop_
 _symmetry_equiv_pos_site_id
 _symmetry_equiv_pos_as_xyz
  1  'x, y, z'
loop_
 _atom_site_type_symbol
 _atom_site_label
 _atom_site_symmetry_multiplicity
 _atom_site_fract_x
 _atom_site_fract_y
 _atom_site_fract_z
 _atom_site_occupancy
  Ho  Ho0  1  0.669388  0.996709  0.250000  1
  Ho  Ho1  1  0.330612  0.003291  0.750000  1
  Er  Er2  1  0.996721  0.669339  0.250000  1
  Er  Er3  1  0.003279  0.330661  0.750000  1
  Ga  Ga4  1  0.131224  0.131167  0.250000  1
  Ga  Ga5  1  0.868776  0.868833  0.750000  1
  Ga  Ga6  1  0.998139  0.337706  0.081851  1
  Ga  Ga7  1  0.001861  0.662294  0.918149  1
  Ga  Ga8  1  0.001861  0.662294  0.581851  1
  Ga  Ga9  1  0.337448  0.998015  0.418076  1
  Ga  Ga10  1  0.998139  0.337706  0.418149  1
  Ga  Ga11  1  0.662552  0.001985  0.581924  1
  Ga  Ga12  1  0.662552  0.001985  0.918076  1
  Ga  Ga13  1  0.337448  0.998015  0.081924  1
  Ga  Ga14  1  0.335245  0.335360  0.568696  1
  Ga  Ga15  1  0.664755  0.664640  0.431304  1
  Ga  Ga16  1  0.664755  0.664640  0.068696  1
  Ga  Ga17  1  0.335245  0.335360  0.931304  1
  Ga  Ga18  1  0.337401  0.546558  0.250000  1
  Ga  Ga19  1  0.662599  0.453442  0.750000  1
  Ga  Ga20  1  0.546648  0.337537  0.250000  1
  Ga  Ga21  1  0.453352  0.662463  0.750000  1
  Ir  Ir22  1  0.671394  0.328725  0.999999  1
  Ir  Ir23  1  0.328606  0.671275  0.000001  1
  Ir  Ir24  1  0.328606  0.671275  0.499999  1
  Ir  Ir25  1  0.671394  0.328725  0.500001  1
  Pt  Pt26  1  0.000000  0.000000  0.000000  1
  Pt  Pt27  1  0.000000  0.000000  0.500000  1
