# generated using pymatgen
data_Ce2PuSe4
_symmetry_space_group_name_H-M   'P 1'
_cell_length_a   7.67266496
_cell_length_b   7.67266498
_cell_length_c   7.67266500
_cell_angle_alpha   109.34640987
_cell_angle_beta   109.34640992
_cell_angle_gamma   109.72113221
_symmetry_Int_Tables_number   1
_chemical_formula_structural   Ce2PuSe4
_chemical_formula_sum   'Ce4 Pu2 Se8'
_cell_volume   347.70474083
_cell_formula_units_Z   2
loop_
 _symmetry_equiv_pos_site_id
 _symmetry_equiv_pos_as_xyz
  1  'x, y, z'
loop_
 _atom_site_type_symbol
 _atom_site_label
 _atom_site_symmetry_multiplicity
 _atom_site_fract_x
 _atom_site_fract_y
 _atom_site_fract_z
 _atom_site_occupancy
  Ce  Ce0  1  0.625000  0.000706  0.875706  1
  Ce  Ce1  1  0.999294  0.875000  0.624294  1
  Ce  Ce2  1  0.125000  0.749294  0.124294  1
  Ce  Ce3  1  0.250706  0.375000  0.375706  1
  Pu  Pu4  1  0.500000  0.500000  0.000000  1
  Pu  Pu5  1  0.750000  0.250000  0.500000  1
  Se  Se6  1  0.526662  0.776475  0.400077  1
  Se  Se7  1  0.873602  0.973525  0.250187  1
  Se  Se8  1  0.723338  0.623415  0.749813  1
  Se  Se9  1  0.026475  0.276662  0.900077  1
  Se  Se10  1  0.873415  0.473338  0.249813  1
  Se  Se11  1  0.376585  0.126398  0.099923  1
  Se  Se12  1  0.223525  0.623602  0.750187  1
  Se  Se13  1  0.376398  0.126585  0.599923  1
