# generated using pymatgen
data_CeSc11Fe4
_symmetry_space_group_name_H-M   'P 1'
_cell_length_a   5.86150301
_cell_length_b   6.61290534
_cell_length_c   8.53270700
_cell_angle_alpha   90.00000000
_cell_angle_beta   90.00000000
_cell_angle_gamma   91.51087635
_symmetry_Int_Tables_number   1
_chemical_formula_structural   CeSc11Fe4
_chemical_formula_sum   'Ce1 Sc11 Fe4'
_cell_volume   330.62608742
_cell_formula_units_Z   1
loop_
 _symmetry_equiv_pos_site_id
 _symmetry_equiv_pos_as_xyz
  1  'x, y, z'
loop_
 _atom_site_type_symbol
 _atom_site_label
 _atom_site_symmetry_multiplicity
 _atom_site_fract_x
 _atom_site_fract_y
 _atom_site_fract_z
 _atom_site_occupancy
  Ce  Ce0  1  0.856014  0.557922  0.250000  1
  Sc  Sc1  1  0.328265  0.676958  0.058680  1
  Sc  Sc2  1  0.174861  0.174687  0.437889  1
  Sc  Sc3  1  0.672159  0.320741  0.568376  1
  Sc  Sc4  1  0.826989  0.829993  0.930654  1
  Sc  Sc5  1  0.672159  0.320741  0.931624  1
  Sc  Sc6  1  0.826989  0.829993  0.569346  1
  Sc  Sc7  1  0.328265  0.676958  0.441320  1
  Sc  Sc8  1  0.174861  0.174687  0.062111  1
  Sc  Sc9  1  0.624212  0.042837  0.250000  1
  Sc  Sc10  1  0.126778  0.457380  0.750000  1
  Sc  Sc11  1  0.373946  0.954484  0.750000  1
  Fe  Fe12  1  0.019233  0.864570  0.250000  1
  Fe  Fe13  1  0.495299  0.395467  0.250000  1
  Fe  Fe14  1  0.968950  0.111862  0.750000  1
  Fe  Fe15  1  0.531017  0.610723  0.750000  1
