# generated using pymatgen
data_Dy10Si16Ni
_symmetry_space_group_name_H-M   'P 1'
_cell_length_a   6.71159464
_cell_length_b   8.23812219
_cell_length_c   11.05024372
_cell_angle_alpha   111.88578109
_cell_angle_beta   107.67909591
_cell_angle_gamma   89.99999962
_symmetry_Int_Tables_number   1
_chemical_formula_structural   Dy10Si16Ni
_chemical_formula_sum   'Dy10 Si16 Ni1'
_cell_volume   535.72277563
_cell_formula_units_Z   1
loop_
 _symmetry_equiv_pos_site_id
 _symmetry_equiv_pos_as_xyz
  1  'x, y, z'
loop_
 _atom_site_type_symbol
 _atom_site_label
 _atom_site_symmetry_multiplicity
 _atom_site_fract_x
 _atom_site_fract_y
 _atom_site_fract_z
 _atom_site_occupancy
  Dy  Dy0  1  0.240779  0.242095  0.000000  1
  Dy  Dy1  1  0.240779  0.757905  0.000000  1
  Dy  Dy2  1  0.832663  0.354005  0.203555  1
  Dy  Dy3  1  0.832663  0.849551  0.203555  1
  Dy  Dy4  1  0.437893  0.448785  0.398804  1
  Dy  Dy5  1  0.437893  0.950019  0.398804  1
  Dy  Dy6  1  0.039089  0.049981  0.601197  1
  Dy  Dy7  1  0.039089  0.551215  0.601197  1
  Dy  Dy8  1  0.629107  0.150449  0.796444  1
  Dy  Dy9  1  0.629107  0.645996  0.796444  1
  Si  Si10  1  0.899317  0.000000  0.000000  1
  Si  Si11  1  0.611263  0.500000  0.000000  1
  Si  Si12  1  0.125803  0.582111  0.164220  1
  Si  Si13  1  0.499529  0.600199  0.200398  1
  Si  Si14  1  0.503326  0.099511  0.199022  1
  Si  Si15  1  0.161303  0.113670  0.227339  1
  Si  Si16  1  0.809699  0.200919  0.401838  1
  Si  Si17  1  0.100254  0.698088  0.396175  1
  Si  Si18  1  0.758738  0.714123  0.428247  1
  Si  Si19  1  0.330491  0.285877  0.571753  1
  Si  Si20  1  0.704080  0.301912  0.603824  1
  Si  Si21  1  0.407861  0.799081  0.598162  1
  Si  Si22  1  0.933964  0.886330  0.772661  1
  Si  Si23  1  0.304303  0.900488  0.800977  1
  Si  Si24  1  0.299131  0.399801  0.799603  1
  Si  Si25  1  0.961583  0.417889  0.835780  1
  Ni  Ni26  1  0.568798  0.000000  0.000000  1
