# generated using pymatgen
data_Li2Tm3MgIn3
_symmetry_space_group_name_H-M   'P 1'
_cell_length_a   7.08564843
_cell_length_b   7.49272545
_cell_length_c   4.75410100
_cell_angle_alpha   90.00000000
_cell_angle_beta   90.00000000
_cell_angle_gamma   121.91937126
_symmetry_Int_Tables_number   1
_chemical_formula_structural   Li2Tm3MgIn3
_chemical_formula_sum   'Li2 Tm3 Mg1 In3'
_cell_volume   214.23459447
_cell_formula_units_Z   1
loop_
 _symmetry_equiv_pos_site_id
 _symmetry_equiv_pos_as_xyz
  1  'x, y, z'
loop_
 _atom_site_type_symbol
 _atom_site_label
 _atom_site_symmetry_multiplicity
 _atom_site_fract_x
 _atom_site_fract_y
 _atom_site_fract_z
 _atom_site_occupancy
  Li  Li0  1  0.773128  0.763486  0.500000  1
  Li  Li1  1  0.226872  0.990357  0.500000  1
  Tm  Tm2  1  0.000000  0.561720  0.000000  1
  Tm  Tm3  1  0.436901  0.447322  0.000000  1
  Tm  Tm4  1  0.563099  0.010421  0.000000  1
  Mg  Mg5  1  0.000000  0.223692  0.500000  1
  In  In6  1  0.665210  0.344294  0.500000  1
  In  In7  1  0.000000  0.979623  0.000000  1
  In  In8  1  0.334790  0.679085  0.500000  1
