# generated using pymatgen
data_Tb6Hg2CN
_symmetry_space_group_name_H-M   'P 1'
_cell_length_a   6.87675647
_cell_length_b   6.87675665
_cell_length_c   9.82259762
_cell_angle_alpha   90.09355167
_cell_angle_beta   89.90644686
_cell_angle_gamma   149.77800008
_symmetry_Int_Tables_number   1
_chemical_formula_structural   Tb6Hg2CN
_chemical_formula_sum   'Tb6 Hg2 C1 N1'
_cell_volume   233.81083357
_cell_formula_units_Z   1
loop_
 _symmetry_equiv_pos_site_id
 _symmetry_equiv_pos_as_xyz
  1  'x, y, z'
loop_
 _atom_site_type_symbol
 _atom_site_label
 _atom_site_symmetry_multiplicity
 _atom_site_fract_x
 _atom_site_fract_y
 _atom_site_fract_z
 _atom_site_occupancy
  Tb  Tb0  1  0.122585  0.877418  0.052164  1
  Tb  Tb1  1  0.453533  0.546469  0.248936  1
  Tb  Tb2  1  0.119174  0.880829  0.451758  1
  Tb  Tb3  1  0.880829  0.119174  0.548242  1
  Tb  Tb4  1  0.546469  0.453533  0.751064  1
  Tb  Tb5  1  0.877418  0.122585  0.947835  1
  Hg  Hg6  1  0.753288  0.246715  0.254943  1
  Hg  Hg7  1  0.246715  0.753288  0.745057  1
  C  C8  1  0.500001  0.500001  0.000000  1
  N  N9  1  0.500001  0.500001  0.500000  1
