# generated using pymatgen
data_Tb8Cd2RuPt
_symmetry_space_group_name_H-M   'P 1'
_cell_length_a   9.69327744
_cell_length_b   9.69327676
_cell_length_c   9.71210800
_cell_angle_alpha   59.93571478
_cell_angle_beta   59.93571711
_cell_angle_gamma   59.92334216
_symmetry_Int_Tables_number   1
_chemical_formula_structural   Tb8Cd2RuPt
_chemical_formula_sum   'Tb16 Cd4 Ru2 Pt2'
_cell_volume   644.26619814
_cell_formula_units_Z   2
loop_
 _symmetry_equiv_pos_site_id
 _symmetry_equiv_pos_as_xyz
  1  'x, y, z'
loop_
 _atom_site_type_symbol
 _atom_site_label
 _atom_site_symmetry_multiplicity
 _atom_site_fract_x
 _atom_site_fract_y
 _atom_site_fract_z
 _atom_site_occupancy
  Tb  Tb0  1  0.348678  0.348678  0.352726  1
  Tb  Tb1  1  0.348678  0.348678  0.949918  1
  Tb  Tb2  1  0.346399  0.952732  0.350435  1
  Tb  Tb3  1  0.952732  0.346399  0.350435  1
  Tb  Tb4  1  0.815082  0.188524  0.189643  1
  Tb  Tb5  1  0.188524  0.815082  0.806751  1
  Tb  Tb6  1  0.188524  0.815082  0.189643  1
  Tb  Tb7  1  0.815082  0.188524  0.806751  1
  Tb  Tb8  1  0.188092  0.188092  0.811908  1
  Tb  Tb9  1  0.808896  0.808896  0.191104  1
  Tb  Tb10  1  0.937384  0.559891  0.565776  1
  Tb  Tb11  1  0.559891  0.937384  0.936949  1
  Tb  Tb12  1  0.559891  0.937384  0.565776  1
  Tb  Tb13  1  0.937384  0.559891  0.936949  1
  Tb  Tb14  1  0.563986  0.563986  0.936014  1
  Tb  Tb15  1  0.938400  0.938400  0.561600  1
  Cd  Cd16  1  0.580635  0.580635  0.581543  1
  Cd  Cd17  1  0.580635  0.580635  0.257186  1
  Cd  Cd18  1  0.581330  0.255342  0.581664  1
  Cd  Cd19  1  0.255342  0.581330  0.581664  1
  Ru  Ru20  1  0.143511  0.143511  0.138638  1
  Ru  Ru21  1  0.143511  0.143511  0.574341  1
  Pt  Pt22  1  0.144080  0.573333  0.141294  1
  Pt  Pt23  1  0.573333  0.144080  0.141294  1
