# generated using pymatgen
data_Tm3Hf(Ta3Ge4)2
_symmetry_space_group_name_H-M   'P 1'
_cell_length_a   6.92061700
_cell_length_b   7.07056955
_cell_length_c   13.43664803
_cell_angle_alpha   89.95498000
_cell_angle_beta   90.00000000
_cell_angle_gamma   90.00000000
_symmetry_Int_Tables_number   1
_chemical_formula_structural   Tm3Hf(Ta3Ge4)2
_chemical_formula_sum   'Tm6 Hf2 Ta12 Ge16'
_cell_volume   657.49131546
_cell_formula_units_Z   2
loop_
 _symmetry_equiv_pos_site_id
 _symmetry_equiv_pos_as_xyz
  1  'x, y, z'
loop_
 _atom_site_type_symbol
 _atom_site_label
 _atom_site_symmetry_multiplicity
 _atom_site_fract_x
 _atom_site_fract_y
 _atom_site_fract_z
 _atom_site_occupancy
  Tm  Tm0  1  0.506627  0.324575  0.092703  1
  Tm  Tm1  1  0.006627  0.175425  0.407297  1
  Tm  Tm2  1  0.507402  0.326973  0.407324  1
  Tm  Tm3  1  0.007402  0.173027  0.092676  1
  Tm  Tm4  1  0.491651  0.675793  0.907095  1
  Tm  Tm5  1  0.991651  0.824207  0.592905  1
  Hf  Hf6  1  0.487558  0.678362  0.596272  1
  Hf  Hf7  1  0.987558  0.821638  0.903728  1
  Ta  Ta8  1  0.659650  0.166336  0.626025  1
  Ta  Ta9  1  0.159650  0.333664  0.873975  1
  Ta  Ta10  1  0.341773  0.832561  0.126085  1
  Ta  Ta11  1  0.841773  0.667439  0.373915  1
  Ta  Ta12  1  0.344375  0.829857  0.375906  1
  Ta  Ta13  1  0.844375  0.670143  0.124094  1
  Ta  Ta14  1  0.660774  0.163626  0.873137  1
  Ta  Ta15  1  0.160774  0.336374  0.626863  1
  Ta  Ta16  1  0.835635  0.489851  0.750595  1
  Ta  Ta17  1  0.335635  0.010149  0.749405  1
  Ta  Ta18  1  0.166068  0.512677  0.250082  1
  Ta  Ta19  1  0.666068  0.987323  0.249918  1
  Ge  Ge20  1  0.678218  0.958832  0.459794  1
  Ge  Ge21  1  0.178218  0.541168  0.040206  1
  Ge  Ge22  1  0.313041  0.035082  0.957055  1
  Ge  Ge23  1  0.813041  0.464918  0.542945  1
  Ge  Ge24  1  0.322863  0.038151  0.542872  1
  Ge  Ge25  1  0.822863  0.461849  0.957128  1
  Ge  Ge26  1  0.681148  0.960940  0.040064  1
  Ge  Ge27  1  0.181148  0.539060  0.459936  1
  Ge  Ge28  1  0.461290  0.384134  0.749927  1
  Ge  Ge29  1  0.961290  0.115866  0.750073  1
  Ge  Ge30  1  0.541808  0.617861  0.249151  1
  Ge  Ge31  1  0.041808  0.882139  0.250849  1
  Ge  Ge32  1  0.693290  0.852252  0.748957  1
  Ge  Ge33  1  0.193290  0.647748  0.751043  1
  Ge  Ge34  1  0.306831  0.144881  0.250598  1
  Ge  Ge35  1  0.806831  0.355119  0.249402  1
