# generated using pymatgen
data_Tm16Tl3InRuRh3
_symmetry_space_group_name_H-M   'P 1'
_cell_length_a   9.54279638
_cell_length_b   9.54279998
_cell_length_c   9.55092554
_cell_angle_alpha   60.02820915
_cell_angle_beta   60.02788270
_cell_angle_gamma   59.99991914
_symmetry_Int_Tables_number   1
_chemical_formula_structural   Tm16Tl3InRuRh3
_chemical_formula_sum   'Tm16 Tl3 In1 Ru1 Rh3'
_cell_volume   615.26986873
_cell_formula_units_Z   1
loop_
 _symmetry_equiv_pos_site_id
 _symmetry_equiv_pos_as_xyz
  1  'x, y, z'
loop_
 _atom_site_type_symbol
 _atom_site_label
 _atom_site_symmetry_multiplicity
 _atom_site_fract_x
 _atom_site_fract_y
 _atom_site_fract_z
 _atom_site_occupancy
  Tm  Tm0  1  0.059467  0.059468  0.437660  1
  Tm  Tm1  1  0.443407  0.059466  0.437658  1
  Tm  Tm2  1  0.062884  0.438304  0.060504  1
  Tm  Tm3  1  0.049517  0.650179  0.650133  1
  Tm  Tm4  1  0.438305  0.438305  0.060507  1
  Tm  Tm5  1  0.650174  0.049511  0.650137  1
  Tm  Tm6  1  0.185781  0.811931  0.190357  1
  Tm  Tm7  1  0.188352  0.188345  0.812548  1
  Tm  Tm8  1  0.811931  0.811934  0.190353  1
  Tm  Tm9  1  0.438305  0.062885  0.060505  1
  Tm  Tm10  1  0.811929  0.185782  0.190359  1
  Tm  Tm11  1  0.059466  0.443409  0.437657  1
  Tm  Tm12  1  0.810756  0.188347  0.812548  1
  Tm  Tm13  1  0.188351  0.810755  0.812548  1
  Tm  Tm14  1  0.649985  0.649990  0.050039  1
  Tm  Tm15  1  0.650170  0.650179  0.650137  1
  Tl  Tl16  1  0.413139  0.413136  0.414079  1
  Tl  Tl17  1  0.759644  0.413137  0.414080  1
  Tl  Tl18  1  0.413139  0.759647  0.414078  1
  In  In19  1  0.416192  0.416191  0.751426  1
  Ru  Ru20  1  0.856677  0.856676  0.429972  1
  Rh  Rh21  1  0.857456  0.857456  0.857573  1
  Rh  Rh22  1  0.427516  0.857455  0.857573  1
  Rh  Rh23  1  0.857458  0.427512  0.857573  1
