# generated using pymatgen
data_NdZrB6Ru
_symmetry_space_group_name_H-M   'P 1'
_cell_length_a   3.62101600
_cell_length_b   9.14090700
_cell_length_c   11.56072700
_cell_angle_alpha   90.00000000
_cell_angle_beta   90.00000000
_cell_angle_gamma   90.00000000
_symmetry_Int_Tables_number   1
_chemical_formula_structural   NdZrB6Ru
_chemical_formula_sum   'Nd4 Zr4 B24 Ru4'
_cell_volume   382.65278624
_cell_formula_units_Z   4
loop_
 _symmetry_equiv_pos_site_id
 _symmetry_equiv_pos_as_xyz
  1  'x, y, z'
loop_
 _atom_site_type_symbol
 _atom_site_label
 _atom_site_symmetry_multiplicity
 _atom_site_fract_x
 _atom_site_fract_y
 _atom_site_fract_z
 _atom_site_occupancy
  Nd  Nd0  1  0.000000  0.323052  0.414086  1
  Nd  Nd1  1  0.000000  0.676948  0.585914  1
  Nd  Nd2  1  0.000000  0.823052  0.085914  1
  Nd  Nd3  1  0.000000  0.176948  0.914086  1
  Zr  Zr4  1  0.000000  0.945408  0.374020  1
  Zr  Zr5  1  0.000000  0.054592  0.625980  1
  Zr  Zr6  1  0.000000  0.445408  0.125980  1
  Zr  Zr7  1  0.000000  0.554592  0.874020  1
  B  B8  1  0.500000  0.556207  0.430278  1
  B  B9  1  0.500000  0.443793  0.569722  1
  B  B10  1  0.500000  0.056207  0.069722  1
  B  B11  1  0.500000  0.943793  0.930278  1
  B  B12  1  0.500000  0.753476  0.416235  1
  B  B13  1  0.500000  0.246524  0.583765  1
  B  B14  1  0.500000  0.253476  0.083765  1
  B  B15  1  0.500000  0.746524  0.916235  1
  B  B16  1  0.500000  0.794935  0.265026  1
  B  B17  1  0.500000  0.205065  0.734974  1
  B  B18  1  0.500000  0.294935  0.234974  1
  B  B19  1  0.500000  0.705065  0.765026  1
  B  B20  1  0.500000  0.629507  0.183502  1
  B  B21  1  0.500000  0.370493  0.816498  1
  B  B22  1  0.500000  0.129507  0.316498  1
  B  B23  1  0.500000  0.870493  0.683502  1
  B  B24  1  0.500000  0.984050  0.213972  1
  B  B25  1  0.500000  0.015950  0.786028  1
  B  B26  1  0.500000  0.484050  0.286028  1
  B  B27  1  0.500000  0.515950  0.713972  1
  B  B28  1  0.500000  0.599034  0.026363  1
  B  B29  1  0.500000  0.400966  0.973637  1
  B  B30  1  0.500000  0.099034  0.473637  1
  B  B31  1  0.500000  0.900966  0.526363  1
  Ru  Ru32  1  0.000000  0.643225  0.316650  1
  Ru  Ru33  1  0.000000  0.356775  0.683350  1
  Ru  Ru34  1  0.000000  0.143225  0.183350  1
  Ru  Ru35  1  0.000000  0.856775  0.816650  1
