# generated using pymatgen
data_Y3Ho2InSb2
_symmetry_space_group_name_H-M   'P 1'
_cell_length_a   8.95948100
_cell_length_b   8.93832127
_cell_length_c   6.44867900
_cell_angle_alpha   90.00000000
_cell_angle_beta   90.00000000
_cell_angle_gamma   119.92190023
_symmetry_Int_Tables_number   1
_chemical_formula_structural   Y3Ho2InSb2
_chemical_formula_sum   'Y6 Ho4 In2 Sb4'
_cell_volume   447.59110787
_cell_formula_units_Z   2
loop_
 _symmetry_equiv_pos_site_id
 _symmetry_equiv_pos_as_xyz
  1  'x, y, z'
loop_
 _atom_site_type_symbol
 _atom_site_label
 _atom_site_symmetry_multiplicity
 _atom_site_fract_x
 _atom_site_fract_y
 _atom_site_fract_z
 _atom_site_occupancy
  Y  Y0  1  0.002101  0.760106  0.750000  1
  Y  Y1  1  0.002101  0.241996  0.250000  1
  Y  Y2  1  0.757787  0.759258  0.250000  1
  Y  Y3  1  0.757787  0.998529  0.750000  1
  Y  Y4  1  0.241216  0.237853  0.750000  1
  Y  Y5  1  0.241216  0.003364  0.250000  1
  Ho  Ho6  1  0.334151  0.667077  0.500000  1
  Ho  Ho7  1  0.663332  0.331665  0.000000  1
  Ho  Ho8  1  0.663332  0.331665  0.500000  1
  Ho  Ho9  1  0.334151  0.667077  0.000000  1
  In  In10  1  0.395222  0.998385  0.750000  1
  In  In11  1  0.395222  0.396837  0.250000  1
  Sb  Sb12  1  0.999150  0.607408  0.250000  1
  Sb  Sb13  1  0.999150  0.391743  0.750000  1
  Sb  Sb14  1  0.607039  0.606631  0.750000  1
  Sb  Sb15  1  0.607039  0.000407  0.250000  1
