# generated using pymatgen
data_CaNiB4Os3
_symmetry_space_group_name_H-M   'P 1'
_cell_length_a   7.50190496
_cell_length_b   7.30169488
_cell_length_c   4.02807000
_cell_angle_alpha   90.00000000
_cell_angle_beta   90.00000000
_cell_angle_gamma   92.61390353
_symmetry_Int_Tables_number   1
_chemical_formula_structural   CaNiB4Os3
_chemical_formula_sum   'Ca2 Ni2 B8 Os6'
_cell_volume   220.41449091
_cell_formula_units_Z   2
loop_
 _symmetry_equiv_pos_site_id
 _symmetry_equiv_pos_as_xyz
  1  'x, y, z'
loop_
 _atom_site_type_symbol
 _atom_site_label
 _atom_site_symmetry_multiplicity
 _atom_site_fract_x
 _atom_site_fract_y
 _atom_site_fract_z
 _atom_site_occupancy
  Ca  Ca0  1  0.000000  0.000000  0.971337  1
  Ca  Ca1  1  0.500000  0.500000  0.400249  1
  Ni  Ni2  1  0.130579  0.617731  0.121921  1
  Ni  Ni3  1  0.869421  0.382269  0.121921  1
  B  B4  1  0.795319  0.672368  0.120707  1
  B  B5  1  0.204681  0.327632  0.120707  1
  B  B6  1  0.841578  0.318869  0.618211  1
  B  B7  1  0.158422  0.681131  0.618211  1
  B  B8  1  0.711730  0.833819  0.396956  1
  B  B9  1  0.288270  0.166181  0.396956  1
  B  B10  1  0.675839  0.211246  0.893442  1
  B  B11  1  0.324161  0.788754  0.893442  1
  Os  Os12  1  0.391270  0.147666  0.894111  1
  Os  Os13  1  0.608730  0.852334  0.894111  1
  Os  Os14  1  0.348394  0.882669  0.392542  1
  Os  Os15  1  0.651606  0.117331  0.392542  1
  Os  Os16  1  0.124405  0.371510  0.626316  1
  Os  Os17  1  0.875595  0.628490  0.626316  1
