# generated using pymatgen
data_Ba4SrMnN5
_symmetry_space_group_name_H-M   'P 1'
_cell_length_a   7.94268285
_cell_length_b   7.94268200
_cell_length_c   9.09827044
_cell_angle_alpha   76.18095774
_cell_angle_beta   76.18096240
_cell_angle_gamma   95.43799740
_symmetry_Int_Tables_number   1
_chemical_formula_structural   Ba4SrMnN5
_chemical_formula_sum   'Ba8 Sr2 Mn2 N10'
_cell_volume   534.16752001
_cell_formula_units_Z   2
loop_
 _symmetry_equiv_pos_site_id
 _symmetry_equiv_pos_as_xyz
  1  'x, y, z'
loop_
 _atom_site_type_symbol
 _atom_site_label
 _atom_site_symmetry_multiplicity
 _atom_site_fract_x
 _atom_site_fract_y
 _atom_site_fract_z
 _atom_site_occupancy
  Ba  Ba0  1  0.669208  0.669208  0.003944  1
  Ba  Ba1  1  0.330792  0.330792  0.996056  1
  Ba  Ba2  1  0.923716  0.923716  0.212207  1
  Ba  Ba3  1  0.076284  0.076284  0.787793  1
  Ba  Ba4  1  0.564225  0.091406  0.746556  1
  Ba  Ba5  1  0.908594  0.435775  0.253444  1
  Ba  Ba6  1  0.435775  0.908594  0.253444  1
  Ba  Ba7  1  0.091406  0.564225  0.746556  1
  Sr  Sr8  1  0.402453  0.402453  0.379824  1
  Sr  Sr9  1  0.597547  0.597547  0.620176  1
  Mn  Mn10  1  0.753938  0.246062  0.000000  1
  Mn  Mn11  1  0.246062  0.753938  0.000000  1
  N  N12  1  0.652461  0.652461  0.322002  1
  N  N13  1  0.347539  0.347539  0.677998  1
  N  N14  1  0.715517  0.027677  0.993367  1
  N  N15  1  0.972323  0.284483  0.006633  1
  N  N16  1  0.284483  0.972323  0.006633  1
  N  N17  1  0.027677  0.715517  0.993367  1
  N  N18  1  0.387813  0.724856  0.831964  1
  N  N19  1  0.275144  0.612187  0.168035  1
  N  N20  1  0.612187  0.275144  0.168035  1
  N  N21  1  0.724856  0.387813  0.831964  1
