# generated using pymatgen
data_Nd12Co3NiSnRh
_symmetry_space_group_name_H-M   'P 1'
_cell_length_a   8.60069591
_cell_length_b   8.60069620
_cell_length_c   8.60069592
_cell_angle_alpha   110.96975987
_cell_angle_beta   109.46076681
_cell_angle_gamma   107.99678348
_symmetry_Int_Tables_number   1
_chemical_formula_structural   Nd12Co3NiSnRh
_chemical_formula_sum   'Nd12 Co3 Ni1 Sn1 Rh1'
_cell_volume   489.42526145
_cell_formula_units_Z   1
loop_
 _symmetry_equiv_pos_site_id
 _symmetry_equiv_pos_as_xyz
  1  'x, y, z'
loop_
 _atom_site_type_symbol
 _atom_site_label
 _atom_site_symmetry_multiplicity
 _atom_site_fract_x
 _atom_site_fract_y
 _atom_site_fract_z
 _atom_site_occupancy
  Nd  Nd0  1  0.397363  0.206278  0.191084  1
  Nd  Nd1  1  0.602695  0.795260  0.807436  1
  Nd  Nd2  1  0.012177  0.204740  0.807436  1
  Nd  Nd3  1  0.984805  0.793722  0.191084  1
  Nd  Nd4  1  0.183900  0.299139  0.483039  1
  Nd  Nd5  1  0.814577  0.701494  0.516071  1
  Nd  Nd6  1  0.183900  0.700861  0.884762  1
  Nd  Nd7  1  0.814577  0.298506  0.113082  1
  Nd  Nd8  1  0.317494  0.622549  0.308411  1
  Nd  Nd9  1  0.685862  0.377451  0.694945  1
  Nd  Nd10  1  0.317494  0.009084  0.694945  1
  Nd  Nd11  1  0.685862  0.990916  0.308411  1
  Co  Co12  1  0.623615  0.000000  0.623615  1
  Co  Co13  1  0.111576  0.612215  0.499362  1
  Co  Co14  1  0.887147  0.387785  0.499362  1
  Ni  Ni15  1  0.376931  0.000000  0.376931  1
  Sn  Sn16  1  0.499768  0.500000  0.999768  1
  Rh  Rh17  1  0.000255  0.000000  0.000255  1
