# generated using pymatgen
data_DyYIn(AsRh2)6
_symmetry_space_group_name_H-M   'P 1'
_cell_length_a   10.04494800
_cell_length_b   10.04494874
_cell_length_c   3.98195400
_cell_angle_alpha   90.00000000
_cell_angle_beta   90.00000000
_cell_angle_gamma   119.99999757
_symmetry_Int_Tables_number   1
_chemical_formula_structural   DyYIn(AsRh2)6
_chemical_formula_sum   'Dy1 Y1 In1 As6 Rh12'
_cell_volume   347.95437277
_cell_formula_units_Z   1
loop_
 _symmetry_equiv_pos_site_id
 _symmetry_equiv_pos_as_xyz
  1  'x, y, z'
loop_
 _atom_site_type_symbol
 _atom_site_label
 _atom_site_symmetry_multiplicity
 _atom_site_fract_x
 _atom_site_fract_y
 _atom_site_fract_z
 _atom_site_occupancy
  Dy  Dy0  1  0.333333  0.666667  0.754800  1
  Y  Y1  1  0.000000  0.000000  0.246585  1
  In  In2  1  0.666667  0.333333  0.587295  1
  As  As3  1  0.954398  0.216245  0.747081  1
  As  As4  1  0.783755  0.738154  0.747081  1
  As  As5  1  0.261846  0.045602  0.747081  1
  As  As6  1  0.378318  0.449153  0.254654  1
  As  As7  1  0.550847  0.929165  0.254654  1
  As  As8  1  0.070835  0.621682  0.254654  1
  Rh  Rh9  1  0.733185  0.950137  0.750077  1
  Rh  Rh10  1  0.049863  0.783048  0.750077  1
  Rh  Rh11  1  0.216952  0.266815  0.750077  1
  Rh  Rh12  1  0.603111  0.720244  0.252123  1
  Rh  Rh13  1  0.279756  0.882869  0.252123  1
  Rh  Rh14  1  0.117131  0.396889  0.252123  1
  Rh  Rh15  1  0.959414  0.462515  0.757178  1
  Rh  Rh16  1  0.537485  0.496899  0.757178  1
  Rh  Rh17  1  0.503101  0.040586  0.757178  1
  Rh  Rh18  1  0.388706  0.209134  0.244054  1
  Rh  Rh19  1  0.790866  0.179571  0.244054  1
  Rh  Rh20  1  0.820429  0.611294  0.244054  1
