# generated using pymatgen
data_Y5Er15(Ag3Ir)2
_symmetry_space_group_name_H-M   'P 1'
_cell_length_a   9.44822600
_cell_length_b   9.44822561
_cell_length_c   9.60198800
_cell_angle_alpha   90.00000000
_cell_angle_beta   90.00000000
_cell_angle_gamma   120.03044512
_symmetry_Int_Tables_number   1
_chemical_formula_structural   Y5Er15(Ag3Ir)2
_chemical_formula_sum   'Y5 Er15 Ag6 Ir2'
_cell_volume   742.09413892
_cell_formula_units_Z   1
loop_
 _symmetry_equiv_pos_site_id
 _symmetry_equiv_pos_as_xyz
  1  'x, y, z'
loop_
 _atom_site_type_symbol
 _atom_site_label
 _atom_site_symmetry_multiplicity
 _atom_site_fract_x
 _atom_site_fract_y
 _atom_site_fract_z
 _atom_site_occupancy
  Y  Y0  1  0.541244  0.083168  0.250006  1
  Y  Y1  1  0.916832  0.458756  0.250006  1
  Y  Y2  1  0.458544  0.541456  0.749988  1
  Y  Y3  1  0.458773  0.917789  0.750003  1
  Y  Y4  1  0.082211  0.541227  0.750003  1
  Er  Er5  1  0.000156  0.999844  0.499838  1
  Er  Er6  1  0.000154  0.999846  0.000165  1
  Er  Er7  1  0.208394  0.791606  0.442210  1
  Er  Er8  1  0.208637  0.416223  0.442037  1
  Er  Er9  1  0.583777  0.791363  0.442037  1
  Er  Er10  1  0.791860  0.208140  0.557570  1
  Er  Er11  1  0.791086  0.583219  0.557175  1
  Er  Er12  1  0.416781  0.208914  0.557175  1
  Er  Er13  1  0.791859  0.208141  0.942427  1
  Er  Er14  1  0.791088  0.583223  0.942817  1
  Er  Er15  1  0.416777  0.208912  0.942817  1
  Er  Er16  1  0.208393  0.791607  0.057791  1
  Er  Er17  1  0.208637  0.416224  0.057958  1
  Er  Er18  1  0.583776  0.791363  0.057958  1
  Er  Er19  1  0.540776  0.459224  0.249994  1
  Ag  Ag20  1  0.885228  0.114772  0.250000  1
  Ag  Ag21  1  0.883341  0.769014  0.249997  1
  Ag  Ag22  1  0.230986  0.116659  0.249997  1
  Ag  Ag23  1  0.114760  0.885240  0.750019  1
  Ag  Ag24  1  0.114596  0.229392  0.750001  1
  Ag  Ag25  1  0.770608  0.885404  0.750001  1
  Ir  Ir26  1  0.333876  0.666124  0.249998  1
  Ir  Ir27  1  0.666849  0.333151  0.750012  1
