# generated using pymatgen
data_La9Nd7MgCd3Ir4
_symmetry_space_group_name_H-M   'P 1'
_cell_length_a   10.05670177
_cell_length_b   10.05670140
_cell_length_c   10.07317200
_cell_angle_alpha   60.13170348
_cell_angle_beta   60.13170545
_cell_angle_gamma   60.51388149
_symmetry_Int_Tables_number   1
_chemical_formula_structural   La9Nd7MgCd3Ir4
_chemical_formula_sum   'La9 Nd7 Mg1 Cd3 Ir4'
_cell_volume   724.58465363
_cell_formula_units_Z   1
loop_
 _symmetry_equiv_pos_site_id
 _symmetry_equiv_pos_as_xyz
  1  'x, y, z'
loop_
 _atom_site_type_symbol
 _atom_site_label
 _atom_site_symmetry_multiplicity
 _atom_site_fract_x
 _atom_site_fract_y
 _atom_site_fract_z
 _atom_site_occupancy
  La  La0  1  0.347221  0.347221  0.347395  1
  La  La1  1  0.347012  0.347012  0.958534  1
  La  La2  1  0.348501  0.960965  0.344965  1
  La  La3  1  0.960965  0.348501  0.344965  1
  La  La4  1  0.808343  0.188881  0.192204  1
  La  La5  1  0.187149  0.809260  0.811895  1
  La  La6  1  0.188881  0.808343  0.192204  1
  La  La7  1  0.809260  0.187149  0.811895  1
  La  La8  1  0.190820  0.190820  0.809141  1
  Nd  Nd9  1  0.807012  0.807012  0.192068  1
  Nd  Nd10  1  0.936230  0.564940  0.564575  1
  Nd  Nd11  1  0.563750  0.935700  0.936720  1
  Nd  Nd12  1  0.564940  0.936230  0.564575  1
  Nd  Nd13  1  0.935700  0.563750  0.936720  1
  Nd  Nd14  1  0.563178  0.563178  0.938893  1
  Nd  Nd15  1  0.937425  0.937425  0.562632  1
  Mg  Mg16  1  0.577728  0.577728  0.574959  1
  Cd  Cd17  1  0.581880  0.581880  0.257625  1
  Cd  Cd18  1  0.581557  0.257363  0.580773  1
  Cd  Cd19  1  0.257363  0.581557  0.580773  1
  Ir  Ir20  1  0.141064  0.141064  0.140561  1
  Ir  Ir21  1  0.140828  0.140828  0.578021  1
  Ir  Ir22  1  0.145816  0.577377  0.138955  1
  Ir  Ir23  1  0.577377  0.145816  0.138955  1
