# generated using pymatgen
data_Pu3Co(Ni3B)2
_symmetry_space_group_name_H-M   'P 1'
_cell_length_a   5.07916175
_cell_length_b   5.11648892
_cell_length_c   14.13300300
_cell_angle_alpha   90.00000000
_cell_angle_beta   90.00000000
_cell_angle_gamma   119.58683057
_symmetry_Int_Tables_number   1
_chemical_formula_structural   Pu3Co(Ni3B)2
_chemical_formula_sum   'Pu6 Co2 Ni12 B4'
_cell_volume   319.39070873
_cell_formula_units_Z   2
loop_
 _symmetry_equiv_pos_site_id
 _symmetry_equiv_pos_as_xyz
  1  'x, y, z'
loop_
 _atom_site_type_symbol
 _atom_site_label
 _atom_site_symmetry_multiplicity
 _atom_site_fract_x
 _atom_site_fract_y
 _atom_site_fract_z
 _atom_site_occupancy
  Pu  Pu0  1  0.333402  0.666877  0.537884  1
  Pu  Pu1  1  0.666598  0.333123  0.037884  1
  Pu  Pu2  1  0.667921  0.335858  0.463957  1
  Pu  Pu3  1  0.332079  0.664142  0.963957  1
  Pu  Pu4  1  0.333282  0.666528  0.749401  1
  Pu  Pu5  1  0.666718  0.333472  0.249401  1
  Co  Co6  1  0.165583  0.331159  0.150815  1
  Co  Co7  1  0.834417  0.668841  0.650815  1
  Ni  Ni8  1  0.000872  0.001431  0.000120  1
  Ni  Ni9  1  0.999128  0.998569  0.500120  1
  Ni  Ni10  1  0.668102  0.834438  0.149040  1
  Ni  Ni11  1  0.166425  0.834325  0.149067  1
  Ni  Ni12  1  0.833575  0.165675  0.649067  1
  Ni  Ni13  1  0.331898  0.165562  0.649040  1
  Ni  Ni14  1  0.833748  0.667532  0.850594  1
  Ni  Ni15  1  0.833540  0.165069  0.850268  1
  Ni  Ni16  1  0.331397  0.164994  0.850226  1
  Ni  Ni17  1  0.668603  0.835006  0.350226  1
  Ni  Ni18  1  0.166460  0.834931  0.350268  1
  Ni  Ni19  1  0.166252  0.332468  0.350594  1
  B  B20  1  0.332223  0.664230  0.249399  1
  B  B21  1  0.667777  0.335770  0.749399  1
  B  B22  1  0.002268  0.004711  0.249228  1
  B  B23  1  0.997732  0.995289  0.749228  1
