# generated using pymatgen
data_Sc10Si4GeAs
_symmetry_space_group_name_H-M   'P 1'
_cell_length_a   7.92130037
_cell_length_b   7.92213364
_cell_length_c   5.82404500
_cell_angle_alpha   90.00000000
_cell_angle_beta   90.00000000
_cell_angle_gamma   119.96660229
_symmetry_Int_Tables_number   1
_chemical_formula_structural   Sc10Si4GeAs
_chemical_formula_sum   'Sc10 Si4 Ge1 As1'
_cell_volume   316.62124896
_cell_formula_units_Z   1
loop_
 _symmetry_equiv_pos_site_id
 _symmetry_equiv_pos_as_xyz
  1  'x, y, z'
loop_
 _atom_site_type_symbol
 _atom_site_label
 _atom_site_symmetry_multiplicity
 _atom_site_fract_x
 _atom_site_fract_y
 _atom_site_fract_z
 _atom_site_occupancy
  Sc  Sc0  1  0.996351  0.754518  0.750000  1
  Sc  Sc1  1  0.997661  0.242286  0.250000  1
  Sc  Sc2  1  0.759151  0.758525  0.250000  1
  Sc  Sc3  1  0.759367  0.000291  0.750000  1
  Sc  Sc4  1  0.241789  0.245837  0.750000  1
  Sc  Sc5  1  0.242102  0.996858  0.250000  1
  Sc  Sc6  1  0.332706  0.666007  0.499901  1
  Sc  Sc7  1  0.670050  0.335279  0.000125  1
  Sc  Sc8  1  0.670050  0.335279  0.499875  1
  Sc  Sc9  1  0.332706  0.666007  0.000099  1
  Si  Si10  1  0.000713  0.606036  0.250000  1
  Si  Si11  1  0.000476  0.394836  0.750000  1
  Si  Si12  1  0.606875  0.607174  0.750000  1
  Si  Si13  1  0.607634  0.999556  0.250000  1
  Ge  Ge14  1  0.391836  0.390745  0.250000  1
  As  As15  1  0.390530  0.000766  0.750000  1
