# generated using pymatgen
data_CaLa3Pr3FeI12
_symmetry_space_group_name_H-M   'P 1'
_cell_length_a   10.05082637
_cell_length_b   10.21136910
_cell_length_c   10.07314876
_cell_angle_alpha   107.14159995
_cell_angle_beta   107.07230913
_cell_angle_gamma   106.71667778
_symmetry_Int_Tables_number   1
_chemical_formula_structural   CaLa3Pr3FeI12
_chemical_formula_sum   'Ca1 La3 Pr3 Fe1 I12'
_cell_volume   861.51951721
_cell_formula_units_Z   1
loop_
 _symmetry_equiv_pos_site_id
 _symmetry_equiv_pos_as_xyz
  1  'x, y, z'
loop_
 _atom_site_type_symbol
 _atom_site_label
 _atom_site_symmetry_multiplicity
 _atom_site_fract_x
 _atom_site_fract_y
 _atom_site_fract_z
 _atom_site_occupancy
  Ca  Ca0  1  0.000389  0.000240  0.999996  1
  La  La1  1  0.791808  0.525034  0.596011  1
  La  La2  1  0.525657  0.596709  0.794477  1
  La  La3  1  0.208036  0.474743  0.403147  1
  Pr  Pr4  1  0.473988  0.403093  0.206152  1
  Pr  Pr5  1  0.601756  0.807890  0.526016  1
  Pr  Pr6  1  0.398229  0.191766  0.473443  1
  Fe  Fe7  1  0.500065  0.501378  0.504186  1
  I  I8  1  0.725246  0.182073  0.573159  1
  I  I9  1  0.960967  0.882794  0.659337  1
  I  I10  1  0.572482  0.722279  0.181745  1
  I  I11  1  0.116754  0.337697  0.036482  1
  I  I12  1  0.659501  0.960863  0.882287  1
  I  I13  1  0.886355  0.662867  0.963815  1
  I  I14  1  0.038964  0.117185  0.340308  1
  I  I15  1  0.816295  0.425332  0.271468  1
  I  I16  1  0.342051  0.041888  0.117514  1
  I  I17  1  0.274790  0.817788  0.426559  1
  I  I18  1  0.180204  0.573877  0.726524  1
  I  I19  1  0.426463  0.274503  0.817373  1
