# generated using pymatgen
data_Nd2Lu3(SnPb)2
_symmetry_space_group_name_H-M   'P 1'
_cell_length_a   8.11620500
_cell_length_b   8.22965300
_cell_length_c   15.55027300
_cell_angle_alpha   90.00000000
_cell_angle_beta   90.00000000
_cell_angle_gamma   90.00000000
_symmetry_Int_Tables_number   1
_chemical_formula_structural   Nd2Lu3(SnPb)2
_chemical_formula_sum   'Nd8 Lu12 Sn8 Pb8'
_cell_volume   1038.65795000
_cell_formula_units_Z   4
loop_
 _symmetry_equiv_pos_site_id
 _symmetry_equiv_pos_as_xyz
  1  'x, y, z'
loop_
 _atom_site_type_symbol
 _atom_site_label
 _atom_site_symmetry_multiplicity
 _atom_site_fract_x
 _atom_site_fract_y
 _atom_site_fract_z
 _atom_site_occupancy
  Nd  Nd0  1  0.474446  0.677164  0.599636  1
  Nd  Nd1  1  0.974446  0.822836  0.900364  1
  Nd  Nd2  1  0.525554  0.322836  0.099636  1
  Nd  Nd3  1  0.025554  0.177164  0.400364  1
  Nd  Nd4  1  0.525554  0.322836  0.400364  1
  Nd  Nd5  1  0.025554  0.177164  0.099636  1
  Nd  Nd6  1  0.474446  0.677164  0.900364  1
  Nd  Nd7  1  0.974446  0.822836  0.599636  1
  Lu  Lu8  1  0.633259  0.158979  0.625248  1
  Lu  Lu9  1  0.133259  0.341021  0.874752  1
  Lu  Lu10  1  0.366741  0.841021  0.125248  1
  Lu  Lu11  1  0.866741  0.658979  0.374752  1
  Lu  Lu12  1  0.366741  0.841021  0.374752  1
  Lu  Lu13  1  0.866741  0.658979  0.125248  1
  Lu  Lu14  1  0.633259  0.158979  0.874752  1
  Lu  Lu15  1  0.133259  0.341021  0.625248  1
  Lu  Lu16  1  0.800143  0.493745  0.750000  1
  Lu  Lu17  1  0.300143  0.006255  0.750000  1
  Lu  Lu18  1  0.199857  0.506255  0.250000  1
  Lu  Lu19  1  0.699857  0.993745  0.250000  1
  Sn  Sn20  1  0.435996  0.372501  0.750000  1
  Sn  Sn21  1  0.935996  0.127499  0.750000  1
  Sn  Sn22  1  0.564004  0.627499  0.250000  1
  Sn  Sn23  1  0.064004  0.872501  0.250000  1
  Sn  Sn24  1  0.666056  0.853337  0.750000  1
  Sn  Sn25  1  0.166056  0.646663  0.750000  1
  Sn  Sn26  1  0.333944  0.146663  0.250000  1
  Sn  Sn27  1  0.833944  0.353337  0.250000  1
  Pb  Pb28  1  0.704169  0.958237  0.457099  1
  Pb  Pb29  1  0.204169  0.541763  0.042901  1
  Pb  Pb30  1  0.295831  0.041763  0.957099  1
  Pb  Pb31  1  0.795831  0.458237  0.542901  1
  Pb  Pb32  1  0.295831  0.041763  0.542901  1
  Pb  Pb33  1  0.795831  0.458237  0.957099  1
  Pb  Pb34  1  0.704169  0.958237  0.042901  1
  Pb  Pb35  1  0.204169  0.541763  0.457099  1
