# generated using pymatgen
data_LuTh3(Ge2Ir)4
_symmetry_space_group_name_H-M   'P 1'
_cell_length_a   9.52109898
_cell_length_b   9.52109844
_cell_length_c   9.52109857
_cell_angle_alpha   153.30615746
_cell_angle_beta   124.13418952
_cell_angle_gamma   62.96384187
_symmetry_Int_Tables_number   1
_chemical_formula_structural   LuTh3(Ge2Ir)4
_chemical_formula_sum   'Lu1 Th3 Ge8 Ir4'
_cell_volume   318.38009675
_cell_formula_units_Z   1
loop_
 _symmetry_equiv_pos_site_id
 _symmetry_equiv_pos_as_xyz
  1  'x, y, z'
loop_
 _atom_site_type_symbol
 _atom_site_label
 _atom_site_symmetry_multiplicity
 _atom_site_fract_x
 _atom_site_fract_y
 _atom_site_fract_z
 _atom_site_occupancy
  Lu  Lu0  1  0.705415  0.205415  0.500000  1
  Th  Th1  1  0.292906  0.792906  0.500000  1
  Th  Th2  1  0.272240  0.001034  0.271207  1
  Th  Th3  1  0.729828  0.001034  0.728793  1
  Ge  Ge4  1  0.580129  0.580129  0.000000  1
  Ge  Ge5  1  0.948755  0.798907  0.149848  1
  Ge  Ge6  1  0.649059  0.798907  0.850152  1
  Ge  Ge7  1  0.038018  0.198703  0.839315  1
  Ge  Ge8  1  0.922169  0.422169  0.500000  1
  Ge  Ge9  1  0.425415  0.425415  0.000000  1
  Ge  Ge10  1  0.076403  0.576403  0.500000  1
  Ge  Ge11  1  0.359389  0.198703  0.160685  1
  Ir  Ir12  1  0.899161  0.646918  0.252242  1
  Ir  Ir13  1  0.099666  0.353219  0.746447  1
  Ir  Ir14  1  0.606771  0.353219  0.253553  1
  Ir  Ir15  1  0.394677  0.646918  0.747758  1
