# generated using pymatgen
data_Li2Co8NiMo3P7
_symmetry_space_group_name_H-M   'P 1'
_cell_length_a   8.94104855
_cell_length_b   8.97050416
_cell_length_c   3.64798900
_cell_angle_alpha   90.00000000
_cell_angle_beta   90.00000000
_cell_angle_gamma   119.85100939
_symmetry_Int_Tables_number   1
_chemical_formula_structural   Li2Co8NiMo3P7
_chemical_formula_sum   'Li2 Co8 Ni1 Mo3 P7'
_cell_volume   253.76955584
_cell_formula_units_Z   1
loop_
 _symmetry_equiv_pos_site_id
 _symmetry_equiv_pos_as_xyz
  1  'x, y, z'
loop_
 _atom_site_type_symbol
 _atom_site_label
 _atom_site_symmetry_multiplicity
 _atom_site_fract_x
 _atom_site_fract_y
 _atom_site_fract_z
 _atom_site_occupancy
  Li  Li0  1  0.333079  0.665505  0.000000  1
  Li  Li1  1  0.668440  0.335560  0.500000  1
  Co  Co2  1  0.716452  0.881267  0.000000  1
  Co  Co3  1  0.163331  0.282112  0.000000  1
  Co  Co4  1  0.120053  0.834366  0.000000  1
  Co  Co5  1  0.626862  0.569170  0.000000  1
  Co  Co6  1  0.941144  0.373686  0.000000  1
  Co  Co7  1  0.560161  0.952924  0.500000  1
  Co  Co8  1  0.390622  0.439126  0.500000  1
  Co  Co9  1  0.045049  0.607047  0.500000  1
  Ni  Ni10  1  0.434100  0.061561  0.000000  1
  Mo  Mo11  1  0.874894  0.779897  0.500000  1
  Mo  Mo12  1  0.905393  0.125281  0.500000  1
  Mo  Mo13  1  0.222735  0.095112  0.500000  1
  P  P14  1  0.581387  0.712588  0.500000  1
  P  P15  1  0.129576  0.417801  0.500000  1
  P  P16  1  0.284031  0.863505  0.500000  1
  P  P17  1  0.000825  0.999214  0.000000  1
  P  P18  1  0.877687  0.577703  0.000000  1
  P  P19  1  0.703081  0.121408  0.000000  1
  P  P20  1  0.421097  0.305168  0.000000  1
