# generated using pymatgen
data_Dy2Y2BBr6
_symmetry_space_group_name_H-M   'P 1'
_cell_length_a   3.94824900
_cell_length_b   13.10487400
_cell_length_c   13.57555300
_cell_angle_alpha   90.00000000
_cell_angle_beta   90.00000000
_cell_angle_gamma   90.00000000
_symmetry_Int_Tables_number   1
_chemical_formula_structural   Dy2Y2BBr6
_chemical_formula_sum   'Dy4 Y4 B2 Br12'
_cell_volume   702.41683735
_cell_formula_units_Z   2
loop_
 _symmetry_equiv_pos_site_id
 _symmetry_equiv_pos_as_xyz
  1  'x, y, z'
loop_
 _atom_site_type_symbol
 _atom_site_label
 _atom_site_symmetry_multiplicity
 _atom_site_fract_x
 _atom_site_fract_y
 _atom_site_fract_z
 _atom_site_occupancy
  Dy  Dy0  1  0.000000  0.101996  0.081064  1
  Dy  Dy1  1  0.000000  0.898004  0.918936  1
  Dy  Dy2  1  0.000000  0.601996  0.418936  1
  Dy  Dy3  1  0.000000  0.398004  0.581064  1
  Y  Y4  1  0.500000  0.123216  0.855131  1
  Y  Y5  1  0.500000  0.876784  0.144869  1
  Y  Y6  1  0.500000  0.623216  0.644869  1
  Y  Y7  1  0.500000  0.376784  0.355131  1
  B  B8  1  0.500000  0.000000  0.000000  1
  B  B9  1  0.500000  0.500000  0.500000  1
  Br  Br10  1  0.500000  0.267642  0.682496  1
  Br  Br11  1  0.500000  0.732358  0.317504  1
  Br  Br12  1  0.500000  0.767642  0.817504  1
  Br  Br13  1  0.500000  0.232358  0.182496  1
  Br  Br14  1  0.000000  0.262582  0.932096  1
  Br  Br15  1  0.000000  0.737418  0.067904  1
  Br  Br16  1  0.000000  0.481812  0.237920  1
  Br  Br17  1  0.000000  0.518188  0.762080  1
  Br  Br18  1  0.000000  0.981812  0.262080  1
  Br  Br19  1  0.000000  0.018188  0.737920  1
  Br  Br20  1  0.000000  0.237418  0.432096  1
  Br  Br21  1  0.000000  0.762582  0.567904  1
