# generated using pymatgen
data_MoPtRh7
_symmetry_space_group_name_H-M   'P 1'
_cell_length_a   6.13696563
_cell_length_b   6.13696640
_cell_length_c   6.13696652
_cell_angle_alpha   95.71485827
_cell_angle_beta   95.58450350
_cell_angle_gamma   143.42798242
_symmetry_Int_Tables_number   1
_chemical_formula_structural   MoPtRh7
_chemical_formula_sum   'Mo1 Pt1 Rh7'
_cell_volume   130.76186861
_cell_formula_units_Z   1
loop_
 _symmetry_equiv_pos_site_id
 _symmetry_equiv_pos_as_xyz
  1  'x, y, z'
loop_
 _atom_site_type_symbol
 _atom_site_label
 _atom_site_symmetry_multiplicity
 _atom_site_fract_x
 _atom_site_fract_y
 _atom_site_fract_z
 _atom_site_occupancy
  Mo  Mo0  1  0.997457  0.000000  0.997457  1
  Pt  Pt1  1  0.331817  0.000000  0.331817  1
  Rh  Rh2  1  0.336573  0.337862  0.674434  1
  Rh  Rh3  1  0.661689  0.664897  0.326587  1
  Rh  Rh4  1  0.661689  0.335103  0.996792  1
  Rh  Rh5  1  0.336573  0.662138  0.998712  1
  Rh  Rh6  1  0.001991  0.329063  0.331054  1
  Rh  Rh7  1  0.001991  0.670937  0.672928  1
  Rh  Rh8  1  0.670219  0.000000  0.670219  1
