# generated using pymatgen
data_KAg5Se3
_symmetry_space_group_name_H-M   'P 1'
_cell_length_a   13.86713700
_cell_length_b   13.86713682
_cell_length_c   8.25621300
_cell_angle_alpha   90.00000000
_cell_angle_beta   90.00000000
_cell_angle_gamma   119.99999805
_symmetry_Int_Tables_number   1
_chemical_formula_structural   KAg5Se3
_chemical_formula_sum   'K6 Ag30 Se18'
_cell_volume   1374.94439718
_cell_formula_units_Z   6
loop_
 _symmetry_equiv_pos_site_id
 _symmetry_equiv_pos_as_xyz
  1  'x, y, z'
loop_
 _atom_site_type_symbol
 _atom_site_label
 _atom_site_symmetry_multiplicity
 _atom_site_fract_x
 _atom_site_fract_y
 _atom_site_fract_z
 _atom_site_occupancy
  K  K0  1  0.333333  0.666667  0.501450  1
  K  K1  1  0.333333  0.666667  0.998550  1
  K  K2  1  0.666667  0.333333  0.498550  1
  K  K3  1  0.666667  0.333333  0.001450  1
  K  K4  1  0.000000  0.000000  0.500000  1
  K  K5  1  0.000000  0.000000  0.000000  1
  Ag  Ag6  1  0.994826  0.700832  0.750000  1
  Ag  Ag7  1  0.706006  0.005174  0.750000  1
  Ag  Ag8  1  0.299168  0.293994  0.750000  1
  Ag  Ag9  1  0.293994  0.299168  0.250000  1
  Ag  Ag10  1  0.005174  0.706006  0.250000  1
  Ag  Ag11  1  0.700832  0.994826  0.250000  1
  Ag  Ag12  1  0.464314  0.464314  0.500000  1
  Ag  Ag13  1  0.000000  0.535686  0.000000  1
  Ag  Ag14  1  0.535686  0.000000  0.000000  1
  Ag  Ag15  1  0.535686  0.000000  0.500000  1
  Ag  Ag16  1  0.000000  0.535686  0.500000  1
  Ag  Ag17  1  0.464314  0.464314  0.000000  1
  Ag  Ag18  1  0.184401  0.850753  0.500993  1
  Ag  Ag19  1  0.149247  0.333647  0.500993  1
  Ag  Ag20  1  0.666353  0.815599  0.500993  1
  Ag  Ag21  1  0.815599  0.666353  0.499007  1
  Ag  Ag22  1  0.666353  0.815599  0.999007  1
  Ag  Ag23  1  0.184401  0.850753  0.999007  1
  Ag  Ag24  1  0.149247  0.333647  0.999007  1
  Ag  Ag25  1  0.850753  0.184401  0.000993  1
  Ag  Ag26  1  0.333647  0.149247  0.000993  1
  Ag  Ag27  1  0.333647  0.149247  0.499007  1
  Ag  Ag28  1  0.850753  0.184401  0.499007  1
  Ag  Ag29  1  0.815599  0.666353  0.000993  1
  Ag  Ag30  1  0.633222  0.635512  0.250000  1
  Ag  Ag31  1  0.364488  0.997711  0.250000  1
  Ag  Ag32  1  0.002289  0.366778  0.250000  1
  Ag  Ag33  1  0.366778  0.002289  0.750000  1
  Ag  Ag34  1  0.997711  0.364488  0.750000  1
  Ag  Ag35  1  0.635512  0.633222  0.750000  1
  Se  Se36  1  0.548491  0.776851  0.250000  1
  Se  Se37  1  0.223149  0.771640  0.250000  1
  Se  Se38  1  0.228360  0.451509  0.250000  1
  Se  Se39  1  0.451509  0.228360  0.750000  1
  Se  Se40  1  0.771640  0.223149  0.750000  1
  Se  Se41  1  0.776851  0.548491  0.750000  1
  Se  Se42  1  0.534645  0.414966  0.250000  1
  Se  Se43  1  0.585034  0.119678  0.250000  1
  Se  Se44  1  0.880322  0.465355  0.250000  1
  Se  Se45  1  0.465355  0.880322  0.750000  1
  Se  Se46  1  0.119678  0.585034  0.750000  1
  Se  Se47  1  0.414966  0.534645  0.750000  1
  Se  Se48  1  0.866438  0.786617  0.250000  1
  Se  Se49  1  0.213383  0.079821  0.250000  1
  Se  Se50  1  0.920179  0.133562  0.250000  1
  Se  Se51  1  0.133562  0.920179  0.750000  1
  Se  Se52  1  0.079821  0.213383  0.750000  1
  Se  Se53  1  0.786617  0.866438  0.750000  1
