# generated using pymatgen
data_TaTi18Si16Mo
_symmetry_space_group_name_H-M   'P 1'
_cell_length_a   6.69745223
_cell_length_b   6.69745251
_cell_length_c   12.20997428
_cell_angle_alpha   89.96350367
_cell_angle_beta   90.03649367
_cell_angle_gamma   90.05770495
_symmetry_Int_Tables_number   1
_chemical_formula_structural   TaTi18Si16Mo
_chemical_formula_sum   'Ta1 Ti18 Si16 Mo1'
_cell_volume   547.68849823
_cell_formula_units_Z   1
loop_
 _symmetry_equiv_pos_site_id
 _symmetry_equiv_pos_as_xyz
  1  'x, y, z'
loop_
 _atom_site_type_symbol
 _atom_site_label
 _atom_site_symmetry_multiplicity
 _atom_site_fract_x
 _atom_site_fract_y
 _atom_site_fract_z
 _atom_site_occupancy
  Ta  Ta0  1  0.828352  0.828352  0.500000  1
  Ti  Ti1  1  0.995832  0.147776  0.622543  1
  Ti  Ti2  1  0.350154  0.495779  0.871700  1
  Ti  Ti3  1  0.649797  0.504987  0.371663  1
  Ti  Ti4  1  0.495779  0.350154  0.128300  1
  Ti  Ti5  1  0.504987  0.649797  0.628337  1
  Ti  Ti6  1  0.005312  0.851782  0.120696  1
  Ti  Ti7  1  0.147776  0.995832  0.377457  1
  Ti  Ti8  1  0.851782  0.005312  0.879304  1
  Ti  Ti9  1  0.003186  0.344757  0.218700  1
  Ti  Ti10  1  0.154538  0.502613  0.469094  1
  Ti  Ti11  1  0.843918  0.497488  0.969510  1
  Ti  Ti12  1  0.502613  0.154538  0.530906  1
  Ti  Ti13  1  0.497488  0.843918  0.030490  1
  Ti  Ti14  1  0.996992  0.656389  0.718994  1
  Ti  Ti15  1  0.344757  0.003186  0.781300  1
  Ti  Ti16  1  0.656389  0.996992  0.281006  1
  Ti  Ti17  1  0.329510  0.670561  0.248994  1
  Ti  Ti18  1  0.670561  0.329510  0.751006  1
  Si  Si19  1  0.045031  0.301393  0.813263  1
  Si  Si20  1  0.199316  0.544078  0.063701  1
  Si  Si21  1  0.800090  0.452095  0.564367  1
  Si  Si22  1  0.544078  0.199316  0.936299  1
  Si  Si23  1  0.452095  0.800090  0.435633  1
  Si  Si24  1  0.956791  0.697280  0.311413  1
  Si  Si25  1  0.301393  0.045031  0.186737  1
  Si  Si26  1  0.697280  0.956791  0.688587  1
  Si  Si27  1  0.295680  0.356845  0.673516  1
  Si  Si28  1  0.142725  0.794320  0.922321  1
  Si  Si29  1  0.858273  0.207276  0.422621  1
  Si  Si30  1  0.794320  0.142725  0.077679  1
  Si  Si31  1  0.207276  0.858273  0.577379  1
  Si  Si32  1  0.704619  0.642770  0.172760  1
  Si  Si33  1  0.356845  0.295680  0.326484  1
  Si  Si34  1  0.642770  0.704619  0.827240  1
  Mo  Mo35  1  0.171695  0.171695  0.000000  1
