# generated using pymatgen
data_Sc4Ga24IrPt8
_symmetry_space_group_name_H-M   'P 1'
_cell_length_a   7.49323614
_cell_length_b   7.48283498
_cell_length_c   13.19481074
_cell_angle_alpha   84.85487815
_cell_angle_beta   79.36776955
_cell_angle_gamma   60.06438667
_symmetry_Int_Tables_number   1
_chemical_formula_structural   Sc4Ga24IrPt8
_chemical_formula_sum   'Sc4 Ga24 Ir1 Pt8'
_cell_volume   630.12721522
_cell_formula_units_Z   1
loop_
 _symmetry_equiv_pos_site_id
 _symmetry_equiv_pos_as_xyz
  1  'x, y, z'
loop_
 _atom_site_type_symbol
 _atom_site_label
 _atom_site_symmetry_multiplicity
 _atom_site_fract_x
 _atom_site_fract_y
 _atom_site_fract_z
 _atom_site_occupancy
  Sc  Sc0  1  0.393916  0.167094  0.811091  1
  Sc  Sc1  1  0.606084  0.832906  0.188909  1
  Sc  Sc2  1  0.730844  0.499507  0.810735  1
  Sc  Sc3  1  0.269156  0.500493  0.189265  1
  Ga  Ga4  1  0.683417  0.830639  0.936840  1
  Ga  Ga5  1  0.316583  0.169361  0.063160  1
  Ga  Ga6  1  0.146782  0.832405  0.561006  1
  Ga  Ga7  1  0.853218  0.167595  0.438994  1
  Ga  Ga8  1  0.479758  0.166858  0.558258  1
  Ga  Ga9  1  0.520242  0.833142  0.441742  1
  Ga  Ga10  1  0.226549  0.165615  0.316172  1
  Ga  Ga11  1  0.773451  0.834385  0.683828  1
  Ga  Ga12  1  0.437019  0.501470  0.683613  1
  Ga  Ga13  1  0.562981  0.498530  0.316387  1
  Ga  Ga14  1  0.104728  0.165440  0.682193  1
  Ga  Ga15  1  0.895272  0.834560  0.317807  1
  Ga  Ga16  1  0.359052  0.492926  0.936834  1
  Ga  Ga17  1  0.640948  0.507074  0.063166  1
  Ga  Ga18  1  0.020409  0.177654  0.939974  1
  Ga  Ga19  1  0.979591  0.822346  0.060026  1
  Ga  Ga20  1  0.186271  0.498792  0.441921  1
  Ga  Ga21  1  0.813729  0.501208  0.558079  1
  Ga  Ga22  1  0.732600  0.162687  0.181789  1
  Ga  Ga23  1  0.267400  0.837313  0.818211  1
  Ga  Ga24  1  0.060333  0.626093  0.818830  1
  Ga  Ga25  1  0.939667  0.373907  0.181170  1
  Ga  Ga26  1  0.852536  0.045743  0.817638  1
  Ga  Ga27  1  0.147464  0.954257  0.182362  1
  Ir  Ir28  1  0.000000  0.500000  0.000000  1
  Pt  Pt29  1  0.118961  0.493503  0.640400  1
  Pt  Pt30  1  0.881039  0.506497  0.359600  1
  Pt  Pt31  1  0.661287  0.169305  0.999562  1
  Pt  Pt32  1  0.338713  0.830695  0.000438  1
  Pt  Pt33  1  0.539078  0.166895  0.359991  1
  Pt  Pt34  1  0.460922  0.833105  0.640009  1
  Pt  Pt35  1  0.779082  0.173926  0.638033  1
  Pt  Pt36  1  0.220918  0.826074  0.361967  1
