# generated using pymatgen
data_LaYTm8(Si3Pt)2
_symmetry_space_group_name_H-M   'P 1'
_cell_length_a   7.26248900
_cell_length_b   7.87951241
_cell_length_c   14.48588414
_cell_angle_alpha   89.92951015
_cell_angle_beta   90.00000000
_cell_angle_gamma   90.00000000
_symmetry_Int_Tables_number   1
_chemical_formula_structural   LaYTm8(Si3Pt)2
_chemical_formula_sum   'La2 Y2 Tm16 Si12 Pt4'
_cell_volume   828.95224184
_cell_formula_units_Z   2
loop_
 _symmetry_equiv_pos_site_id
 _symmetry_equiv_pos_as_xyz
  1  'x, y, z'
loop_
 _atom_site_type_symbol
 _atom_site_label
 _atom_site_symmetry_multiplicity
 _atom_site_fract_x
 _atom_site_fract_y
 _atom_site_fract_z
 _atom_site_occupancy
  La  La0  1  0.512685  0.574323  0.337332  1
  La  La1  1  0.012685  0.425677  0.662668  1
  Y  Y2  1  0.516829  0.567654  0.658748  1
  Y  Y3  1  0.016829  0.432346  0.341252  1
  Tm  Tm4  1  0.811710  0.578303  0.878417  1
  Tm  Tm5  1  0.311710  0.421697  0.121583  1
  Tm  Tm6  1  0.185350  0.926317  0.376430  1
  Tm  Tm7  1  0.685350  0.073683  0.623570  1
  Tm  Tm8  1  0.186672  0.924349  0.624913  1
  Tm  Tm9  1  0.686672  0.075651  0.375087  1
  Tm  Tm10  1  0.814969  0.575733  0.122280  1
  Tm  Tm11  1  0.314969  0.424267  0.877720  1
  Tm  Tm12  1  0.661728  0.233876  0.999639  1
  Tm  Tm13  1  0.161728  0.766124  0.000361  1
  Tm  Tm14  1  0.340526  0.264677  0.499328  1
  Tm  Tm15  1  0.840526  0.735323  0.500672  1
  Tm  Tm16  1  0.483365  0.933859  0.843813  1
  Tm  Tm17  1  0.983365  0.066141  0.156187  1
  Tm  Tm18  1  0.480225  0.937046  0.153765  1
  Tm  Tm19  1  0.980225  0.062954  0.846235  1
  Si  Si20  1  0.652039  0.274209  0.791768  1
  Si  Si21  1  0.152039  0.725791  0.208232  1
  Si  Si22  1  0.347215  0.215521  0.286359  1
  Si  Si23  1  0.847215  0.784479  0.713641  1
  Si  Si24  1  0.356887  0.218167  0.712213  1
  Si  Si25  1  0.856887  0.781833  0.287787  1
  Si  Si26  1  0.651588  0.272029  0.207402  1
  Si  Si27  1  0.151588  0.727971  0.792598  1
  Si  Si28  1  0.768217  0.883054  0.000272  1
  Si  Si29  1  0.268217  0.116946  0.999728  1
  Si  Si30  1  0.230147  0.620669  0.502492  1
  Si  Si31  1  0.730147  0.379331  0.497508  1
  Pt  Pt32  1  0.517157  0.653438  0.001177  1
  Pt  Pt33  1  0.017157  0.346562  0.998823  1
  Pt  Pt34  1  0.482694  0.851051  0.501640  1
  Pt  Pt35  1  0.982694  0.148949  0.498360  1
