# generated using pymatgen
data_Y8Ta9Si16W3
_symmetry_space_group_name_H-M   'P 1'
_cell_length_a   7.00544229
_cell_length_b   7.00222851
_cell_length_c   12.97534076
_cell_angle_alpha   89.90276784
_cell_angle_beta   90.05175406
_cell_angle_gamma   90.04245538
_symmetry_Int_Tables_number   1
_chemical_formula_structural   Y8Ta9Si16W3
_chemical_formula_sum   'Y8 Ta9 Si16 W3'
_cell_volume   636.48722376
_cell_formula_units_Z   1
loop_
 _symmetry_equiv_pos_site_id
 _symmetry_equiv_pos_as_xyz
  1  'x, y, z'
loop_
 _atom_site_type_symbol
 _atom_site_label
 _atom_site_symmetry_multiplicity
 _atom_site_fract_x
 _atom_site_fract_y
 _atom_site_fract_z
 _atom_site_occupancy
  Y  Y0  1  0.999635  0.661444  0.030969  1
  Y  Y1  1  0.001068  0.338381  0.532867  1
  Y  Y2  1  0.340250  0.000010  0.468574  1
  Y  Y3  1  0.161980  0.500779  0.781297  1
  Y  Y4  1  0.838128  0.498305  0.281314  1
  Y  Y5  1  0.499802  0.160631  0.217474  1
  Y  Y6  1  0.499169  0.839803  0.719451  1
  Y  Y7  1  0.660323  0.999485  0.968360  1
  Ta  Ta8  1  0.669512  0.668100  0.500001  1
  Ta  Ta9  1  0.167752  0.828792  0.248919  1
  Ta  Ta10  1  0.329748  0.332321  0.999577  1
  Ta  Ta11  1  0.994822  0.844607  0.626516  1
  Ta  Ta12  1  0.004715  0.154815  0.125968  1
  Ta  Ta13  1  0.841741  0.990265  0.374083  1
  Ta  Ta14  1  0.344813  0.504622  0.376310  1
  Ta  Ta15  1  0.655380  0.495617  0.875997  1
  Ta  Ta16  1  0.832436  0.170030  0.749959  1
  Si  Si17  1  0.042863  0.704506  0.436504  1
  Si  Si18  1  0.631141  0.295040  0.433657  1
  Si  Si19  1  0.368478  0.707312  0.932021  1
  Si  Si20  1  0.207815  0.130857  0.682510  1
  Si  Si21  1  0.300153  0.627175  0.568608  1
  Si  Si22  1  0.701113  0.373965  0.067797  1
  Si  Si23  1  0.791067  0.867420  0.180781  1
  Si  Si24  1  0.130446  0.202959  0.317696  1
  Si  Si25  1  0.958629  0.292143  0.936593  1
  Si  Si26  1  0.705620  0.043003  0.564046  1
  Si  Si27  1  0.206733  0.458456  0.186443  1
  Si  Si28  1  0.792101  0.541286  0.686675  1
  Si  Si29  1  0.458174  0.206867  0.813014  1
  Si  Si30  1  0.540235  0.792945  0.311630  1
  Si  Si31  1  0.293547  0.958628  0.062619  1
  Si  Si32  1  0.874030  0.799523  0.818201  1
  W  W33  1  0.508826  0.341176  0.625687  1
  W  W34  1  0.487991  0.657977  0.123642  1
  W  W35  1  0.159766  0.010752  0.874243  1
