# generated using pymatgen
data_Na2HfOsO6
_symmetry_space_group_name_H-M   'P 1'
_cell_length_a   5.57917499
_cell_length_b   5.57939939
_cell_length_c   5.57953426
_cell_angle_alpha   59.78581428
_cell_angle_beta   59.78703473
_cell_angle_gamma   59.79107760
_symmetry_Int_Tables_number   1
_chemical_formula_structural   Na2HfOsO6
_chemical_formula_sum   'Na2 Hf1 Os1 O6'
_cell_volume   122.22072634
_cell_formula_units_Z   1
loop_
 _symmetry_equiv_pos_site_id
 _symmetry_equiv_pos_as_xyz
  1  'x, y, z'
loop_
 _atom_site_type_symbol
 _atom_site_label
 _atom_site_symmetry_multiplicity
 _atom_site_fract_x
 _atom_site_fract_y
 _atom_site_fract_z
 _atom_site_occupancy
  Na  Na0  1  0.251324  0.251369  0.251349  1
  Na  Na1  1  0.748676  0.748631  0.748651  1
  Hf  Hf2  1  0.000000  0.000000  0.000000  1
  Os  Os3  1  0.500000  0.500000  0.500000  1
  O  O4  1  0.740172  0.314449  0.203326  1
  O  O5  1  0.685571  0.796647  0.259827  1
  O  O6  1  0.203328  0.740186  0.314444  1
  O  O7  1  0.796672  0.259814  0.685556  1
  O  O8  1  0.314428  0.203353  0.740173  1
  O  O9  1  0.259828  0.685551  0.796674  1
