# generated using pymatgen
data_Dy2Ni3B4Ir
_symmetry_space_group_name_H-M   'P 1'
_cell_length_a   4.99278023
_cell_length_b   5.03520816
_cell_length_c   7.05358603
_cell_angle_alpha   59.69687553
_cell_angle_beta   58.61816497
_cell_angle_gamma   63.46785574
_symmetry_Int_Tables_number   1
_chemical_formula_structural   Dy2Ni3B4Ir
_chemical_formula_sum   'Dy2 Ni3 B4 Ir1'
_cell_volume   126.56540629
_cell_formula_units_Z   1
loop_
 _symmetry_equiv_pos_site_id
 _symmetry_equiv_pos_as_xyz
  1  'x, y, z'
loop_
 _atom_site_type_symbol
 _atom_site_label
 _atom_site_symmetry_multiplicity
 _atom_site_fract_x
 _atom_site_fract_y
 _atom_site_fract_z
 _atom_site_occupancy
  Dy  Dy0  1  0.115749  0.882714  0.255654  1
  Dy  Dy1  1  0.876475  0.118645  0.754582  1
  Ni  Ni2  1  0.736450  0.521593  0.303373  1
  Ni  Ni3  1  0.535017  0.730861  0.789405  1
  Ni  Ni4  1  0.282369  0.467706  0.697557  1
  B  B5  1  0.155856  0.509602  0.009499  1
  B  B6  1  0.498009  0.835165  0.482106  1
  B  B7  1  0.843409  0.497524  0.971803  1
  B  B8  1  0.505398  0.153539  0.531136  1
  Ir  Ir9  1  0.451268  0.282649  0.204886  1
