# generated using pymatgen
data_La3Y5Er2C4I15
_symmetry_space_group_name_H-M   'P 1'
_cell_length_a   9.69763453
_cell_length_b   10.50816522
_cell_length_c   11.64936000
_cell_angle_alpha   93.05327179
_cell_angle_beta   114.10772451
_cell_angle_gamma   109.48138078
_symmetry_Int_Tables_number   1
_chemical_formula_structural   La3Y5Er2C4I15
_chemical_formula_sum   'La3 Y5 Er2 C4 I15'
_cell_volume   996.47054467
_cell_formula_units_Z   1
loop_
 _symmetry_equiv_pos_site_id
 _symmetry_equiv_pos_as_xyz
  1  'x, y, z'
loop_
 _atom_site_type_symbol
 _atom_site_label
 _atom_site_symmetry_multiplicity
 _atom_site_fract_x
 _atom_site_fract_y
 _atom_site_fract_z
 _atom_site_occupancy
  La  La0  1  0.706443  0.568933  0.045064  1
  La  La1  1  0.293328  0.432755  0.955429  1
  La  La2  1  0.664157  0.254298  0.835805  1
  Y  Y3  1  0.589323  0.541523  0.336137  1
  Y  Y4  1  0.350757  0.743001  0.162677  1
  Y  Y5  1  0.764896  0.872795  0.251401  1
  Y  Y6  1  0.525825  0.186690  0.098672  1
  Y  Y7  1  0.238286  0.125686  0.751288  1
  Er  Er8  1  0.406889  0.457486  0.663999  1
  Er  Er9  1  0.473394  0.813933  0.902149  1
  C  C10  1  0.483996  0.298729  0.938741  1
  C  C11  1  0.516542  0.703967  0.060449  1
  C  C12  1  0.455225  0.363328  0.832857  1
  C  C13  1  0.544115  0.637411  0.165579  1
  I  I14  1  0.218574  0.907271  0.939657  1
  I  I15  1  0.117197  0.198022  0.482653  1
  I  I16  1  0.170898  0.568764  0.699099  1
  I  I17  1  0.395619  0.962691  0.654080  1
  I  I18  1  0.694050  0.737995  0.809187  1
  I  I19  1  0.297423  0.260495  0.187350  1
  I  I20  1  0.832064  0.432676  0.302383  1
  I  I21  1  0.883793  0.803842  0.521040  1
  I  I22  1  0.355591  0.625662  0.406739  1
  I  I23  1  0.051464  0.843413  0.225201  1
  I  I24  1  0.783102  0.085705  0.066841  1
  I  I25  1  0.637047  0.382389  0.583701  1
  I  I26  1  0.949247  0.155867  0.775689  1
  I  I27  1  0.590515  0.023987  0.340792  1
  I  I28  1  0.010238  0.510687  0.005338  1
