# generated using pymatgen
data_CaMg3(BrO3)8
_symmetry_space_group_name_H-M   'P 1'
_cell_length_a   5.77988932
_cell_length_b   10.76568843
_cell_length_c   10.82789555
_cell_angle_alpha   119.12685635
_cell_angle_beta   90.09118550
_cell_angle_gamma   89.03675031
_symmetry_Int_Tables_number   1
_chemical_formula_structural   CaMg3(BrO3)8
_chemical_formula_sum   'Ca1 Mg3 Br8 O24'
_cell_volume   588.45940821
_cell_formula_units_Z   1
loop_
 _symmetry_equiv_pos_site_id
 _symmetry_equiv_pos_as_xyz
  1  'x, y, z'
loop_
 _atom_site_type_symbol
 _atom_site_label
 _atom_site_symmetry_multiplicity
 _atom_site_fract_x
 _atom_site_fract_y
 _atom_site_fract_z
 _atom_site_occupancy
  Ca  Ca0  1  0.128353  0.767102  0.507351  1
  Mg  Mg1  1  0.644211  0.235200  0.492285  1
  Mg  Mg2  1  0.142250  0.262030  0.005754  1
  Mg  Mg3  1  0.643472  0.739434  0.991839  1
  Br  Br4  1  0.269505  0.405605  0.344176  1
  Br  Br5  1  0.750914  0.575319  0.651352  1
  Br  Br6  1  0.263849  0.919161  0.862667  1
  Br  Br7  1  0.770671  0.084980  0.151252  1
  Br  Br8  1  0.776159  0.105503  0.706040  1
  Br  Br9  1  0.302339  0.922113  0.301224  1
  Br  Br10  1  0.287739  0.416353  0.813641  1
  Br  Br11  1  0.782718  0.578677  0.173536  1
  O  O12  1  0.432681  0.890687  0.973546  1
  O  O13  1  0.937055  0.123079  0.047063  1
  O  O14  1  0.368852  0.806084  0.700446  1
  O  O15  1  0.875415  0.186342  0.316648  1
  O  O16  1  0.363559  0.295008  0.177578  1
  O  O17  1  0.853066  0.686493  0.814542  1
  O  O18  1  0.935418  0.235180  0.832522  1
  O  O19  1  0.448076  0.781437  0.172175  1
  O  O20  1  0.903288  0.952692  0.678753  1
  O  O21  1  0.448687  0.068686  0.332561  1
  O  O22  1  0.350410  0.079553  0.888136  1
  O  O23  1  0.862921  0.918226  0.107894  1
  O  O24  1  0.428728  0.283000  0.674331  1
  O  O25  1  0.909340  0.717432  0.309033  1
  O  O26  1  0.355622  0.386069  0.949194  1
  O  O27  1  0.847363  0.600026  0.032888  1
  O  O28  1  0.425665  0.566853  0.848903  1
  O  O29  1  0.939356  0.435197  0.150475  1
  O  O30  1  0.363465  0.565509  0.375527  1
  O  O31  1  0.846395  0.412770  0.619103  1
  O  O32  1  0.441254  0.372264  0.450554  1
  O  O33  1  0.919245  0.606824  0.544190  1
  O  O34  1  0.840139  0.112808  0.557204  1
  O  O35  1  0.351422  0.906307  0.445620  1
