# generated using pymatgen
data_Os5PtW2
_symmetry_space_group_name_H-M   'P 1'
_cell_length_a   5.59087000
_cell_length_b   5.57311081
_cell_length_c   4.41512300
_cell_angle_alpha   90.00000000
_cell_angle_beta   90.00000000
_cell_angle_gamma   120.10546748
_symmetry_Int_Tables_number   1
_chemical_formula_structural   Os5PtW2
_chemical_formula_sum   'Os5 Pt1 W2'
_cell_volume   119.01123948
_cell_formula_units_Z   1
loop_
 _symmetry_equiv_pos_site_id
 _symmetry_equiv_pos_as_xyz
  1  'x, y, z'
loop_
 _atom_site_type_symbol
 _atom_site_label
 _atom_site_symmetry_multiplicity
 _atom_site_fract_x
 _atom_site_fract_y
 _atom_site_fract_z
 _atom_site_occupancy
  Os  Os0  1  0.665182  0.838204  0.250000  1
  Os  Os1  1  0.173023  0.838204  0.250000  1
  Os  Os2  1  0.833346  0.666692  0.750000  1
  Os  Os3  1  0.331273  0.163062  0.750000  1
  Os  Os4  1  0.831789  0.163062  0.750000  1
  Pt  Pt5  1  0.165278  0.330555  0.250000  1
  W  W6  1  0.337037  0.674076  0.750000  1
  W  W7  1  0.663073  0.326145  0.250000  1
