# generated using pymatgen
data_Sm3Ga24Pd8W
_symmetry_space_group_name_H-M   'P 1'
_cell_length_a   8.53239652
_cell_length_b   8.53787594
_cell_length_c   8.53021959
_cell_angle_alpha   89.64146333
_cell_angle_beta   89.51123592
_cell_angle_gamma   89.71807130
_symmetry_Int_Tables_number   1
_chemical_formula_structural   Sm3Ga24Pd8W
_chemical_formula_sum   'Sm3 Ga24 Pd8 W1'
_cell_volume   621.37193065
_cell_formula_units_Z   1
loop_
 _symmetry_equiv_pos_site_id
 _symmetry_equiv_pos_as_xyz
  1  'x, y, z'
loop_
 _atom_site_type_symbol
 _atom_site_label
 _atom_site_symmetry_multiplicity
 _atom_site_fract_x
 _atom_site_fract_y
 _atom_site_fract_z
 _atom_site_occupancy
  Sm  Sm0  1  0.000000  0.500000  0.000000  1
  Sm  Sm1  1  0.500000  0.000000  0.000000  1
  Sm  Sm2  1  0.000000  0.000000  0.500000  1
  Ga  Ga3  1  0.989511  0.643122  0.643168  1
  Ga  Ga4  1  0.643267  0.643180  0.989484  1
  Ga  Ga5  1  0.642993  0.989543  0.642958  1
  Ga  Ga6  1  0.010489  0.356878  0.356832  1
  Ga  Ga7  1  0.356733  0.356820  0.010516  1
  Ga  Ga8  1  0.357007  0.010457  0.357042  1
  Ga  Ga9  1  0.735357  0.499752  0.264831  1
  Ga  Ga10  1  0.264643  0.500248  0.735169  1
  Ga  Ga11  1  0.500695  0.264377  0.734965  1
  Ga  Ga12  1  0.499305  0.735623  0.265035  1
  Ga  Ga13  1  0.264919  0.735554  0.499553  1
  Ga  Ga14  1  0.735081  0.264446  0.500447  1
  Ga  Ga15  1  0.839065  0.141992  0.838878  1
  Ga  Ga16  1  0.141850  0.839452  0.839043  1
  Ga  Ga17  1  0.839333  0.839565  0.141818  1
  Ga  Ga18  1  0.160935  0.858008  0.161122  1
  Ga  Ga19  1  0.858150  0.160548  0.160957  1
  Ga  Ga20  1  0.160667  0.160435  0.858182  1
  Ga  Ga21  1  0.728639  0.489471  0.728391  1
  Ga  Ga22  1  0.489904  0.728961  0.728154  1
  Ga  Ga23  1  0.728324  0.728881  0.490169  1
  Ga  Ga24  1  0.271361  0.510529  0.271609  1
  Ga  Ga25  1  0.510096  0.271039  0.271846  1
  Ga  Ga26  1  0.271676  0.271119  0.509831  1
  Pd  Pd27  1  0.835371  0.835456  0.835180  1
  Pd  Pd28  1  0.164629  0.164544  0.164820  1
  Pd  Pd29  1  0.664556  0.335612  0.000176  1
  Pd  Pd30  1  0.000293  0.335410  0.664740  1
  Pd  Pd31  1  0.335240  0.000103  0.664778  1
  Pd  Pd32  1  0.335444  0.664388  0.999824  1
  Pd  Pd33  1  0.999707  0.664590  0.335260  1
  Pd  Pd34  1  0.664760  0.999897  0.335222  1
  W  W35  1  0.500000  0.500000  0.500000  1
