# generated using pymatgen
data_Hf6FeSnSb
_symmetry_space_group_name_H-M   'P 1'
_cell_length_a   7.84624000
_cell_length_b   7.84623949
_cell_length_c   3.51447500
_cell_angle_alpha   90.00000000
_cell_angle_beta   90.00000000
_cell_angle_gamma   120.00001057
_symmetry_Int_Tables_number   1
_chemical_formula_structural   Hf6FeSnSb
_chemical_formula_sum   'Hf6 Fe1 Sn1 Sb1'
_cell_volume   187.37609850
_cell_formula_units_Z   1
loop_
 _symmetry_equiv_pos_site_id
 _symmetry_equiv_pos_as_xyz
  1  'x, y, z'
loop_
 _atom_site_type_symbol
 _atom_site_label
 _atom_site_symmetry_multiplicity
 _atom_site_fract_x
 _atom_site_fract_y
 _atom_site_fract_z
 _atom_site_occupancy
  Hf  Hf0  1  0.239847  0.999168  0.500000  1
  Hf  Hf1  1  0.000832  0.240679  0.500000  1
  Hf  Hf2  1  0.759321  0.760153  0.500000  1
  Hf  Hf3  1  0.611281  0.004203  0.000000  1
  Hf  Hf4  1  0.995797  0.607078  0.000000  1
  Hf  Hf5  1  0.392922  0.388719  0.000000  1
  Fe  Fe6  1  0.000000  0.000000  0.000000  1
  Sn  Sn7  1  0.333333  0.666667  0.500000  1
  Sb  Sb8  1  0.666667  0.333333  0.500000  1
