# generated using pymatgen
data_Tb3CdSnHgPdPt2
_symmetry_space_group_name_H-M   'P 1'
_cell_length_a   7.77347687
_cell_length_b   7.84335724
_cell_length_c   3.76509400
_cell_angle_alpha   90.00000000
_cell_angle_beta   90.00000000
_cell_angle_gamma   120.23008474
_symmetry_Int_Tables_number   1
_chemical_formula_structural   Tb3CdSnHgPdPt2
_chemical_formula_sum   'Tb3 Cd1 Sn1 Hg1 Pd1 Pt2'
_cell_volume   198.34085450
_cell_formula_units_Z   1
loop_
 _symmetry_equiv_pos_site_id
 _symmetry_equiv_pos_as_xyz
  1  'x, y, z'
loop_
 _atom_site_type_symbol
 _atom_site_label
 _atom_site_symmetry_multiplicity
 _atom_site_fract_x
 _atom_site_fract_y
 _atom_site_fract_z
 _atom_site_occupancy
  Tb  Tb0  1  0.600123  0.002418  0.000000  1
  Tb  Tb1  1  0.996698  0.585195  0.000000  1
  Tb  Tb2  1  0.402967  0.408613  0.000000  1
  Cd  Cd3  1  0.738818  0.736613  0.500000  1
  Sn  Sn4  1  0.258251  0.997463  0.500000  1
  Hg  Hg5  1  0.000193  0.265256  0.500000  1
  Pd  Pd6  1  0.009684  0.996418  0.000000  1
  Pt  Pt7  1  0.337773  0.677690  0.500000  1
  Pt  Pt8  1  0.655491  0.330336  0.500000  1
