# generated using pymatgen
data_Tb3Dy4CoI12
_symmetry_space_group_name_H-M   'P 1'
_cell_length_a   9.76483126
_cell_length_b   9.76483077
_cell_length_c   9.76483115
_cell_angle_alpha   106.86158868
_cell_angle_beta   106.86159060
_cell_angle_gamma   106.86158608
_symmetry_Int_Tables_number   1
_chemical_formula_structural   Tb3Dy4CoI12
_chemical_formula_sum   'Tb3 Dy4 Co1 I12'
_cell_volume   778.33441945
_cell_formula_units_Z   1
loop_
 _symmetry_equiv_pos_site_id
 _symmetry_equiv_pos_as_xyz
  1  'x, y, z'
loop_
 _atom_site_type_symbol
 _atom_site_label
 _atom_site_symmetry_multiplicity
 _atom_site_fract_x
 _atom_site_fract_y
 _atom_site_fract_z
 _atom_site_occupancy
  Tb  Tb0  1  0.977984  0.907849  0.711377  1
  Tb  Tb1  1  0.907849  0.711377  0.977984  1
  Tb  Tb2  1  0.711377  0.977984  0.907849  1
  Dy  Dy3  1  0.500005  0.500005  0.500005  1
  Dy  Dy4  1  0.022295  0.092103  0.287923  1
  Dy  Dy5  1  0.092103  0.287923  0.022295  1
  Dy  Dy6  1  0.287923  0.022295  0.092103  1
  Co  Co7  1  0.000338  0.000338  0.000338  1
  I  I8  1  0.161131  0.463791  0.386765  1
  I  I9  1  0.463791  0.386765  0.161131  1
  I  I10  1  0.386765  0.161131  0.463791  1
  I  I11  1  0.838825  0.535951  0.613054  1
  I  I12  1  0.535951  0.613054  0.838825  1
  I  I13  1  0.613054  0.838825  0.535951  1
  I  I14  1  0.678195  0.071965  0.225424  1
  I  I15  1  0.071965  0.225424  0.678195  1
  I  I16  1  0.225424  0.678195  0.071965  1
  I  I17  1  0.321907  0.928132  0.774985  1
  I  I18  1  0.928132  0.774985  0.321907  1
  I  I19  1  0.774985  0.321907  0.928132  1
