# generated using pymatgen
data_Zn6RePN8
_symmetry_space_group_name_H-M   'P 1'
_cell_length_a   6.42290700
_cell_length_b   5.57012511
_cell_length_c   5.28932297
_cell_angle_alpha   89.87868611
_cell_angle_beta   90.00000000
_cell_angle_gamma   90.00000000
_symmetry_Int_Tables_number   1
_chemical_formula_structural   Zn6RePN8
_chemical_formula_sum   'Zn6 Re1 P1 N8'
_cell_volume   189.23248682
_cell_formula_units_Z   1
loop_
 _symmetry_equiv_pos_site_id
 _symmetry_equiv_pos_as_xyz
  1  'x, y, z'
loop_
 _atom_site_type_symbol
 _atom_site_label
 _atom_site_symmetry_multiplicity
 _atom_site_fract_x
 _atom_site_fract_y
 _atom_site_fract_z
 _atom_site_occupancy
  Zn  Zn0  1  0.233148  0.822921  0.736834  1
  Zn  Zn1  1  0.229037  0.163994  0.226691  1
  Zn  Zn2  1  0.766852  0.822921  0.736834  1
  Zn  Zn3  1  0.770963  0.163994  0.226691  1
  Zn  Zn4  1  0.000000  0.359658  0.735578  1
  Zn  Zn5  1  0.500000  0.678870  0.225225  1
  Re  Re6  1  0.500000  0.324807  0.731476  1
  P  P7  1  0.000000  0.670735  0.228642  1
  N  N8  1  0.785547  0.814625  0.120716  1
  N  N9  1  0.736331  0.172496  0.615985  1
  N  N10  1  0.214453  0.814625  0.120716  1
  N  N11  1  0.263669  0.172496  0.615985  1
  N  N12  1  0.000000  0.389651  0.117648  1
  N  N13  1  0.500000  0.637766  0.620418  1
  N  N14  1  0.000000  0.671534  0.542153  1
  N  N15  1  0.500000  0.318907  0.076923  1
