# generated using pymatgen
data_B12HN2
_symmetry_space_group_name_H-M   'P 1'
_cell_length_a   5.10259700
_cell_length_b   5.10259736
_cell_length_c   5.10259660
_cell_angle_alpha   64.70383026
_cell_angle_beta   64.70383329
_cell_angle_gamma   64.70383562
_symmetry_Int_Tables_number   1
_chemical_formula_structural   B12HN2
_chemical_formula_sum   'B12 H1 N2'
_cell_volume   103.61615901
_cell_formula_units_Z   1
loop_
 _symmetry_equiv_pos_site_id
 _symmetry_equiv_pos_as_xyz
  1  'x, y, z'
loop_
 _atom_site_type_symbol
 _atom_site_label
 _atom_site_symmetry_multiplicity
 _atom_site_fract_x
 _atom_site_fract_y
 _atom_site_fract_z
 _atom_site_occupancy
  B  B0  1  0.673371  0.203489  0.203489  1
  B  B1  1  0.203489  0.203489  0.673371  1
  B  B2  1  0.203489  0.673371  0.203489  1
  B  B3  1  0.796511  0.326629  0.796511  1
  B  B4  1  0.326629  0.796511  0.796511  1
  B  B5  1  0.796511  0.796511  0.326629  1
  B  B6  1  0.668069  0.997012  0.997012  1
  B  B7  1  0.997012  0.997012  0.668069  1
  B  B8  1  0.997012  0.668069  0.997012  1
  B  B9  1  0.002988  0.331931  0.002988  1
  B  B10  1  0.331931  0.002988  0.002988  1
  B  B11  1  0.002988  0.002988  0.331931  1
  H  H12  1  0.500000  0.500000  0.500000  1
  N  N13  1  0.610824  0.610824  0.610824  1
  N  N14  1  0.389176  0.389176  0.389176  1
