# generated using pymatgen
data_Tb7Y6Th3(CdIr)4
_symmetry_space_group_name_H-M   'P 1'
_cell_length_a   9.75414892
_cell_length_b   9.75654751
_cell_length_c   9.75654900
_cell_angle_alpha   59.99999835
_cell_angle_beta   59.99186356
_cell_angle_gamma   59.99187063
_symmetry_Int_Tables_number   1
_chemical_formula_structural   Tb7Y6Th3(CdIr)4
_chemical_formula_sum   'Tb7 Y6 Th3 Cd4 Ir4'
_cell_volume   656.46771798
_cell_formula_units_Z   1
loop_
 _symmetry_equiv_pos_site_id
 _symmetry_equiv_pos_as_xyz
  1  'x, y, z'
loop_
 _atom_site_type_symbol
 _atom_site_label
 _atom_site_symmetry_multiplicity
 _atom_site_fract_x
 _atom_site_fract_y
 _atom_site_fract_z
 _atom_site_occupancy
  Tb  Tb0  1  0.948714  0.350429  0.350429  1
  Tb  Tb1  1  0.811198  0.189816  0.189816  1
  Tb  Tb2  1  0.188828  0.811593  0.811593  1
  Tb  Tb3  1  0.188828  0.811593  0.187986  1
  Tb  Tb4  1  0.811198  0.189816  0.809170  1
  Tb  Tb5  1  0.188828  0.187986  0.811593  1
  Tb  Tb6  1  0.811198  0.809170  0.189816  1
  Y  Y7  1  0.936525  0.563560  0.563560  1
  Y  Y8  1  0.564175  0.935668  0.935668  1
  Y  Y9  1  0.564175  0.935668  0.564488  1
  Y  Y10  1  0.936525  0.563560  0.936355  1
  Y  Y11  1  0.564175  0.564488  0.935668  1
  Y  Y12  1  0.936525  0.936355  0.563560  1
  Th  Th13  1  0.347191  0.349472  0.349472  1
  Th  Th14  1  0.347191  0.349472  0.953866  1
  Th  Th15  1  0.347191  0.953866  0.349472  1
  Cd  Cd16  1  0.583843  0.581349  0.581349  1
  Cd  Cd17  1  0.583843  0.581349  0.253460  1
  Cd  Cd18  1  0.583843  0.253460  0.581349  1
  Cd  Cd19  1  0.251351  0.582883  0.582883  1
  Ir  Ir20  1  0.144763  0.141702  0.141702  1
  Ir  Ir21  1  0.144763  0.141702  0.571833  1
  Ir  Ir22  1  0.144763  0.571833  0.141702  1
  Ir  Ir23  1  0.570372  0.143209  0.143209  1
