# generated using pymatgen
data_KSb3(SeO6)2
_symmetry_space_group_name_H-M   'P 1'
_cell_length_a   7.28876300
_cell_length_b   7.28876282
_cell_length_c   12.39502100
_cell_angle_alpha   90.00000000
_cell_angle_beta   90.00000000
_cell_angle_gamma   119.99999628
_symmetry_Int_Tables_number   1
_chemical_formula_structural   KSb3(SeO6)2
_chemical_formula_sum   'K2 Sb6 Se4 O24'
_cell_volume   570.27661374
_cell_formula_units_Z   2
loop_
 _symmetry_equiv_pos_site_id
 _symmetry_equiv_pos_as_xyz
  1  'x, y, z'
loop_
 _atom_site_type_symbol
 _atom_site_label
 _atom_site_symmetry_multiplicity
 _atom_site_fract_x
 _atom_site_fract_y
 _atom_site_fract_z
 _atom_site_occupancy
  K  K0  1  0.333333  0.666667  0.906576  1
  K  K1  1  0.666667  0.333333  0.406576  1
  Sb  Sb2  1  0.833128  0.166177  0.786132  1
  Sb  Sb3  1  0.666950  0.833128  0.286132  1
  Sb  Sb4  1  0.166177  0.333050  0.286132  1
  Sb  Sb5  1  0.833823  0.666950  0.786132  1
  Sb  Sb6  1  0.333050  0.166872  0.786132  1
  Sb  Sb7  1  0.166872  0.833823  0.286132  1
  Se  Se8  1  0.333333  0.666667  0.509373  1
  Se  Se9  1  0.666667  0.333333  0.009373  1
  Se  Se10  1  0.000000  0.000000  0.066711  1
  Se  Se11  1  0.000000  0.000000  0.566711  1
  O  O12  1  0.791630  0.208196  0.950920  1
  O  O13  1  0.583434  0.791630  0.450920  1
  O  O14  1  0.208196  0.416566  0.450920  1
  O  O15  1  0.791804  0.583434  0.950920  1
  O  O16  1  0.416566  0.208370  0.950920  1
  O  O17  1  0.208370  0.791804  0.450920  1
  O  O18  1  0.875122  0.126023  0.625780  1
  O  O19  1  0.749098  0.875122  0.125780  1
  O  O20  1  0.126023  0.250902  0.125780  1
  O  O21  1  0.873977  0.749098  0.625780  1
  O  O22  1  0.250902  0.124878  0.625780  1
  O  O23  1  0.124878  0.873977  0.125780  1
  O  O24  1  0.738275  0.868976  0.826646  1
  O  O25  1  0.869299  0.738275  0.326646  1
  O  O26  1  0.868976  0.130701  0.326646  1
  O  O27  1  0.131024  0.869299  0.826646  1
  O  O28  1  0.130701  0.261725  0.826646  1
  O  O29  1  0.261725  0.131024  0.326646  1
  O  O30  1  0.531721  0.063996  0.755320  1
  O  O31  1  0.467724  0.531721  0.255320  1
  O  O32  1  0.063996  0.532276  0.255320  1
  O  O33  1  0.936004  0.467724  0.755320  1
  O  O34  1  0.532276  0.468279  0.755320  1
  O  O35  1  0.468279  0.936004  0.255320  1
