# generated using pymatgen
data_Tb2Co9P7W3
_symmetry_space_group_name_H-M   'P 1'
_cell_length_a   3.73442700
_cell_length_b   9.08834078
_cell_length_c   9.09092802
_cell_angle_alpha   120.00905141
_cell_angle_beta   90.00000000
_cell_angle_gamma   90.00000000
_symmetry_Int_Tables_number   1
_chemical_formula_structural   Tb2Co9P7W3
_chemical_formula_sum   'Tb2 Co9 P7 W3'
_cell_volume   267.18237743
_cell_formula_units_Z   1
loop_
 _symmetry_equiv_pos_site_id
 _symmetry_equiv_pos_as_xyz
  1  'x, y, z'
loop_
 _atom_site_type_symbol
 _atom_site_label
 _atom_site_symmetry_multiplicity
 _atom_site_fract_x
 _atom_site_fract_y
 _atom_site_fract_z
 _atom_site_occupancy
  Tb  Tb0  1  0.000000  0.666670  0.333375  1
  Tb  Tb1  1  0.500000  0.333414  0.666734  1
  Co  Co2  1  0.000000  0.369295  0.937691  1
  Co  Co3  1  0.000000  0.062366  0.431638  1
  Co  Co4  1  0.000000  0.568424  0.630687  1
  Co  Co5  1  0.000000  0.879585  0.720947  1
  Co  Co6  1  0.000000  0.278939  0.158571  1
  Co  Co7  1  0.000000  0.841373  0.120332  1
  Co  Co8  1  0.500000  0.948713  0.564392  1
  Co  Co9  1  0.500000  0.435617  0.384375  1
  Co  Co10  1  0.500000  0.615644  0.051283  1
  P  P11  1  0.000000  0.110876  0.697133  1
  P  P12  1  0.000000  0.302911  0.413775  1
  P  P13  1  0.000000  0.586243  0.889138  1
  P  P14  1  0.500000  0.707505  0.588513  1
  P  P15  1  0.500000  0.411415  0.118933  1
  P  P16  1  0.500000  0.881030  0.292489  1
  P  P17  1  0.000000  0.000023  0.999984  1
  W  W18  1  0.500000  0.123103  0.903129  1
  W  W19  1  0.500000  0.096864  0.219974  1
  W  W20  1  0.500000  0.779991  0.876904  1
