# generated using pymatgen
data_HoTh2(MgPt)3
_symmetry_space_group_name_H-M   'P 1'
_cell_length_a   7.62455296
_cell_length_b   7.58790561
_cell_length_c   4.00901500
_cell_angle_alpha   90.00000000
_cell_angle_beta   90.00000000
_cell_angle_gamma   119.84113526
_symmetry_Int_Tables_number   1
_chemical_formula_structural   HoTh2(MgPt)3
_chemical_formula_sum   'Ho1 Th2 Mg3 Pt3'
_cell_volume   201.18593900
_cell_formula_units_Z   1
loop_
 _symmetry_equiv_pos_site_id
 _symmetry_equiv_pos_as_xyz
  1  'x, y, z'
loop_
 _atom_site_type_symbol
 _atom_site_label
 _atom_site_symmetry_multiplicity
 _atom_site_fract_x
 _atom_site_fract_y
 _atom_site_fract_z
 _atom_site_occupancy
  Ho  Ho0  1  0.000000  0.591354  0.500000  1
  Th  Th1  1  0.580687  0.997108  0.500000  1
  Th  Th2  1  0.419313  0.416420  0.500000  1
  Mg  Mg3  1  0.767795  0.758940  0.000000  1
  Mg  Mg4  1  0.000000  0.250440  0.000000  1
  Mg  Mg5  1  0.232205  0.991145  0.000000  1
  Pt  Pt6  1  0.342674  0.666792  0.000000  1
  Pt  Pt7  1  0.657326  0.324117  0.000000  1
  Pt  Pt8  1  0.000000  0.003682  0.500000  1
