# generated using pymatgen
data_KRbSnBi3
_symmetry_space_group_name_H-M   'P 1'
_cell_length_a   6.63742638
_cell_length_b   6.63742733
_cell_length_c   6.63742726
_cell_angle_alpha   62.27048681
_cell_angle_beta   62.27048201
_cell_angle_gamma   62.27047871
_symmetry_Int_Tables_number   1
_chemical_formula_structural   KRbSnBi3
_chemical_formula_sum   'K1 Rb1 Sn1 Bi3'
_cell_volume   217.24846195
_cell_formula_units_Z   1
loop_
 _symmetry_equiv_pos_site_id
 _symmetry_equiv_pos_as_xyz
  1  'x, y, z'
loop_
 _atom_site_type_symbol
 _atom_site_label
 _atom_site_symmetry_multiplicity
 _atom_site_fract_x
 _atom_site_fract_y
 _atom_site_fract_z
 _atom_site_occupancy
  K  K0  1  0.749799  0.749799  0.749799  1
  Rb  Rb1  1  0.501153  0.501153  0.501153  1
  Sn  Sn2  1  0.125424  0.125424  0.125424  1
  Bi  Bi3  1  0.624141  0.124742  0.124742  1
  Bi  Bi4  1  0.124742  0.124742  0.624141  1
  Bi  Bi5  1  0.124742  0.624141  0.124742  1
