# generated using pymatgen
data_Zr5GaSnSb2
_symmetry_space_group_name_H-M   'P 1'
_cell_length_a   8.70714500
_cell_length_b   8.69869947
_cell_length_c   5.89389700
_cell_angle_alpha   90.00000000
_cell_angle_beta   90.00000000
_cell_angle_gamma   120.03211074
_symmetry_Int_Tables_number   1
_chemical_formula_structural   Zr5GaSnSb2
_chemical_formula_sum   'Zr10 Ga2 Sn2 Sb4'
_cell_volume   386.47611801
_cell_formula_units_Z   2
loop_
 _symmetry_equiv_pos_site_id
 _symmetry_equiv_pos_as_xyz
  1  'x, y, z'
loop_
 _atom_site_type_symbol
 _atom_site_label
 _atom_site_symmetry_multiplicity
 _atom_site_fract_x
 _atom_site_fract_y
 _atom_site_fract_z
 _atom_site_occupancy
  Zr  Zr0  1  0.000447  0.265241  0.250000  1
  Zr  Zr1  1  0.730669  0.000000  0.750000  1
  Zr  Zr2  1  0.735206  0.734759  0.250000  1
  Zr  Zr3  1  0.665947  0.332432  0.500949  1
  Zr  Zr4  1  0.000622  0.732798  0.750000  1
  Zr  Zr5  1  0.267824  0.267202  0.750000  1
  Zr  Zr6  1  0.333514  0.667568  0.999051  1
  Zr  Zr7  1  0.665947  0.332432  0.999051  1
  Zr  Zr8  1  0.333514  0.667568  0.500949  1
  Zr  Zr9  1  0.265501  0.000000  0.250000  1
  Ga  Ga10  1  0.998992  0.000000  0.997060  1
  Ga  Ga11  1  0.998992  0.000000  0.502940  1
  Sn  Sn12  1  0.999821  0.386926  0.750000  1
  Sn  Sn13  1  0.612895  0.613074  0.750000  1
  Sb  Sb14  1  0.610795  0.000000  0.250000  1
  Sb  Sb15  1  0.388637  0.000000  0.750000  1
  Sb  Sb16  1  0.391349  0.392017  0.250000  1
  Sb  Sb17  1  0.999332  0.607983  0.250000  1
