# generated using pymatgen
data_Ta10Al3Ru2
_symmetry_space_group_name_H-M   'P 1'
_cell_length_a   9.88488100
_cell_length_b   9.88488100
_cell_length_c   5.20877600
_cell_angle_alpha   90.00000000
_cell_angle_beta   90.00000000
_cell_angle_gamma   90.00000000
_symmetry_Int_Tables_number   1
_chemical_formula_structural   Ta10Al3Ru2
_chemical_formula_sum   'Ta20 Al6 Ru4'
_cell_volume   508.95404701
_cell_formula_units_Z   2
loop_
 _symmetry_equiv_pos_site_id
 _symmetry_equiv_pos_as_xyz
  1  'x, y, z'
loop_
 _atom_site_type_symbol
 _atom_site_label
 _atom_site_symmetry_multiplicity
 _atom_site_fract_x
 _atom_site_fract_y
 _atom_site_fract_z
 _atom_site_occupancy
  Ta  Ta0  1  0.398377  0.393563  0.000000  1
  Ta  Ta1  1  0.893563  0.101623  0.500000  1
  Ta  Ta2  1  0.106437  0.898377  0.500000  1
  Ta  Ta3  1  0.601623  0.606437  0.000000  1
  Ta  Ta4  1  0.130024  0.462539  0.000000  1
  Ta  Ta5  1  0.962539  0.369976  0.500000  1
  Ta  Ta6  1  0.037461  0.630024  0.500000  1
  Ta  Ta7  1  0.869976  0.537461  0.000000  1
  Ta  Ta8  1  0.372835  0.965032  0.500000  1
  Ta  Ta9  1  0.627165  0.034968  0.500000  1
  Ta  Ta10  1  0.465032  0.127165  0.000000  1
  Ta  Ta11  1  0.534968  0.872835  0.000000  1
  Ta  Ta12  1  0.184337  0.182045  0.250762  1
  Ta  Ta13  1  0.682045  0.315663  0.750762  1
  Ta  Ta14  1  0.317955  0.684337  0.750762  1
  Ta  Ta15  1  0.815663  0.817955  0.250762  1
  Ta  Ta16  1  0.317955  0.684337  0.249238  1
  Ta  Ta17  1  0.682045  0.315663  0.249238  1
  Ta  Ta18  1  0.184337  0.182045  0.749238  1
  Ta  Ta19  1  0.815663  0.817955  0.749238  1
  Al  Al20  1  0.000000  0.000000  0.000000  1
  Al  Al21  1  0.500000  0.500000  0.500000  1
  Al  Al22  1  0.241532  0.432619  0.500000  1
  Al  Al23  1  0.758468  0.567381  0.500000  1
  Al  Al24  1  0.932619  0.258468  0.000000  1
  Al  Al25  1  0.067381  0.741532  0.000000  1
  Ru  Ru26  1  0.257031  0.933188  0.000000  1
  Ru  Ru27  1  0.433188  0.242969  0.500000  1
  Ru  Ru28  1  0.566812  0.757031  0.500000  1
  Ru  Ru29  1  0.742969  0.066812  0.000000  1
