# generated using pymatgen
data_Li2Sn3RuS8
_symmetry_space_group_name_H-M   'P 1'
_cell_length_a   7.48515156
_cell_length_b   7.48515217
_cell_length_c   7.48515147
_cell_angle_alpha   60.28394408
_cell_angle_beta   60.28394141
_cell_angle_gamma   60.28394847
_symmetry_Int_Tables_number   1
_chemical_formula_structural   Li2Sn3RuS8
_chemical_formula_sum   'Li2 Sn3 Ru1 S8'
_cell_volume   298.44803424
_cell_formula_units_Z   1
loop_
 _symmetry_equiv_pos_site_id
 _symmetry_equiv_pos_as_xyz
  1  'x, y, z'
loop_
 _atom_site_type_symbol
 _atom_site_label
 _atom_site_symmetry_multiplicity
 _atom_site_fract_x
 _atom_site_fract_y
 _atom_site_fract_z
 _atom_site_occupancy
  Li  Li0  1  0.380603  0.380603  0.380603  1
  Li  Li1  1  0.619397  0.619397  0.619397  1
  Sn  Sn2  1  0.000000  0.500000  0.000000  1
  Sn  Sn3  1  0.000000  0.000000  0.500000  1
  Sn  Sn4  1  0.500000  0.000000  0.000000  1
  Ru  Ru5  1  0.000000  0.000000  0.000000  1
  S  S6  1  0.773572  0.214323  0.773572  1
  S  S7  1  0.750782  0.750782  0.750782  1
  S  S8  1  0.785677  0.226428  0.226428  1
  S  S9  1  0.226428  0.226428  0.785677  1
  S  S10  1  0.226428  0.785677  0.226428  1
  S  S11  1  0.249218  0.249218  0.249218  1
  S  S12  1  0.214323  0.773572  0.773572  1
  S  S13  1  0.773572  0.773572  0.214323  1
