# generated using pymatgen
data_TbDy5(CoSn6)2
_symmetry_space_group_name_H-M   'P 1'
_cell_length_a   8.50018038
_cell_length_b   8.50018162
_cell_length_c   13.13199911
_cell_angle_alpha   90.00068183
_cell_angle_beta   89.99931869
_cell_angle_gamma   148.92078000
_symmetry_Int_Tables_number   1
_chemical_formula_structural   TbDy5(CoSn6)2
_chemical_formula_sum   'Tb1 Dy5 Co2 Sn12'
_cell_volume   489.80625514
_cell_formula_units_Z   1
loop_
 _symmetry_equiv_pos_site_id
 _symmetry_equiv_pos_as_xyz
  1  'x, y, z'
loop_
 _atom_site_type_symbol
 _atom_site_label
 _atom_site_symmetry_multiplicity
 _atom_site_fract_x
 _atom_site_fract_y
 _atom_site_fract_z
 _atom_site_occupancy
  Tb  Tb0  1  0.899177  0.100823  0.406208  1
  Dy  Dy1  1  0.898990  0.101010  0.093735  1
  Dy  Dy2  1  0.101215  0.898785  0.594310  1
  Dy  Dy3  1  0.899664  0.100336  0.749940  1
  Dy  Dy4  1  0.100942  0.899058  0.905930  1
  Dy  Dy5  1  0.100060  0.899940  0.249940  1
  Co  Co6  1  0.300345  0.699655  0.249770  1
  Co  Co7  1  0.699247  0.300753  0.750190  1
  Sn  Sn8  1  0.755831  0.244169  0.572000  1
  Sn  Sn9  1  0.427684  0.572316  0.575768  1
  Sn  Sn10  1  0.572983  0.427017  0.424566  1
  Sn  Sn11  1  0.734023  0.265977  0.249939  1
  Sn  Sn12  1  0.265655  0.734345  0.750080  1
  Sn  Sn13  1  0.243919  0.756081  0.071660  1
  Sn  Sn14  1  0.243885  0.756115  0.428158  1
  Sn  Sn15  1  0.572976  0.427024  0.075469  1
  Sn  Sn16  1  0.454651  0.545349  0.249736  1
  Sn  Sn17  1  0.545134  0.454866  0.750011  1
  Sn  Sn18  1  0.756046  0.243954  0.928166  1
  Sn  Sn19  1  0.427576  0.572424  0.924424  1
