# generated using pymatgen
data_YTm(Si2Rh3)2
_symmetry_space_group_name_H-M   'P 1'
_cell_length_a   6.62393708
_cell_length_b   6.62393725
_cell_length_c   6.62393824
_cell_angle_alpha   130.45741512
_cell_angle_beta   114.11636104
_cell_angle_gamma   86.70518536
_symmetry_Int_Tables_number   1
_chemical_formula_structural   YTm(Si2Rh3)2
_chemical_formula_sum   'Y1 Tm1 Si4 Rh6'
_cell_volume   192.60541931
_cell_formula_units_Z   1
loop_
 _symmetry_equiv_pos_site_id
 _symmetry_equiv_pos_as_xyz
  1  'x, y, z'
loop_
 _atom_site_type_symbol
 _atom_site_label
 _atom_site_symmetry_multiplicity
 _atom_site_fract_x
 _atom_site_fract_y
 _atom_site_fract_z
 _atom_site_occupancy
  Y  Y0  1  0.750000  0.460924  0.710924  1
  Tm  Tm1  1  0.250000  0.549386  0.299386  1
  Si  Si2  1  0.078617  0.883595  0.804979  1
  Si  Si3  1  0.921335  0.117048  0.195712  1
  Si  Si4  1  0.578665  0.774377  0.195712  1
  Si  Si5  1  0.421383  0.226362  0.804979  1
  Rh  Rh6  1  0.712919  0.995133  0.711791  1
  Rh  Rh7  1  0.216658  0.498872  0.711791  1
  Rh  Rh8  1  0.283342  0.995133  0.282213  1
  Rh  Rh9  1  0.787081  0.498872  0.282213  1
  Rh  Rh10  1  0.001089  0.000149  0.501238  1
  Rh  Rh11  1  0.498911  0.000149  0.999061  1
