# generated using pymatgen
data_Tb4CeDy3(ReB6)4
_symmetry_space_group_name_H-M   'P 1'
_cell_length_a   3.70655900
_cell_length_b   9.20217857
_cell_length_c   11.59068006
_cell_angle_alpha   90.05641004
_cell_angle_beta   90.00000000
_cell_angle_gamma   90.00000000
_symmetry_Int_Tables_number   1
_chemical_formula_structural   Tb4CeDy3(ReB6)4
_chemical_formula_sum   'Tb4 Ce1 Dy3 Re4 B24'
_cell_volume   395.33956660
_cell_formula_units_Z   1
loop_
 _symmetry_equiv_pos_site_id
 _symmetry_equiv_pos_as_xyz
  1  'x, y, z'
loop_
 _atom_site_type_symbol
 _atom_site_label
 _atom_site_symmetry_multiplicity
 _atom_site_fract_x
 _atom_site_fract_y
 _atom_site_fract_z
 _atom_site_occupancy
  Tb  Tb0  1  0.000000  0.677240  0.586661  1
  Tb  Tb1  1  0.000000  0.823236  0.085436  1
  Tb  Tb2  1  0.000000  0.176324  0.913961  1
  Tb  Tb3  1  0.000000  0.942207  0.369943  1
  Ce  Ce4  1  0.000000  0.323191  0.414150  1
  Dy  Dy5  1  0.000000  0.057096  0.630658  1
  Dy  Dy6  1  0.000000  0.442744  0.129196  1
  Dy  Dy7  1  0.000000  0.557563  0.870119  1
  Re  Re8  1  0.000000  0.636796  0.321341  1
  Re  Re9  1  0.000000  0.362170  0.678451  1
  Re  Re10  1  0.000000  0.138993  0.179440  1
  Re  Re11  1  0.000000  0.862178  0.820808  1
  B  B12  1  0.500000  0.553232  0.432193  1
  B  B13  1  0.500000  0.446319  0.567844  1
  B  B14  1  0.500000  0.053212  0.067025  1
  B  B15  1  0.500000  0.946904  0.932779  1
  B  B16  1  0.500000  0.748414  0.417975  1
  B  B17  1  0.500000  0.251655  0.582701  1
  B  B18  1  0.500000  0.248379  0.081332  1
  B  B19  1  0.500000  0.751415  0.918146  1
  B  B20  1  0.500000  0.790817  0.265485  1
  B  B21  1  0.500000  0.208980  0.734949  1
  B  B22  1  0.500000  0.290877  0.233884  1
  B  B23  1  0.500000  0.708722  0.765663  1
  B  B24  1  0.500000  0.630783  0.185296  1
  B  B25  1  0.500000  0.369882  0.814320  1
  B  B26  1  0.500000  0.130853  0.313534  1
  B  B27  1  0.500000  0.869430  0.686152  1
  B  B28  1  0.500000  0.982603  0.211427  1
  B  B29  1  0.500000  0.017456  0.788266  1
  B  B30  1  0.500000  0.483247  0.287504  1
  B  B31  1  0.500000  0.517776  0.712640  1
  B  B32  1  0.500000  0.600665  0.027929  1
  B  B33  1  0.500000  0.399690  0.971517  1
  B  B34  1  0.500000  0.100376  0.472330  1
  B  B35  1  0.500000  0.898574  0.528945  1
