# generated using pymatgen
data_NpMn(FeAs4)3
_symmetry_space_group_name_H-M   'P 1'
_cell_length_a   7.26774399
_cell_length_b   7.26774434
_cell_length_c   7.24701100
_cell_angle_alpha   109.41344722
_cell_angle_beta   109.41344819
_cell_angle_gamma   109.52893027
_symmetry_Int_Tables_number   1
_chemical_formula_structural   NpMn(FeAs4)3
_chemical_formula_sum   'Np1 Mn1 Fe3 As12'
_cell_volume   294.88009191
_cell_formula_units_Z   1
loop_
 _symmetry_equiv_pos_site_id
 _symmetry_equiv_pos_as_xyz
  1  'x, y, z'
loop_
 _atom_site_type_symbol
 _atom_site_label
 _atom_site_symmetry_multiplicity
 _atom_site_fract_x
 _atom_site_fract_y
 _atom_site_fract_z
 _atom_site_occupancy
  Np  Np0  1  0.000000  0.000000  0.000000  1
  Mn  Mn1  1  0.000000  0.000000  0.500000  1
  Fe  Fe2  1  0.500000  0.500000  0.500000  1
  Fe  Fe3  1  0.500000  0.000000  0.000000  1
  Fe  Fe4  1  0.000000  0.500000  0.000000  1
  As  As5  1  0.842637  0.653972  0.503808  1
  As  As6  1  0.157363  0.346028  0.496192  1
  As  As7  1  0.155680  0.660765  0.816680  1
  As  As8  1  0.844320  0.339235  0.183320  1
  As  As9  1  0.660765  0.505085  0.844085  1
  As  As10  1  0.339235  0.494915  0.155915  1
  As  As11  1  0.653972  0.811334  0.150163  1
  As  As12  1  0.346028  0.188666  0.849837  1
  As  As13  1  0.505085  0.844320  0.661001  1
  As  As14  1  0.494915  0.155680  0.338999  1
  As  As15  1  0.811334  0.157363  0.661170  1
  As  As16  1  0.188666  0.842637  0.338830  1
