# generated using pymatgen
data_DySeBrO3
_symmetry_space_group_name_H-M   'P 1'
_cell_length_a   6.98396500
_cell_length_b   7.63864100
_cell_length_c   9.04475800
_cell_angle_alpha   90.00000000
_cell_angle_beta   90.00000000
_cell_angle_gamma   90.00000000
_symmetry_Int_Tables_number   1
_chemical_formula_structural   DySeBrO3
_chemical_formula_sum   'Dy4 Se4 Br4 O12'
_cell_volume   482.51976237
_cell_formula_units_Z   4
loop_
 _symmetry_equiv_pos_site_id
 _symmetry_equiv_pos_as_xyz
  1  'x, y, z'
loop_
 _atom_site_type_symbol
 _atom_site_label
 _atom_site_symmetry_multiplicity
 _atom_site_fract_x
 _atom_site_fract_y
 _atom_site_fract_z
 _atom_site_occupancy
  Dy  Dy0  1  0.250000  0.895010  0.026837  1
  Dy  Dy1  1  0.750000  0.104990  0.973163  1
  Dy  Dy2  1  0.750000  0.604990  0.526837  1
  Dy  Dy3  1  0.250000  0.395010  0.473163  1
  Se  Se4  1  0.250000  0.782001  0.627429  1
  Se  Se5  1  0.750000  0.217999  0.372571  1
  Se  Se6  1  0.750000  0.717999  0.127429  1
  Se  Se7  1  0.250000  0.282001  0.872571  1
  Br  Br8  1  0.250000  0.555027  0.177983  1
  Br  Br9  1  0.750000  0.444973  0.822017  1
  Br  Br10  1  0.750000  0.944973  0.677983  1
  Br  Br11  1  0.250000  0.055027  0.322017  1
  O  O12  1  0.072419  0.635208  0.567545  1
  O  O13  1  0.927581  0.364792  0.432455  1
  O  O14  1  0.927581  0.864792  0.067545  1
  O  O15  1  0.572419  0.364792  0.432455  1
  O  O16  1  0.072419  0.135208  0.932455  1
  O  O17  1  0.427581  0.635208  0.567545  1
  O  O18  1  0.427581  0.135208  0.932455  1
  O  O19  1  0.572419  0.864792  0.067545  1
  O  O20  1  0.250000  0.753454  0.814131  1
  O  O21  1  0.750000  0.246546  0.185869  1
  O  O22  1  0.750000  0.746546  0.314131  1
  O  O23  1  0.250000  0.253454  0.685869  1
