# generated using pymatgen
data_HoTm7In3Ru
_symmetry_space_group_name_H-M   'P 1'
_cell_length_a   10.27945748
_cell_length_b   10.27945801
_cell_length_c   7.00019613
_cell_angle_alpha   89.97111048
_cell_angle_beta   90.02889208
_cell_angle_gamma   120.03365447
_symmetry_Int_Tables_number   1
_chemical_formula_structural   HoTm7In3Ru
_chemical_formula_sum   'Ho2 Tm14 In6 Ru2'
_cell_volume   640.37415814
_cell_formula_units_Z   2
loop_
 _symmetry_equiv_pos_site_id
 _symmetry_equiv_pos_as_xyz
  1  'x, y, z'
loop_
 _atom_site_type_symbol
 _atom_site_label
 _atom_site_symmetry_multiplicity
 _atom_site_fract_x
 _atom_site_fract_y
 _atom_site_fract_z
 _atom_site_occupancy
  Ho  Ho0  1  0.532829  0.065717  0.515514  1
  Ho  Ho1  1  0.934283  0.467171  0.515514  1
  Tm  Tm2  1  0.533040  0.466960  0.515945  1
  Tm  Tm3  1  0.466439  0.932914  0.015746  1
  Tm  Tm4  1  0.067086  0.533561  0.015746  1
  Tm  Tm5  1  0.466693  0.533307  0.016100  1
  Tm  Tm6  1  0.177701  0.354753  0.719700  1
  Tm  Tm7  1  0.645247  0.822299  0.719700  1
  Tm  Tm8  1  0.177128  0.822872  0.719910  1
  Tm  Tm9  1  0.822508  0.645521  0.218829  1
  Tm  Tm10  1  0.354479  0.177492  0.218829  1
  Tm  Tm11  1  0.822932  0.177068  0.218483  1
  Tm  Tm12  1  0.666409  0.333591  0.896226  1
  Tm  Tm13  1  0.333594  0.666406  0.395579  1
  Tm  Tm14  1  0.999992  0.000008  0.499985  1
  Tm  Tm15  1  0.000056  0.999944  0.000252  1
  In  In16  1  0.836754  0.673999  0.762409  1
  In  In17  1  0.326001  0.163246  0.762409  1
  In  In18  1  0.837256  0.162744  0.763021  1
  In  In19  1  0.163181  0.326293  0.262274  1
  In  In20  1  0.673707  0.836819  0.262274  1
  In  In21  1  0.163110  0.836890  0.262293  1
  Ru  Ru22  1  0.666282  0.333718  0.290181  1
  Ru  Ru23  1  0.333296  0.666704  0.791080  1
