# generated using pymatgen
data_Mn2ReIr4W
_symmetry_space_group_name_H-M   'P 1'
_cell_length_a   5.42112000
_cell_length_b   5.45906664
_cell_length_c   4.32336900
_cell_angle_alpha   90.00000000
_cell_angle_beta   90.00000000
_cell_angle_gamma   119.77032387
_symmetry_Int_Tables_number   1
_chemical_formula_structural   Mn2ReIr4W
_chemical_formula_sum   'Mn2 Re1 Ir4 W1'
_cell_volume   111.06080708
_cell_formula_units_Z   1
loop_
 _symmetry_equiv_pos_site_id
 _symmetry_equiv_pos_as_xyz
  1  'x, y, z'
loop_
 _atom_site_type_symbol
 _atom_site_label
 _atom_site_symmetry_multiplicity
 _atom_site_fract_x
 _atom_site_fract_y
 _atom_site_fract_z
 _atom_site_occupancy
  Mn  Mn0  1  0.331012  0.662024  0.750000  1
  Mn  Mn1  1  0.664054  0.328107  0.250000  1
  Re  Re2  1  0.170849  0.341699  0.250000  1
  Ir  Ir3  1  0.658447  0.827524  0.250000  1
  Ir  Ir4  1  0.169077  0.827524  0.250000  1
  Ir  Ir5  1  0.339992  0.175981  0.750000  1
  Ir  Ir6  1  0.835990  0.175981  0.750000  1
  W  W7  1  0.830581  0.661161  0.750000  1
