# generated using pymatgen
data_Nd8GaPd23Pt
_symmetry_space_group_name_H-M   'P 1'
_cell_length_a   8.49499700
_cell_length_b   8.49323400
_cell_length_c   8.49614300
_cell_angle_alpha   90.00000000
_cell_angle_beta   90.00000000
_cell_angle_gamma   90.00000000
_symmetry_Int_Tables_number   1
_chemical_formula_structural   Nd8GaPd23Pt
_chemical_formula_sum   'Nd8 Ga1 Pd23 Pt1'
_cell_volume   612.99669494
_cell_formula_units_Z   1
loop_
 _symmetry_equiv_pos_site_id
 _symmetry_equiv_pos_as_xyz
  1  'x, y, z'
loop_
 _atom_site_type_symbol
 _atom_site_label
 _atom_site_symmetry_multiplicity
 _atom_site_fract_x
 _atom_site_fract_y
 _atom_site_fract_z
 _atom_site_occupancy
  Nd  Nd0  1  0.251449  0.251994  0.748267  1
  Nd  Nd1  1  0.251796  0.748259  0.251717  1
  Nd  Nd2  1  0.748204  0.251741  0.251717  1
  Nd  Nd3  1  0.748551  0.748006  0.748267  1
  Nd  Nd4  1  0.748204  0.748259  0.251717  1
  Nd  Nd5  1  0.748551  0.251994  0.748267  1
  Nd  Nd6  1  0.251449  0.748006  0.748267  1
  Nd  Nd7  1  0.251796  0.251741  0.251717  1
  Ga  Ga8  1  0.000000  0.000000  0.999923  1
  Pd  Pd9  1  0.500000  0.500000  0.746557  1
  Pd  Pd10  1  0.500000  0.253450  0.499906  1
  Pd  Pd11  1  0.253384  0.500000  0.500077  1
  Pd  Pd12  1  0.500000  0.500000  0.253470  1
  Pd  Pd13  1  0.500000  0.746550  0.499906  1
  Pd  Pd14  1  0.746616  0.500000  0.500077  1
  Pd  Pd15  1  0.000000  0.000000  0.706457  1
  Pd  Pd16  1  0.000000  0.293507  0.000015  1
  Pd  Pd17  1  0.293567  0.000000  0.000059  1
  Pd  Pd18  1  0.000000  0.000000  0.293529  1
  Pd  Pd19  1  0.000000  0.706493  0.000015  1
  Pd  Pd20  1  0.706433  0.000000  0.000059  1
  Pd  Pd21  1  0.500000  0.260735  0.000064  1
  Pd  Pd22  1  0.260757  0.000000  0.499876  1
  Pd  Pd23  1  0.000000  0.260752  0.500052  1
  Pd  Pd24  1  0.500000  0.000000  0.739244  1
  Pd  Pd25  1  0.260800  0.500000  0.000002  1
  Pd  Pd26  1  0.000000  0.500000  0.260697  1
  Pd  Pd27  1  0.500000  0.739265  0.000064  1
  Pd  Pd28  1  0.000000  0.739248  0.500052  1
  Pd  Pd29  1  0.500000  0.000000  0.260730  1
  Pd  Pd30  1  0.739243  0.000000  0.499876  1
  Pd  Pd31  1  0.739200  0.500000  0.000002  1
  Pt  Pt32  1  0.000000  0.500000  0.739356  1
