# generated using pymatgen
data_EuTmCo8(TcP3)2
_symmetry_space_group_name_H-M   'P 1'
_cell_length_a   3.71449500
_cell_length_b   10.41412300
_cell_length_c   11.84711900
_cell_angle_alpha   90.00000000
_cell_angle_beta   90.00000000
_cell_angle_gamma   90.00000000
_symmetry_Int_Tables_number   1
_chemical_formula_structural   EuTmCo8(TcP3)2
_chemical_formula_sum   'Eu2 Tm2 Co16 Tc4 P12'
_cell_volume   458.28456626
_cell_formula_units_Z   2
loop_
 _symmetry_equiv_pos_site_id
 _symmetry_equiv_pos_as_xyz
  1  'x, y, z'
loop_
 _atom_site_type_symbol
 _atom_site_label
 _atom_site_symmetry_multiplicity
 _atom_site_fract_x
 _atom_site_fract_y
 _atom_site_fract_z
 _atom_site_occupancy
  Eu  Eu0  1  0.250000  0.584866  0.704592  1
  Eu  Eu1  1  0.250000  0.915134  0.204592  1
  Tm  Tm2  1  0.750000  0.415746  0.296002  1
  Tm  Tm3  1  0.750000  0.084254  0.796002  1
  Co  Co4  1  0.250000  0.404643  0.486439  1
  Co  Co5  1  0.250000  0.095357  0.986439  1
  Co  Co6  1  0.750000  0.591332  0.507237  1
  Co  Co7  1  0.750000  0.908668  0.007237  1
  Co  Co8  1  0.250000  0.222477  0.176434  1
  Co  Co9  1  0.250000  0.277523  0.676434  1
  Co  Co10  1  0.750000  0.781654  0.824010  1
  Co  Co11  1  0.750000  0.718346  0.324010  1
  Co  Co12  1  0.250000  0.889808  0.702190  1
  Co  Co13  1  0.250000  0.610192  0.202190  1
  Co  Co14  1  0.750000  0.117826  0.299968  1
  Co  Co15  1  0.750000  0.382174  0.799968  1
  Co  Co16  1  0.250000  0.463197  0.934431  1
  Co  Co17  1  0.250000  0.036803  0.434431  1
  Co  Co18  1  0.750000  0.534461  0.068345  1
  Co  Co19  1  0.750000  0.965539  0.568345  1
  Tc  Tc20  1  0.250000  0.709717  0.988252  1
  Tc  Tc21  1  0.250000  0.790283  0.488252  1
  Tc  Tc22  1  0.750000  0.289220  0.011156  1
  Tc  Tc23  1  0.750000  0.210780  0.511156  1
  P  P24  1  0.250000  0.419322  0.114769  1
  P  P25  1  0.250000  0.080678  0.614769  1
  P  P26  1  0.750000  0.579923  0.887550  1
  P  P27  1  0.750000  0.920077  0.387550  1
  P  P28  1  0.250000  0.269769  0.864812  1
  P  P29  1  0.250000  0.230231  0.364812  1
  P  P30  1  0.750000  0.728387  0.134236  1
  P  P31  1  0.750000  0.771613  0.634236  1
  P  P32  1  0.250000  0.595979  0.390906  1
  P  P33  1  0.250000  0.904021  0.890906  1
  P  P34  1  0.750000  0.402305  0.608670  1
  P  P35  1  0.750000  0.097695  0.108670  1
