# generated using pymatgen
data_Li8Ca4InPb3
_symmetry_space_group_name_H-M   'P 1'
_cell_length_a   7.06432000
_cell_length_b   4.95757600
_cell_length_c   9.99541100
_cell_angle_alpha   90.00006906
_cell_angle_beta   89.99966009
_cell_angle_gamma   90.00000811
_symmetry_Int_Tables_number   1
_chemical_formula_structural   Li8Ca4InPb3
_chemical_formula_sum   'Li8 Ca4 In1 Pb3'
_cell_volume   350.05831737
_cell_formula_units_Z   1
loop_
 _symmetry_equiv_pos_site_id
 _symmetry_equiv_pos_as_xyz
  1  'x, y, z'
loop_
 _atom_site_type_symbol
 _atom_site_label
 _atom_site_symmetry_multiplicity
 _atom_site_fract_x
 _atom_site_fract_y
 _atom_site_fract_z
 _atom_site_occupancy
  Li  Li0  1  0.000407  0.749999  0.124541  1
  Li  Li1  1  0.499529  0.749999  0.124688  1
  Li  Li2  1  0.000704  0.249999  0.374900  1
  Li  Li3  1  0.499210  0.249998  0.375041  1
  Li  Li4  1  0.500074  0.749999  0.624547  1
  Li  Li5  1  0.000020  0.749999  0.624690  1
  Li  Li6  1  0.499345  0.249999  0.875709  1
  Li  Li7  1  0.000715  0.249999  0.875856  1
  Ca  Ca8  1  0.749876  0.249999  0.125378  1
  Ca  Ca9  1  0.249879  0.749998  0.373765  1
  Ca  Ca10  1  0.750122  0.250001  0.625349  1
  Ca  Ca11  1  0.250123  0.749998  0.875488  1
  In  In12  1  0.249980  0.249999  0.125153  1
  Pb  Pb13  1  0.749985  0.749999  0.375668  1
  Pb  Pb14  1  0.250016  0.249999  0.625098  1
  Pb  Pb15  1  0.750018  0.749999  0.874130  1
