# generated using pymatgen
data_Ba5TaSbCl2O9
_symmetry_space_group_name_H-M   'P 1'
_cell_length_a   6.04474200
_cell_length_b   6.04474189
_cell_length_c   25.16052800
_cell_angle_alpha   90.00000000
_cell_angle_beta   90.00000000
_cell_angle_gamma   120.00000062
_symmetry_Int_Tables_number   1
_chemical_formula_structural   Ba5TaSbCl2O9
_chemical_formula_sum   'Ba10 Ta2 Sb2 Cl4 O18'
_cell_volume   796.17018441
_cell_formula_units_Z   2
loop_
 _symmetry_equiv_pos_site_id
 _symmetry_equiv_pos_as_xyz
  1  'x, y, z'
loop_
 _atom_site_type_symbol
 _atom_site_label
 _atom_site_symmetry_multiplicity
 _atom_site_fract_x
 _atom_site_fract_y
 _atom_site_fract_z
 _atom_site_occupancy
  Ba  Ba0  1  0.333333  0.666667  0.416950  1
  Ba  Ba1  1  0.333333  0.666667  0.081010  1
  Ba  Ba2  1  0.333333  0.666667  0.830816  1
  Ba  Ba3  1  0.666667  0.333333  0.581010  1
  Ba  Ba4  1  0.666667  0.333333  0.916950  1
  Ba  Ba5  1  0.666667  0.333333  0.330816  1
  Ba  Ba6  1  0.666667  0.333333  0.172742  1
  Ba  Ba7  1  0.333333  0.666667  0.253357  1
  Ba  Ba8  1  0.666667  0.333333  0.753357  1
  Ba  Ba9  1  0.333333  0.666667  0.672742  1
  Ta  Ta10  1  0.000000  0.000000  0.187820  1
  Ta  Ta11  1  0.000000  0.000000  0.687820  1
  Sb  Sb12  1  0.000000  0.000000  0.807572  1
  Sb  Sb13  1  0.000000  0.000000  0.307572  1
  Cl  Cl14  1  0.333333  0.666667  0.547999  1
  Cl  Cl15  1  0.333333  0.666667  0.954717  1
  Cl  Cl16  1  0.666667  0.333333  0.047999  1
  Cl  Cl17  1  0.666667  0.333333  0.454717  1
  O  O18  1  0.162031  0.324061  0.154664  1
  O  O19  1  0.705560  0.852780  0.750000  1
  O  O20  1  0.837969  0.675939  0.654664  1
  O  O21  1  0.852780  0.147220  0.250000  1
  O  O22  1  0.164409  0.835591  0.344342  1
  O  O23  1  0.162031  0.837969  0.154664  1
  O  O24  1  0.837969  0.162031  0.654664  1
  O  O25  1  0.324061  0.162031  0.654664  1
  O  O26  1  0.835591  0.164409  0.844342  1
  O  O27  1  0.852780  0.705560  0.250000  1
  O  O28  1  0.294440  0.147220  0.250000  1
  O  O29  1  0.328818  0.164409  0.844342  1
  O  O30  1  0.147220  0.294440  0.750000  1
  O  O31  1  0.835591  0.671182  0.844342  1
  O  O32  1  0.164409  0.328818  0.344342  1
  O  O33  1  0.675939  0.837969  0.154664  1
  O  O34  1  0.147220  0.852780  0.750000  1
  O  O35  1  0.671182  0.835591  0.344342  1
