# generated using pymatgen
data_Lu12Fe(Si4Rh)3
_symmetry_space_group_name_H-M   'P 1'
_cell_length_a   4.16670100
_cell_length_b   10.49333448
_cell_length_c   12.11627091
_cell_angle_alpha   89.87112248
_cell_angle_beta   90.00000000
_cell_angle_gamma   90.00000000
_symmetry_Int_Tables_number   1
_chemical_formula_structural   Lu12Fe(Si4Rh)3
_chemical_formula_sum   'Lu12 Fe1 Si12 Rh3'
_cell_volume   529.75337220
_cell_formula_units_Z   1
loop_
 _symmetry_equiv_pos_site_id
 _symmetry_equiv_pos_as_xyz
  1  'x, y, z'
loop_
 _atom_site_type_symbol
 _atom_site_label
 _atom_site_symmetry_multiplicity
 _atom_site_fract_x
 _atom_site_fract_y
 _atom_site_fract_z
 _atom_site_occupancy
  Lu  Lu0  1  0.250000  0.879124  0.019461  1
  Lu  Lu1  1  0.250000  0.617436  0.523762  1
  Lu  Lu2  1  0.750000  0.121172  0.978633  1
  Lu  Lu3  1  0.750000  0.378816  0.478695  1
  Lu  Lu4  1  0.250000  0.920706  0.603808  1
  Lu  Lu5  1  0.250000  0.580088  0.103703  1
  Lu  Lu6  1  0.750000  0.078653  0.397051  1
  Lu  Lu7  1  0.750000  0.421790  0.899746  1
  Lu  Lu8  1  0.250000  0.657480  0.798943  1
  Lu  Lu9  1  0.250000  0.838741  0.300407  1
  Lu  Lu10  1  0.750000  0.339774  0.199064  1
  Lu  Lu11  1  0.750000  0.165127  0.699430  1
  Fe  Fe12  1  0.250000  0.391160  0.679576  1
  Si  Si13  1  0.250000  0.016469  0.821771  1
  Si  Si14  1  0.250000  0.486119  0.322562  1
  Si  Si15  1  0.750000  0.985687  0.177466  1
  Si  Si16  1  0.750000  0.505660  0.679350  1
  Si  Si17  1  0.250000  0.253973  0.838464  1
  Si  Si18  1  0.250000  0.251193  0.342143  1
  Si  Si19  1  0.750000  0.751551  0.157826  1
  Si  Si20  1  0.750000  0.747491  0.658173  1
  Si  Si21  1  0.250000  0.200751  0.544756  1
  Si  Si22  1  0.250000  0.302254  0.042278  1
  Si  Si23  1  0.750000  0.801132  0.457450  1
  Si  Si24  1  0.750000  0.697550  0.956068  1
  Rh  Rh25  1  0.250000  0.109256  0.180576  1
  Rh  Rh26  1  0.750000  0.609821  0.320426  1
  Rh  Rh27  1  0.750000  0.891025  0.818410  1
