# generated using pymatgen
data_Nd12MgTa8Mo11N48
_symmetry_space_group_name_H-M   'P 1'
_cell_length_a   11.10688536
_cell_length_b   11.10688626
_cell_length_c   11.10688500
_cell_angle_alpha   109.51101199
_cell_angle_beta   109.39167289
_cell_angle_gamma   109.51100600
_symmetry_Int_Tables_number   1
_chemical_formula_structural   Nd12MgTa8Mo11N48
_chemical_formula_sum   'Nd12 Mg1 Ta8 Mo11 N48'
_cell_volume   1054.76174994
_cell_formula_units_Z   1
loop_
 _symmetry_equiv_pos_site_id
 _symmetry_equiv_pos_as_xyz
  1  'x, y, z'
loop_
 _atom_site_type_symbol
 _atom_site_label
 _atom_site_symmetry_multiplicity
 _atom_site_fract_x
 _atom_site_fract_y
 _atom_site_fract_z
 _atom_site_occupancy
  Nd  Nd0  1  0.372445  0.750001  0.122441  1
  Nd  Nd1  1  0.247040  0.371017  0.125179  1
  Nd  Nd2  1  0.374674  0.120116  0.244769  1
  Nd  Nd3  1  0.874823  0.621863  0.245839  1
  Nd  Nd4  1  0.754161  0.128984  0.376022  1
  Nd  Nd5  1  0.121442  0.250000  0.371442  1
  Nd  Nd6  1  0.877558  0.750000  0.627557  1
  Nd  Nd7  1  0.245442  0.870096  0.625327  1
  Nd  Nd8  1  0.124653  0.379883  0.754558  1
  Nd  Nd9  1  0.623976  0.878137  0.752959  1
  Nd  Nd10  1  0.628561  0.250001  0.878561  1
  Nd  Nd11  1  0.755230  0.629904  0.875346  1
  Mg  Mg12  1  0.874998  0.249997  0.125001  1
  Ta  Ta13  1  0.002955  0.014413  0.009187  1
  Ta  Ta14  1  0.511456  0.006232  0.997045  1
  Ta  Ta15  1  0.990813  0.493768  0.005225  1
  Ta  Ta16  1  0.499061  0.499074  0.999584  1
  Ta  Ta17  1  0.000416  0.999477  0.499490  1
  Ta  Ta18  1  0.500013  0.500523  0.500939  1
  Ta  Ta19  1  0.500510  0.000926  0.499987  1
  Ta  Ta20  1  0.994775  0.485588  0.488543  1
  Mo  Mo21  1  0.749869  0.875323  0.124814  1
  Mo  Mo22  1  0.625451  0.374945  0.250130  1
  Mo  Mo23  1  0.127590  0.875366  0.252818  1
  Mo  Mo24  1  0.249491  0.624677  0.374545  1
  Mo  Mo25  1  0.625000  0.750001  0.375001  1
  Mo  Mo26  1  0.375001  0.250000  0.624999  1
  Mo  Mo27  1  0.747185  0.374774  0.622550  1
  Mo  Mo28  1  0.875185  0.125055  0.750507  1
  Mo  Mo29  1  0.377453  0.624636  0.752226  1
  Mo  Mo30  1  0.247775  0.125226  0.872412  1
  Mo  Mo31  1  0.124999  0.749999  0.875000  1
  N  N32  1  0.202032  0.111592  0.013595  1
  N  N33  1  0.315655  0.902256  0.021522  1
  N  N34  1  0.875659  0.413584  0.081074  1
  N  N35  1  0.702129  0.682623  0.082862  1
  N  N36  1  0.986405  0.688438  0.098001  1
  N  N37  1  0.613641  0.414271  0.098018  1
  N  N38  1  0.037924  0.205415  0.124348  1
  N  N39  1  0.599218  0.915485  0.118020  1
  N  N40  1  0.202535  0.584516  0.183733  1
  N  N41  1  0.483721  0.598975  0.183638  1
  N  N42  1  0.587944  0.184648  0.201501  1
  N  N43  1  0.116624  0.014682  0.202233  1
  N  N44  1  0.318090  0.913939  0.298985  1
  N  N45  1  0.480499  0.380738  0.297873  1
  N  N46  1  0.918933  0.294586  0.332511  1
  N  N47  1  0.901978  0.015623  0.316254  1
  N  N48  1  0.584665  0.901027  0.384746  1
  N  N49  1  0.300631  0.484377  0.386356  1
  N  N50  1  0.816268  0.518802  0.400782  1
  N  N51  1  0.083950  0.881254  0.403835  1
  N  N52  1  0.096703  0.613554  0.412055  1
  N  N53  1  0.816363  0.800079  0.415334  1
  N  N54  1  0.596168  0.180115  0.477416  1
  N  N55  1  0.384193  0.298252  0.482149  1
  N  N56  1  0.615253  0.699920  0.516281  1
  N  N57  1  0.400238  0.817376  0.519504  1
  N  N58  1  0.183896  0.201748  0.585938  1
  N  N59  1  0.902003  0.388409  0.590440  1
  N  N60  1  0.917134  0.119262  0.599759  1
  N  N61  1  0.187550  0.485316  0.601943  1
  N  N62  1  0.414063  0.097960  0.615810  1
  N  N63  1  0.701011  0.519103  0.614952  1
  N  N64  1  0.086602  0.705867  0.684346  1
  N  N65  1  0.095850  0.980897  0.681909  1
  N  N66  1  0.683747  0.085728  0.699372  1
  N  N67  1  0.522579  0.618746  0.702695  1
  N  N68  1  0.881982  0.981199  0.797466  1
  N  N69  1  0.409560  0.811562  0.797966  1
  N  N70  1  0.517849  0.402040  0.816104  1
  N  N71  1  0.797765  0.414391  0.812450  1
  N  N72  1  0.398057  0.085608  0.883373  1
  N  N73  1  0.978481  0.794134  0.880735  1
  N  N74  1  0.016851  0.315352  0.903294  1
  N  N75  1  0.385051  0.586064  0.904154  1
  N  N76  1  0.297302  0.319886  0.916054  1
  N  N77  1  0.119263  0.597743  0.913398  1
  N  N78  1  0.667490  0.086418  0.962073  1
  N  N79  1  0.798499  0.886446  0.983148  1
