# generated using pymatgen
data_CeThFe3Re14C3
_symmetry_space_group_name_H-M   'P 1'
_cell_length_a   6.95290278
_cell_length_b   6.95290230
_cell_length_c   6.95290258
_cell_angle_alpha   82.81988680
_cell_angle_beta   82.81988339
_cell_angle_gamma   82.81986728
_symmetry_Int_Tables_number   1
_chemical_formula_structural   CeThFe3Re14C3
_chemical_formula_sum   'Ce1 Th1 Fe3 Re14 C3'
_cell_volume   328.82370995
_cell_formula_units_Z   1
loop_
 _symmetry_equiv_pos_site_id
 _symmetry_equiv_pos_as_xyz
  1  'x, y, z'
loop_
 _atom_site_type_symbol
 _atom_site_label
 _atom_site_symmetry_multiplicity
 _atom_site_fract_x
 _atom_site_fract_y
 _atom_site_fract_z
 _atom_site_occupancy
  Ce  Ce0  1  0.648560  0.648560  0.648560  1
  Th  Th1  1  0.349602  0.349602  0.349602  1
  Fe  Fe2  1  0.000406  0.000406  0.500035  1
  Fe  Fe3  1  0.500035  0.000406  0.000406  1
  Fe  Fe4  1  0.000406  0.500035  0.000406  1
  Re  Re5  1  0.723527  0.277447  0.999619  1
  Re  Re6  1  0.999619  0.723527  0.277447  1
  Re  Re7  1  0.277447  0.999619  0.723527  1
  Re  Re8  1  0.999619  0.277447  0.723527  1
  Re  Re9  1  0.723527  0.999619  0.277447  1
  Re  Re10  1  0.277447  0.723527  0.999619  1
  Re  Re11  1  0.346411  0.346411  0.860481  1
  Re  Re12  1  0.860481  0.346411  0.346411  1
  Re  Re13  1  0.346411  0.860481  0.346411  1
  Re  Re14  1  0.654813  0.654813  0.137003  1
  Re  Re15  1  0.137003  0.654813  0.654813  1
  Re  Re16  1  0.654813  0.137003  0.654813  1
  Re  Re17  1  0.897798  0.897798  0.897798  1
  Re  Re18  1  0.102208  0.102208  0.102208  1
  C  C19  1  0.500658  0.500658  0.998549  1
  C  C20  1  0.998549  0.500658  0.500658  1
  C  C21  1  0.500658  0.998549  0.500658  1
