# generated using pymatgen
data_Ho4Sn3As3Ir7
_symmetry_space_group_name_H-M   'P 1'
_cell_length_a   7.38578648
_cell_length_b   7.38578604
_cell_length_c   7.46601000
_cell_angle_alpha   109.69140232
_cell_angle_beta   109.69140110
_cell_angle_gamma   109.25014675
_symmetry_Int_Tables_number   1
_chemical_formula_structural   Ho4Sn3As3Ir7
_chemical_formula_sum   'Ho4 Sn3 As3 Ir7'
_cell_volume   312.66033917
_cell_formula_units_Z   1
loop_
 _symmetry_equiv_pos_site_id
 _symmetry_equiv_pos_as_xyz
  1  'x, y, z'
loop_
 _atom_site_type_symbol
 _atom_site_label
 _atom_site_symmetry_multiplicity
 _atom_site_fract_x
 _atom_site_fract_y
 _atom_site_fract_z
 _atom_site_occupancy
  Ho  Ho0  1  0.000000  0.000000  0.451655  1
  Ho  Ho1  1  0.000000  0.524461  0.006979  1
  Ho  Ho2  1  0.524461  0.000000  0.006979  1
  Ho  Ho3  1  0.475539  0.475539  0.482517  1
  Sn  Sn4  1  0.289760  0.289760  0.983351  1
  Sn  Sn5  1  0.710240  0.000000  0.693590  1
  Sn  Sn6  1  0.000000  0.710240  0.693590  1
  As  As7  1  0.660456  0.660456  0.991361  1
  As  As8  1  0.339544  0.000000  0.330904  1
  As  As9  1  0.000000  0.339544  0.330904  1
  Ir  Ir10  1  0.752730  0.253702  0.498804  1
  Ir  Ir11  1  0.746298  0.499028  0.245101  1
  Ir  Ir12  1  0.500972  0.247270  0.746075  1
  Ir  Ir13  1  0.247270  0.500972  0.746075  1
  Ir  Ir14  1  0.253702  0.752730  0.498804  1
  Ir  Ir15  1  0.499028  0.746298  0.245101  1
  Ir  Ir16  1  0.000000  0.000000  0.048210  1
