# generated using pymatgen
data_CePr3Hg2Rh3
_symmetry_space_group_name_H-M   'P 1'
_cell_length_a   7.68419900
_cell_length_b   7.91122300
_cell_length_c   4.04283200
_cell_angle_alpha   90.00000000
_cell_angle_beta   90.00000000
_cell_angle_gamma   119.05518795
_symmetry_Int_Tables_number   1
_chemical_formula_structural   CePr3Hg2Rh3
_chemical_formula_sum   'Ce1 Pr3 Hg2 Rh3'
_cell_volume   214.83995008
_cell_formula_units_Z   1
loop_
 _symmetry_equiv_pos_site_id
 _symmetry_equiv_pos_as_xyz
  1  'x, y, z'
loop_
 _atom_site_type_symbol
 _atom_site_label
 _atom_site_symmetry_multiplicity
 _atom_site_fract_x
 _atom_site_fract_y
 _atom_site_fract_z
 _atom_site_occupancy
  Ce  Ce0  1  0.253376  0.000000  0.000000  1
  Pr  Pr1  1  0.966109  0.555337  0.500000  1
  Pr  Pr2  1  0.410774  0.444663  0.500000  1
  Pr  Pr3  1  0.632511  0.000000  0.500000  1
  Hg  Hg4  1  0.749109  0.736387  0.000000  1
  Hg  Hg5  1  0.012722  0.263613  0.000000  1
  Rh  Rh6  1  0.323569  0.695823  0.000000  1
  Rh  Rh7  1  0.024080  0.000000  0.500000  1
  Rh  Rh8  1  0.627747  0.304177  0.000000  1
