# generated using pymatgen
data_Mo12Pd5Pt3N4
_symmetry_space_group_name_H-M   'P 1'
_cell_length_a   6.88887534
_cell_length_b   6.88887520
_cell_length_c   6.88887546
_cell_angle_alpha   90.02814106
_cell_angle_beta   89.97185914
_cell_angle_gamma   90.02813853
_symmetry_Int_Tables_number   1
_chemical_formula_structural   Mo12Pd5Pt3N4
_chemical_formula_sum   'Mo12 Pd5 Pt3 N4'
_cell_volume   326.92250582
_cell_formula_units_Z   1
loop_
 _symmetry_equiv_pos_site_id
 _symmetry_equiv_pos_as_xyz
  1  'x, y, z'
loop_
 _atom_site_type_symbol
 _atom_site_label
 _atom_site_symmetry_multiplicity
 _atom_site_fract_x
 _atom_site_fract_y
 _atom_site_fract_z
 _atom_site_occupancy
  Mo  Mo0  1  0.624602  0.698879  0.953643  1
  Mo  Mo1  1  0.453643  0.875398  0.301121  1
  Mo  Mo2  1  0.701658  0.952214  0.623414  1
  Mo  Mo3  1  0.547786  0.376586  0.201658  1
  Mo  Mo4  1  0.374781  0.200234  0.545274  1
  Mo  Mo5  1  0.199631  0.546570  0.375624  1
  Mo  Mo6  1  0.875624  0.300369  0.453430  1
  Mo  Mo7  1  0.045274  0.125219  0.799766  1
  Mo  Mo8  1  0.299766  0.454726  0.874781  1
  Mo  Mo9  1  0.123414  0.798342  0.047786  1
  Mo  Mo10  1  0.801121  0.046357  0.124602  1
  Mo  Mo11  1  0.953430  0.624376  0.699631  1
  Pd  Pd12  1  0.192182  0.190650  0.188756  1
  Pd  Pd13  1  0.309350  0.811244  0.692182  1
  Pd  Pd14  1  0.441907  0.058093  0.941907  1
  Pd  Pd15  1  0.809266  0.690734  0.309266  1
  Pd  Pd16  1  0.688756  0.307818  0.809350  1
  Pt  Pt17  1  0.558161  0.559689  0.559915  1
  Pt  Pt18  1  0.059915  0.941839  0.440311  1
  Pt  Pt19  1  0.940311  0.440085  0.058161  1
  N  N20  1  0.374958  0.625246  0.124932  1
  N  N21  1  0.874754  0.875068  0.874958  1
  N  N22  1  0.124776  0.375224  0.624776  1
  N  N23  1  0.624932  0.125042  0.374754  1
