# generated using pymatgen
data_La2GaP3Ir4
_symmetry_space_group_name_H-M   'P 1'
_cell_length_a   4.28204000
_cell_length_b   4.28204000
_cell_length_c   9.70751100
_cell_angle_alpha   90.00000000
_cell_angle_beta   90.00000000
_cell_angle_gamma   90.00000000
_symmetry_Int_Tables_number   1
_chemical_formula_structural   La2GaP3Ir4
_chemical_formula_sum   'La2 Ga1 P3 Ir4'
_cell_volume   177.99562634
_cell_formula_units_Z   1
loop_
 _symmetry_equiv_pos_site_id
 _symmetry_equiv_pos_as_xyz
  1  'x, y, z'
loop_
 _atom_site_type_symbol
 _atom_site_label
 _atom_site_symmetry_multiplicity
 _atom_site_fract_x
 _atom_site_fract_y
 _atom_site_fract_z
 _atom_site_occupancy
  La  La0  1  0.000000  0.500000  0.267603  1
  La  La1  1  0.500000  0.000000  0.737904  1
  Ga  Ga2  1  0.500000  0.000000  0.135162  1
  P  P3  1  0.000000  0.000000  0.503210  1
  P  P4  1  0.500000  0.500000  0.503210  1
  P  P5  1  0.000000  0.500000  0.867124  1
  Ir  Ir6  1  0.000000  0.000000  0.986460  1
  Ir  Ir7  1  0.500000  0.500000  0.986460  1
  Ir  Ir8  1  0.000000  0.500000  0.612812  1
  Ir  Ir9  1  0.500000  0.000000  0.400055  1
