# generated using pymatgen
data_Ba7Mn2Fe4O19
_symmetry_space_group_name_H-M   'P 1'
_cell_length_a   7.89329969
_cell_length_b   7.89329607
_cell_length_c   11.01395864
_cell_angle_alpha   81.18853514
_cell_angle_beta   81.18855791
_cell_angle_gamma   43.19157728
_symmetry_Int_Tables_number   1
_chemical_formula_structural   Ba7Mn2Fe4O19
_chemical_formula_sum   'Ba7 Mn2 Fe4 O19'
_cell_volume   463.25542022
_cell_formula_units_Z   1
loop_
 _symmetry_equiv_pos_site_id
 _symmetry_equiv_pos_as_xyz
  1  'x, y, z'
loop_
 _atom_site_type_symbol
 _atom_site_label
 _atom_site_symmetry_multiplicity
 _atom_site_fract_x
 _atom_site_fract_y
 _atom_site_fract_z
 _atom_site_occupancy
  Ba  Ba0  1  0.500000  0.500000  0.500000  1
  Ba  Ba1  1  0.848322  0.848323  0.948456  1
  Ba  Ba2  1  0.151678  0.151677  0.051544  1
  Ba  Ba3  1  0.573347  0.573347  0.834047  1
  Ba  Ba4  1  0.426653  0.426653  0.165953  1
  Ba  Ba5  1  0.798868  0.798867  0.593993  1
  Ba  Ba6  1  0.201132  0.201133  0.406007  1
  Mn  Mn7  1  0.183582  0.183582  0.730149  1
  Mn  Mn8  1  0.816418  0.816418  0.269851  1
  Fe  Fe9  1  0.349547  0.349547  0.781411  1
  Fe  Fe10  1  0.650453  0.650453  0.218589  1
  Fe  Fe11  1  0.019398  0.019398  0.671887  1
  Fe  Fe12  1  0.980602  0.980602  0.328113  1
  O  O13  1  0.000000  0.000000  0.500000  1
  O  O14  1  0.697781  0.697781  0.376387  1
  O  O15  1  0.302219  0.302219  0.623613  1
  O  O16  1  0.065256  0.065255  0.840069  1
  O  O17  1  0.934744  0.934745  0.159931  1
  O  O18  1  0.383847  0.383847  0.934616  1
  O  O19  1  0.616153  0.616153  0.065384  1
  O  O20  1  0.815255  0.317732  0.278842  1
  O  O21  1  0.682268  0.184745  0.721158  1
  O  O22  1  0.184745  0.682268  0.721158  1
  O  O23  1  0.317732  0.815255  0.278842  1
  O  O24  1  0.535486  0.979782  0.175574  1
  O  O25  1  0.020218  0.464514  0.824426  1
  O  O26  1  0.647496  0.094483  0.364994  1
  O  O27  1  0.905517  0.352504  0.635006  1
  O  O28  1  0.352504  0.905517  0.635006  1
  O  O29  1  0.094483  0.647496  0.364994  1
  O  O30  1  0.979782  0.535486  0.175574  1
  O  O31  1  0.464514  0.020218  0.824426  1
