# generated using pymatgen
data_Sr13Si14O
_symmetry_space_group_name_H-M   'P 1'
_cell_length_a   11.34701273
_cell_length_b   11.34701306
_cell_length_c   16.88402224
_cell_angle_alpha   55.81885240
_cell_angle_beta   55.81885061
_cell_angle_gamma   24.61677643
_symmetry_Int_Tables_number   1
_chemical_formula_structural   Sr13Si14O
_chemical_formula_sum   'Sr13 Si14 O1'
_cell_volume   740.84455796
_cell_formula_units_Z   1
loop_
 _symmetry_equiv_pos_site_id
 _symmetry_equiv_pos_as_xyz
  1  'x, y, z'
loop_
 _atom_site_type_symbol
 _atom_site_label
 _atom_site_symmetry_multiplicity
 _atom_site_fract_x
 _atom_site_fract_y
 _atom_site_fract_z
 _atom_site_occupancy
  Sr  Sr0  1  0.189951  0.189951  0.857339  1
  Sr  Sr1  1  0.997435  0.997435  0.350542  1
  Sr  Sr2  1  0.998525  0.998525  0.120975  1
  Sr  Sr3  1  0.189117  0.189117  0.612010  1
  Sr  Sr4  1  0.181982  0.181982  0.110134  1
  Sr  Sr5  1  0.154205  0.154205  0.382475  1
  Sr  Sr6  1  0.500000  0.500000  0.500000  1
  Sr  Sr7  1  0.845795  0.845795  0.617525  1
  Sr  Sr8  1  0.810883  0.810883  0.387990  1
  Sr  Sr9  1  0.818018  0.818018  0.889866  1
  Sr  Sr10  1  0.810049  0.810049  0.142661  1
  Sr  Sr11  1  0.001475  0.001475  0.879025  1
  Sr  Sr12  1  0.002565  0.002565  0.649458  1
  Si  Si13  1  0.436308  0.436308  0.809543  1
  Si  Si14  1  0.566299  0.566299  0.949798  1
  Si  Si15  1  0.430133  0.430133  0.290779  1
  Si  Si16  1  0.563692  0.563692  0.190457  1
  Si  Si17  1  0.569867  0.569867  0.709221  1
  Si  Si18  1  0.433701  0.433701  0.050202  1
  Si  Si19  1  0.636407  0.636407  0.015984  1
  Si  Si20  1  0.642448  0.642448  0.775276  1
  Si  Si21  1  0.357552  0.357552  0.224724  1
  Si  Si22  1  0.369564  0.369564  0.737196  1
  Si  Si23  1  0.367527  0.367527  0.462025  1
  Si  Si24  1  0.632473  0.632473  0.537975  1
  Si  Si25  1  0.630436  0.630436  0.262804  1
  Si  Si26  1  0.363593  0.363593  0.984016  1
  O  O27  1  0.000000  0.000000  0.500000  1
