# generated using pymatgen
data_Li4Yb5(PdPt)2
_symmetry_space_group_name_H-M   'P 1'
_cell_length_a   8.29964443
_cell_length_b   8.29964657
_cell_length_c   8.26666850
_cell_angle_alpha   94.49209933
_cell_angle_beta   93.21847064
_cell_angle_gamma   150.00501092
_symmetry_Int_Tables_number   1
_chemical_formula_structural   Li4Yb5(PdPt)2
_chemical_formula_sum   'Li4 Yb5 Pd2 Pt2'
_cell_volume   274.88269467
_cell_formula_units_Z   1
loop_
 _symmetry_equiv_pos_site_id
 _symmetry_equiv_pos_as_xyz
  1  'x, y, z'
loop_
 _atom_site_type_symbol
 _atom_site_label
 _atom_site_symmetry_multiplicity
 _atom_site_fract_x
 _atom_site_fract_y
 _atom_site_fract_z
 _atom_site_occupancy
  Li  Li0  1  0.607190  0.075290  0.682479  1
  Li  Li1  1  0.922755  0.603607  0.526362  1
  Li  Li2  1  0.077245  0.396393  0.473638  1
  Li  Li3  1  0.392810  0.924710  0.317521  1
  Yb  Yb4  1  0.134513  0.793323  0.927836  1
  Yb  Yb5  1  0.209423  0.126038  0.335461  1
  Yb  Yb6  1  0.865487  0.206677  0.072164  1
  Yb  Yb7  1  0.500000  0.500000  0.000000  1
  Yb  Yb8  1  0.790577  0.873962  0.664539  1
  Pd  Pd9  1  0.439296  0.250311  0.689606  1
  Pd  Pd10  1  0.560704  0.749689  0.310394  1
  Pt  Pt11  1  0.251037  0.559657  0.810695  1
  Pt  Pt12  1  0.748963  0.440343  0.189305  1
