# generated using pymatgen
data_TaNb(PO4)3
_symmetry_space_group_name_H-M   'P 1'
_cell_length_a   8.80162136
_cell_length_b   8.80226424
_cell_length_c   9.08657152
_cell_angle_alpha   90.35353720
_cell_angle_beta   118.64214398
_cell_angle_gamma   119.85635968
_symmetry_Int_Tables_number   1
_chemical_formula_structural   TaNb(PO4)3
_chemical_formula_sum   'Ta2 Nb2 P6 O24'
_cell_volume   507.36057704
_cell_formula_units_Z   2
loop_
 _symmetry_equiv_pos_site_id
 _symmetry_equiv_pos_as_xyz
  1  'x, y, z'
loop_
 _atom_site_type_symbol
 _atom_site_label
 _atom_site_symmetry_multiplicity
 _atom_site_fract_x
 _atom_site_fract_y
 _atom_site_fract_z
 _atom_site_occupancy
  Ta  Ta0  1  0.214165  0.857990  0.072523  1
  Ta  Ta1  1  0.786324  0.641821  0.430114  1
  Nb  Nb2  1  0.213623  0.359424  0.570465  1
  Nb  Nb3  1  0.786747  0.141942  0.927464  1
  P  P4  1  0.997697  0.964683  0.248213  1
  P  P5  1  0.283873  0.534829  0.250723  1
  P  P6  1  0.281794  0.751873  0.747044  1
  P  P7  1  0.715381  0.247974  0.252232  1
  P  P8  1  0.718847  0.468491  0.749392  1
  P  P9  1  0.003833  0.033598  0.752722  1
  O  O10  1  0.293423  0.711049  0.213874  1
  O  O11  1  0.853984  0.982050  0.078147  1
  O  O12  1  0.861660  0.854665  0.593442  1
  O  O13  1  0.857681  0.797471  0.286829  1
  O  O14  1  0.136753  0.922436  0.222176  1
  O  O15  1  0.491573  0.564631  0.289675  1
  O  O16  1  0.086205  0.726227  0.581335  1
  O  O17  1  0.918025  0.640292  0.914034  1
  O  O18  1  0.276560  0.786298  0.911778  1
  O  O19  1  0.478682  0.917055  0.768915  1
  O  O20  1  0.733670  0.496552  0.586690  1
  O  O21  1  0.719331  0.424966  0.281024  1
  O  O22  1  0.272122  0.573202  0.725129  1
  O  O23  1  0.271641  0.516954  0.412129  1
  O  O24  1  0.505776  0.081816  0.219874  1
  O  O25  1  0.717419  0.219738  0.086748  1
  O  O26  1  0.097582  0.366290  0.086110  1
  O  O27  1  0.898400  0.263236  0.417483  1
  O  O28  1  0.524613  0.452320  0.719115  1
  O  O29  1  0.857323  0.065598  0.772403  1
  O  O30  1  0.154128  0.196345  0.724194  1
  O  O31  1  0.143753  0.140198  0.407765  1
  O  O32  1  0.135916  0.003109  0.922835  1
  O  O33  1  0.711500  0.294878  0.777405  1
