# generated using pymatgen
data_Lu4Tc5Os2Ru
_symmetry_space_group_name_H-M   'P 1'
_cell_length_a   5.27608173
_cell_length_b   5.27627317
_cell_length_c   8.97506900
_cell_angle_alpha   89.99984740
_cell_angle_beta   90.00101587
_cell_angle_gamma   121.00128895
_symmetry_Int_Tables_number   1
_chemical_formula_structural   Lu4Tc5Os2Ru
_chemical_formula_sum   'Lu4 Tc5 Os2 Ru1'
_cell_volume   214.15898864
_cell_formula_units_Z   1
loop_
 _symmetry_equiv_pos_site_id
 _symmetry_equiv_pos_as_xyz
  1  'x, y, z'
loop_
 _atom_site_type_symbol
 _atom_site_label
 _atom_site_symmetry_multiplicity
 _atom_site_fract_x
 _atom_site_fract_y
 _atom_site_fract_z
 _atom_site_occupancy
  Lu  Lu0  1  0.334957  0.665033  0.434950  1
  Lu  Lu1  1  0.665592  0.334412  0.562521  1
  Lu  Lu2  1  0.665655  0.334350  0.937491  1
  Lu  Lu3  1  0.334904  0.665094  0.064961  1
  Tc  Tc4  1  0.170750  0.342608  0.750556  1
  Tc  Tc5  1  0.172100  0.827906  0.750382  1
  Tc  Tc6  1  0.339466  0.171503  0.249615  1
  Tc  Tc7  1  0.828502  0.660542  0.249614  1
  Tc  Tc8  1  0.657378  0.829242  0.750551  1
  Os  Os9  1  0.002257  0.997738  0.000413  1
  Os  Os10  1  0.825857  0.174149  0.249448  1
  Ru  Ru11  1  0.002583  0.997422  0.499497  1
