# generated using pymatgen
data_Li2CeLu3(Si4Pd)2
_symmetry_space_group_name_H-M   'P 1'
_cell_length_a   3.84250700
_cell_length_b   7.29689213
_cell_length_c   10.04287603
_cell_angle_alpha   90.18216646
_cell_angle_beta   90.00000000
_cell_angle_gamma   90.00000000
_symmetry_Int_Tables_number   1
_chemical_formula_structural   Li2CeLu3(Si4Pd)2
_chemical_formula_sum   'Li2 Ce1 Lu3 Si8 Pd2'
_cell_volume   281.58434100
_cell_formula_units_Z   1
loop_
 _symmetry_equiv_pos_site_id
 _symmetry_equiv_pos_as_xyz
  1  'x, y, z'
loop_
 _atom_site_type_symbol
 _atom_site_label
 _atom_site_symmetry_multiplicity
 _atom_site_fract_x
 _atom_site_fract_y
 _atom_site_fract_z
 _atom_site_occupancy
  Li  Li0  1  0.750000  0.004487  0.605558  1
  Li  Li1  1  0.750000  0.507351  0.896829  1
  Ce  Ce2  1  0.250000  0.648495  0.631497  1
  Lu  Lu3  1  0.250000  0.142808  0.871023  1
  Lu  Lu4  1  0.750000  0.863686  0.133667  1
  Lu  Lu5  1  0.750000  0.360208  0.365865  1
  Si  Si6  1  0.250000  0.219368  0.569943  1
  Si  Si7  1  0.250000  0.733019  0.935491  1
  Si  Si8  1  0.750000  0.768431  0.427348  1
  Si  Si9  1  0.750000  0.267126  0.067446  1
  Si  Si10  1  0.250000  0.654954  0.316131  1
  Si  Si11  1  0.250000  0.157080  0.181126  1
  Si  Si12  1  0.750000  0.340395  0.679181  1
  Si  Si13  1  0.750000  0.844819  0.823331  1
  Pd  Pd14  1  0.250000  0.994233  0.387619  1
  Pd  Pd15  1  0.250000  0.493537  0.107944  1
