# generated using pymatgen
data_Sc3Fe2Si2Ge
_symmetry_space_group_name_H-M   'P 1'
_cell_length_a   5.35882400
_cell_length_b   5.35882380
_cell_length_c   13.00749200
_cell_angle_alpha   90.00000000
_cell_angle_beta   90.00000000
_cell_angle_gamma   136.63740011
_symmetry_Int_Tables_number   1
_chemical_formula_structural   Sc3Fe2Si2Ge
_chemical_formula_sum   'Sc6 Fe4 Si4 Ge2'
_cell_volume   256.47475126
_cell_formula_units_Z   2
loop_
 _symmetry_equiv_pos_site_id
 _symmetry_equiv_pos_as_xyz
  1  'x, y, z'
loop_
 _atom_site_type_symbol
 _atom_site_label
 _atom_site_symmetry_multiplicity
 _atom_site_fract_x
 _atom_site_fract_y
 _atom_site_fract_z
 _atom_site_occupancy
  Sc  Sc0  1  0.638488  0.361512  0.750000  1
  Sc  Sc1  1  0.920027  0.079973  0.610956  1
  Sc  Sc2  1  0.920027  0.079973  0.889044  1
  Sc  Sc3  1  0.079973  0.920027  0.110956  1
  Sc  Sc4  1  0.361512  0.638488  0.250000  1
  Sc  Sc5  1  0.079973  0.920027  0.389044  1
  Fe  Fe6  1  0.787276  0.212724  0.080168  1
  Fe  Fe7  1  0.212724  0.787276  0.580168  1
  Fe  Fe8  1  0.787276  0.212724  0.419832  1
  Fe  Fe9  1  0.212724  0.787276  0.919832  1
  Si  Si10  1  0.383056  0.616944  0.459297  1
  Si  Si11  1  0.383056  0.616944  0.040703  1
  Si  Si12  1  0.616944  0.383056  0.540703  1
  Si  Si13  1  0.616944  0.383056  0.959297  1
  Ge  Ge14  1  0.667408  0.332592  0.250000  1
  Ge  Ge15  1  0.332592  0.667408  0.750000  1
