# generated using pymatgen
data_Ac2Tm3Tl4
_symmetry_space_group_name_H-M   'P 1'
_cell_length_a   8.32538400
_cell_length_b   8.33057400
_cell_length_c   16.46819000
_cell_angle_alpha   90.00000000
_cell_angle_beta   90.00000000
_cell_angle_gamma   90.00000000
_symmetry_Int_Tables_number   1
_chemical_formula_structural   Ac2Tm3Tl4
_chemical_formula_sum   'Ac8 Tm12 Tl16'
_cell_volume   1142.15506381
_cell_formula_units_Z   4
loop_
 _symmetry_equiv_pos_site_id
 _symmetry_equiv_pos_as_xyz
  1  'x, y, z'
loop_
 _atom_site_type_symbol
 _atom_site_label
 _atom_site_symmetry_multiplicity
 _atom_site_fract_x
 _atom_site_fract_y
 _atom_site_fract_z
 _atom_site_occupancy
  Ac  Ac0  1  0.506834  0.323919  0.903994  1
  Ac  Ac1  1  0.006834  0.176081  0.596006  1
  Ac  Ac2  1  0.493166  0.676081  0.403994  1
  Ac  Ac3  1  0.993166  0.823919  0.096006  1
  Ac  Ac4  1  0.493166  0.676081  0.096006  1
  Ac  Ac5  1  0.993166  0.823919  0.403994  1
  Ac  Ac6  1  0.506834  0.323919  0.596006  1
  Ac  Ac7  1  0.006834  0.176081  0.903994  1
  Tm  Tm8  1  0.349311  0.839708  0.873909  1
  Tm  Tm9  1  0.849311  0.660292  0.626091  1
  Tm  Tm10  1  0.650689  0.160292  0.373909  1
  Tm  Tm11  1  0.150689  0.339708  0.126091  1
  Tm  Tm12  1  0.650689  0.160292  0.126091  1
  Tm  Tm13  1  0.150689  0.339708  0.373909  1
  Tm  Tm14  1  0.349311  0.839708  0.626091  1
  Tm  Tm15  1  0.849311  0.660292  0.873909  1
  Tm  Tm16  1  0.183621  0.506696  0.750000  1
  Tm  Tm17  1  0.683621  0.993304  0.750000  1
  Tm  Tm18  1  0.816379  0.493304  0.250000  1
  Tm  Tm19  1  0.316379  0.006696  0.250000  1
  Tl  Tl20  1  0.321765  0.050489  0.040432  1
  Tl  Tl21  1  0.821765  0.449511  0.459568  1
  Tl  Tl22  1  0.678235  0.949511  0.540432  1
  Tl  Tl23  1  0.178235  0.550489  0.959568  1
  Tl  Tl24  1  0.678235  0.949511  0.959568  1
  Tl  Tl25  1  0.178235  0.550489  0.540432  1
  Tl  Tl26  1  0.321765  0.050489  0.459568  1
  Tl  Tl27  1  0.821765  0.449511  0.040432  1
  Tl  Tl28  1  0.544970  0.630201  0.750000  1
  Tl  Tl29  1  0.044970  0.869799  0.750000  1
  Tl  Tl30  1  0.455030  0.369799  0.250000  1
  Tl  Tl31  1  0.955030  0.130201  0.250000  1
  Tl  Tl32  1  0.312696  0.134006  0.750000  1
  Tl  Tl33  1  0.812696  0.365994  0.750000  1
  Tl  Tl34  1  0.687304  0.865994  0.250000  1
  Tl  Tl35  1  0.187304  0.634006  0.250000  1
