# generated using pymatgen
data_HfTa7(AlC3)2
_symmetry_space_group_name_H-M   'P 1'
_cell_length_a   3.15053800
_cell_length_b   3.15056093
_cell_length_c   24.32568800
_cell_angle_alpha   90.00010351
_cell_angle_beta   90.00000000
_cell_angle_gamma   119.99973823
_symmetry_Int_Tables_number   1
_chemical_formula_structural   HfTa7(AlC3)2
_chemical_formula_sum   'Hf1 Ta7 Al2 C6'
_cell_volume   209.10745431
_cell_formula_units_Z   1
loop_
 _symmetry_equiv_pos_site_id
 _symmetry_equiv_pos_as_xyz
  1  'x, y, z'
loop_
 _atom_site_type_symbol
 _atom_site_label
 _atom_site_symmetry_multiplicity
 _atom_site_fract_x
 _atom_site_fract_y
 _atom_site_fract_z
 _atom_site_occupancy
  Hf  Hf0  1  0.333333  0.666668  0.054610  1
  Ta  Ta1  1  0.000002  0.000004  0.161684  1
  Ta  Ta2  1  0.999994  0.999988  0.343570  1
  Ta  Ta3  1  0.333328  0.666657  0.444950  1
  Ta  Ta4  1  0.666668  0.333335  0.555482  1
  Ta  Ta5  1  0.000005  0.000010  0.657110  1
  Ta  Ta6  1  0.000001  0.000002  0.840243  1
  Ta  Ta7  1  0.666669  0.333337  0.943103  1
  Al  Al8  1  0.333332  0.666664  0.251691  1
  Al  Al9  1  0.666669  0.333337  0.749111  1
  C  C10  1  0.000002  0.000003  0.996542  1
  C  C11  1  0.666668  0.333335  0.111171  1
  C  C12  1  0.666663  0.333324  0.392579  1
  C  C13  1  0.999997  0.999995  0.500256  1
  C  C14  1  0.333336  0.666671  0.607839  1
  C  C15  1  0.333335  0.666670  0.890061  1
