# generated using pymatgen
data_BS27
_symmetry_space_group_name_H-M   'P 1'
_cell_length_a   5.26119079
_cell_length_b   14.91198317
_cell_length_c   15.17349316
_cell_angle_alpha   119.33925816
_cell_angle_beta   95.73711546
_cell_angle_gamma   97.24010427
_symmetry_Int_Tables_number   1
_chemical_formula_structural   BS27
_chemical_formula_sum   'B1 S27'
_cell_volume   1011.30653501
_cell_formula_units_Z   1
loop_
 _symmetry_equiv_pos_site_id
 _symmetry_equiv_pos_as_xyz
  1  'x, y, z'
loop_
 _atom_site_type_symbol
 _atom_site_label
 _atom_site_symmetry_multiplicity
 _atom_site_fract_x
 _atom_site_fract_y
 _atom_site_fract_z
 _atom_site_occupancy
  B  B0  1  0.950149  0.000033  0.022968  1
  S  S1  1  0.340772  0.397001  0.997584  1
  S  S2  1  0.526085  0.720966  0.001883  1
  S  S3  1  0.253112  0.516406  0.128582  1
  S  S4  1  0.380608  0.744525  0.131160  1
  S  S5  1  0.526600  0.652318  0.182030  1
  S  S6  1  0.640810  0.387244  0.260176  1
  S  S7  1  0.805713  0.279090  0.281318  1
  S  S8  1  0.877029  0.534366  0.351113  1
  S  S9  1  0.123599  0.868071  0.387320  1
  S  S10  1  0.636938  0.255602  0.387166  1
  S  S11  1  0.344485  0.000177  0.400952  1
  S  S12  1  0.341799  0.813570  0.464692  1
  S  S13  1  0.736906  0.615211  0.485150  1
  S  S14  1  0.254246  0.131723  0.519307  1
  S  S15  1  0.875263  0.347903  0.530062  1
  S  S16  1  0.944703  0.603203  0.600498  1
  S  S17  1  0.245768  0.867371  0.608413  1
  S  S18  1  0.737868  0.483776  0.612429  1
  S  S19  1  0.526641  0.186513  0.651250  1
  S  S20  1  0.517078  0.999871  0.715121  1
  S  S21  1  0.377326  0.132270  0.741031  1
  S  S22  1  0.343162  0.465593  0.816841  1
  S  S23  1  0.253723  0.612623  0.872611  1
  S  S24  1  0.121459  0.384764  0.870046  1
  S  S25  1  0.967247  0.081681  0.963262  1
  S  S26  1  0.989158  0.000264  0.135196  1
  S  S27  1  0.887059  0.917888  0.881842  1
