# generated using pymatgen
data_ThRe2Si2TcMo
_symmetry_space_group_name_H-M   'P 1'
_cell_length_a   4.20703700
_cell_length_b   7.14658100
_cell_length_c   15.99888500
_cell_angle_alpha   90.00000000
_cell_angle_beta   90.00000000
_cell_angle_gamma   90.00000000
_symmetry_Int_Tables_number   1
_chemical_formula_structural   ThRe2Si2TcMo
_chemical_formula_sum   'Th4 Re8 Si8 Tc4 Mo4'
_cell_volume   481.02136754
_cell_formula_units_Z   4
loop_
 _symmetry_equiv_pos_site_id
 _symmetry_equiv_pos_as_xyz
  1  'x, y, z'
loop_
 _atom_site_type_symbol
 _atom_site_label
 _atom_site_symmetry_multiplicity
 _atom_site_fract_x
 _atom_site_fract_y
 _atom_site_fract_z
 _atom_site_occupancy
  Th  Th0  1  0.000000  0.586600  0.117666  1
  Th  Th1  1  0.000000  0.413400  0.882334  1
  Th  Th2  1  0.500000  0.086600  0.382334  1
  Th  Th3  1  0.500000  0.913400  0.617666  1
  Re  Re4  1  0.000000  0.434184  0.421834  1
  Re  Re5  1  0.000000  0.565816  0.578166  1
  Re  Re6  1  0.500000  0.934184  0.078166  1
  Re  Re7  1  0.500000  0.065816  0.921834  1
  Re  Re8  1  0.000000  0.002711  0.204238  1
  Re  Re9  1  0.000000  0.997289  0.795762  1
  Re  Re10  1  0.500000  0.502711  0.295762  1
  Re  Re11  1  0.500000  0.497289  0.704238  1
  Si  Si12  1  0.000000  0.830108  0.474604  1
  Si  Si13  1  0.000000  0.169892  0.525396  1
  Si  Si14  1  0.500000  0.330108  0.025396  1
  Si  Si15  1  0.500000  0.669892  0.974604  1
  Si  Si16  1  0.000000  0.309010  0.276572  1
  Si  Si17  1  0.000000  0.690990  0.723428  1
  Si  Si18  1  0.500000  0.809010  0.223428  1
  Si  Si19  1  0.500000  0.190990  0.776572  1
  Tc  Tc20  1  0.000000  0.142645  0.049770  1
  Tc  Tc21  1  0.000000  0.857355  0.950230  1
  Tc  Tc22  1  0.500000  0.642645  0.450230  1
  Tc  Tc23  1  0.500000  0.357355  0.549770  1
  Mo  Mo24  1  0.000000  0.735571  0.320101  1
  Mo  Mo25  1  0.000000  0.264429  0.679899  1
  Mo  Mo26  1  0.500000  0.235571  0.179899  1
  Mo  Mo27  1  0.500000  0.764429  0.820101  1
