# generated using pymatgen
data_Tb7Nd3(Sn3Bi)2
_symmetry_space_group_name_H-M   'P 1'
_cell_length_a   8.21445800
_cell_length_b   8.25447947
_cell_length_c   15.59111800
_cell_angle_alpha   90.04434717
_cell_angle_beta   90.00000000
_cell_angle_gamma   90.00000000
_symmetry_Int_Tables_number   1
_chemical_formula_structural   Tb7Nd3(Sn3Bi)2
_chemical_formula_sum   'Tb14 Nd6 Sn12 Bi4'
_cell_volume   1057.17219883
_cell_formula_units_Z   2
loop_
 _symmetry_equiv_pos_site_id
 _symmetry_equiv_pos_as_xyz
  1  'x, y, z'
loop_
 _atom_site_type_symbol
 _atom_site_label
 _atom_site_symmetry_multiplicity
 _atom_site_fract_x
 _atom_site_fract_y
 _atom_site_fract_z
 _atom_site_occupancy
  Tb  Tb0  1  0.375066  0.839029  0.875861  1
  Tb  Tb1  1  0.875066  0.660971  0.624139  1
  Tb  Tb2  1  0.623170  0.161559  0.376104  1
  Tb  Tb3  1  0.123170  0.338441  0.123896  1
  Tb  Tb4  1  0.632133  0.162514  0.122007  1
  Tb  Tb5  1  0.132133  0.337486  0.377993  1
  Tb  Tb6  1  0.367453  0.838027  0.623340  1
  Tb  Tb7  1  0.867453  0.661973  0.876660  1
  Tb  Tb8  1  0.542128  0.326227  0.894341  1
  Tb  Tb9  1  0.042128  0.173773  0.605659  1
  Tb  Tb10  1  0.201545  0.500674  0.747010  1
  Tb  Tb11  1  0.701545  0.999326  0.752990  1
  Tb  Tb12  1  0.798274  0.498800  0.246891  1
  Tb  Tb13  1  0.298274  0.001200  0.253109  1
  Nd  Nd14  1  0.461896  0.675677  0.397380  1
  Nd  Nd15  1  0.961896  0.824323  0.102620  1
  Nd  Nd16  1  0.476673  0.675837  0.101105  1
  Nd  Nd17  1  0.976673  0.824163  0.398895  1
  Nd  Nd18  1  0.522063  0.323170  0.601053  1
  Nd  Nd19  1  0.022063  0.176830  0.898947  1
  Sn  Sn20  1  0.709414  0.965336  0.956293  1
  Sn  Sn21  1  0.209414  0.534664  0.543707  1
  Sn  Sn22  1  0.286795  0.037234  0.458642  1
  Sn  Sn23  1  0.786795  0.462766  0.041358  1
  Sn  Sn24  1  0.568393  0.623069  0.748799  1
  Sn  Sn25  1  0.068393  0.876931  0.751201  1
  Sn  Sn26  1  0.430826  0.375734  0.248168  1
  Sn  Sn27  1  0.930826  0.124266  0.251832  1
  Sn  Sn28  1  0.337160  0.145855  0.752690  1
  Sn  Sn29  1  0.837160  0.354145  0.747310  1
  Sn  Sn30  1  0.663581  0.856655  0.251224  1
  Sn  Sn31  1  0.163581  0.643345  0.248776  1
  Bi  Bi32  1  0.286573  0.033018  0.043524  1
  Bi  Bi33  1  0.786573  0.466982  0.456476  1
  Bi  Bi34  1  0.716856  0.970123  0.544050  1
  Bi  Bi35  1  0.216856  0.529877  0.955950  1
