# generated using pymatgen
data_Sm2Pa2Pd11Pt
_symmetry_space_group_name_H-M   'P 1'
_cell_length_a   5.83344400
_cell_length_b   5.82889526
_cell_length_c   9.69645600
_cell_angle_alpha   90.00000000
_cell_angle_beta   90.00000000
_cell_angle_gamma   120.02582941
_symmetry_Int_Tables_number   1
_chemical_formula_structural   Sm2Pa2Pd11Pt
_chemical_formula_sum   'Sm2 Pa2 Pd11 Pt1'
_cell_volume   285.45775947
_cell_formula_units_Z   1
loop_
 _symmetry_equiv_pos_site_id
 _symmetry_equiv_pos_as_xyz
  1  'x, y, z'
loop_
 _atom_site_type_symbol
 _atom_site_label
 _atom_site_symmetry_multiplicity
 _atom_site_fract_x
 _atom_site_fract_y
 _atom_site_fract_z
 _atom_site_occupancy
  Sm  Sm0  1  0.999663  0.999327  0.499795  1
  Sm  Sm1  1  0.999663  0.999327  0.000205  1
  Pa  Pa2  1  0.334316  0.668631  0.250000  1
  Pa  Pa3  1  0.666579  0.333158  0.750000  1
  Pd  Pd4  1  0.499486  0.498847  0.500733  1
  Pd  Pd5  1  0.499718  0.999436  0.500949  1
  Pd  Pd6  1  0.999360  0.498847  0.500733  1
  Pd  Pd7  1  0.499486  0.498847  0.999267  1
  Pd  Pd8  1  0.499718  0.999436  0.999051  1
  Pd  Pd9  1  0.999360  0.498847  0.999267  1
  Pd  Pd10  1  0.348435  0.175622  0.250000  1
  Pd  Pd11  1  0.827185  0.175622  0.250000  1
  Pd  Pd12  1  0.173805  0.347610  0.750000  1
  Pd  Pd13  1  0.653087  0.826465  0.750000  1
  Pd  Pd14  1  0.173379  0.826465  0.750000  1
  Pt  Pt15  1  0.826756  0.653512  0.250000  1
