# generated using pymatgen
data_Er8PPd11Pt13
_symmetry_space_group_name_H-M   'P 1'
_cell_length_a   8.31765900
_cell_length_b   8.33072800
_cell_length_c   8.31689700
_cell_angle_alpha   90.00000000
_cell_angle_beta   90.00000000
_cell_angle_gamma   90.00000000
_symmetry_Int_Tables_number   1
_chemical_formula_structural   Er8PPd11Pt13
_chemical_formula_sum   'Er8 P1 Pd11 Pt13'
_cell_volume   576.29571376
_cell_formula_units_Z   1
loop_
 _symmetry_equiv_pos_site_id
 _symmetry_equiv_pos_as_xyz
  1  'x, y, z'
loop_
 _atom_site_type_symbol
 _atom_site_label
 _atom_site_symmetry_multiplicity
 _atom_site_fract_x
 _atom_site_fract_y
 _atom_site_fract_z
 _atom_site_occupancy
  Er  Er0  1  0.255285  0.255751  0.255357  1
  Er  Er1  1  0.744306  0.743799  0.744294  1
  Er  Er2  1  0.744306  0.743799  0.255706  1
  Er  Er3  1  0.744306  0.256201  0.744294  1
  Er  Er4  1  0.255285  0.255751  0.744643  1
  Er  Er5  1  0.255285  0.744249  0.255357  1
  Er  Er6  1  0.255285  0.744249  0.744643  1
  Er  Er7  1  0.744306  0.256201  0.255706  1
  P  P8  1  0.003666  0.000000  0.000000  1
  Pd  Pd9  1  0.500028  0.000000  0.255812  1
  Pd  Pd10  1  0.255492  0.000000  0.500000  1
  Pd  Pd11  1  0.500028  0.000000  0.744188  1
  Pd  Pd12  1  0.743685  0.000000  0.500000  1
  Pd  Pd13  1  0.999975  0.500000  0.255135  1
  Pd  Pd14  1  0.999975  0.500000  0.744865  1
  Pd  Pd15  1  0.727972  0.000000  0.000000  1
  Pd  Pd16  1  0.999273  0.274977  0.000000  1
  Pd  Pd17  1  0.999273  0.725023  0.000000  1
  Pd  Pd18  1  0.999086  0.000000  0.275644  1
  Pd  Pd19  1  0.999086  0.000000  0.724356  1
  Pt  Pt20  1  0.255034  0.500000  0.000000  1
  Pt  Pt21  1  0.743606  0.500000  0.000000  1
  Pt  Pt22  1  0.000011  0.256313  0.500000  1
  Pt  Pt23  1  0.499660  0.255118  0.000000  1
  Pt  Pt24  1  0.000011  0.743687  0.500000  1
  Pt  Pt25  1  0.499660  0.744882  0.000000  1
  Pt  Pt26  1  0.250963  0.500000  0.500000  1
  Pt  Pt27  1  0.749262  0.500000  0.500000  1
  Pt  Pt28  1  0.499915  0.251541  0.500000  1
  Pt  Pt29  1  0.499915  0.748459  0.500000  1
  Pt  Pt30  1  0.499868  0.500000  0.251535  1
  Pt  Pt31  1  0.499868  0.500000  0.748465  1
  Pt  Pt32  1  0.276325  0.000000  0.000000  1
