# generated using pymatgen
data_Sr6Mg2MnNiO12
_symmetry_space_group_name_H-M   'P 1'
_cell_length_a   6.65472734
_cell_length_b   6.65472775
_cell_length_c   6.65472759
_cell_angle_alpha   93.15053734
_cell_angle_beta   93.15053445
_cell_angle_gamma   93.15052463
_symmetry_Int_Tables_number   1
_chemical_formula_structural   Sr6Mg2MnNiO12
_chemical_formula_sum   'Sr6 Mg2 Mn1 Ni1 O12'
_cell_volume   293.31981210
_cell_formula_units_Z   1
loop_
 _symmetry_equiv_pos_site_id
 _symmetry_equiv_pos_as_xyz
  1  'x, y, z'
loop_
 _atom_site_type_symbol
 _atom_site_label
 _atom_site_symmetry_multiplicity
 _atom_site_fract_x
 _atom_site_fract_y
 _atom_site_fract_z
 _atom_site_occupancy
  Sr  Sr0  1  0.885887  0.616100  0.248763  1
  Sr  Sr1  1  0.248763  0.885887  0.616100  1
  Sr  Sr2  1  0.616100  0.248763  0.885887  1
  Sr  Sr3  1  0.751237  0.114113  0.383900  1
  Sr  Sr4  1  0.383900  0.751237  0.114113  1
  Sr  Sr5  1  0.114113  0.383900  0.751237  1
  Mg  Mg6  1  0.247787  0.247787  0.247787  1
  Mg  Mg7  1  0.752213  0.752213  0.752213  1
  Mn  Mn8  1  0.500000  0.500000  0.500000  1
  Ni  Ni9  1  0.000000  0.000000  0.000000  1
  O  O10  1  0.220258  0.538087  0.410395  1
  O  O11  1  0.410395  0.220258  0.538087  1
  O  O12  1  0.538087  0.410395  0.220258  1
  O  O13  1  0.911723  0.036838  0.723742  1
  O  O14  1  0.723742  0.911723  0.036838  1
  O  O15  1  0.036838  0.723742  0.911723  1
  O  O16  1  0.779742  0.461913  0.589605  1
  O  O17  1  0.589605  0.779742  0.461913  1
  O  O18  1  0.461913  0.589605  0.779742  1
  O  O19  1  0.088277  0.963162  0.276258  1
  O  O20  1  0.276258  0.088277  0.963162  1
  O  O21  1  0.963162  0.276258  0.088277  1
