# generated using pymatgen
data_Li2RhF5
_symmetry_space_group_name_H-M   'P 1'
_cell_length_a   5.83957612
_cell_length_b   5.83957580
_cell_length_c   7.14906663
_cell_angle_alpha   70.61009305
_cell_angle_beta   70.61009378
_cell_angle_gamma   52.92829052
_symmetry_Int_Tables_number   1
_chemical_formula_structural   Li2RhF5
_chemical_formula_sum   'Li4 Rh2 F10'
_cell_volume   180.64313792
_cell_formula_units_Z   2
loop_
 _symmetry_equiv_pos_site_id
 _symmetry_equiv_pos_as_xyz
  1  'x, y, z'
loop_
 _atom_site_type_symbol
 _atom_site_label
 _atom_site_symmetry_multiplicity
 _atom_site_fract_x
 _atom_site_fract_y
 _atom_site_fract_z
 _atom_site_occupancy
  Li  Li0  1  0.665813  0.622042  0.760498  1
  Li  Li1  1  0.622042  0.665813  0.260498  1
  Li  Li2  1  0.377958  0.334187  0.739502  1
  Li  Li3  1  0.334187  0.377958  0.239502  1
  Rh  Rh4  1  0.000000  0.000000  0.000000  1
  Rh  Rh5  1  0.000000  0.000000  0.500000  1
  F  F6  1  0.818553  0.181447  0.250000  1
  F  F7  1  0.754282  0.417883  0.541508  1
  F  F8  1  0.970202  0.658840  0.149885  1
  F  F9  1  0.658840  0.970202  0.649885  1
  F  F10  1  0.417883  0.754282  0.041508  1
  F  F11  1  0.181447  0.818553  0.750000  1
  F  F12  1  0.582117  0.245718  0.958492  1
  F  F13  1  0.341160  0.029798  0.350115  1
  F  F14  1  0.029798  0.341160  0.850115  1
  F  F15  1  0.245718  0.582117  0.458492  1
