# generated using pymatgen
data_Ho3Er2In4IrPt
_symmetry_space_group_name_H-M   'P 1'
_cell_length_a   3.61339400
_cell_length_b   8.10301828
_cell_length_c   18.18555101
_cell_angle_alpha   89.95481920
_cell_angle_beta   90.00000000
_cell_angle_gamma   90.00000000
_symmetry_Int_Tables_number   1
_chemical_formula_structural   Ho3Er2In4IrPt
_chemical_formula_sum   'Ho6 Er4 In8 Ir2 Pt2'
_cell_volume   532.46181403
_cell_formula_units_Z   2
loop_
 _symmetry_equiv_pos_site_id
 _symmetry_equiv_pos_as_xyz
  1  'x, y, z'
loop_
 _atom_site_type_symbol
 _atom_site_label
 _atom_site_symmetry_multiplicity
 _atom_site_fract_x
 _atom_site_fract_y
 _atom_site_fract_z
 _atom_site_occupancy
  Ho  Ho0  1  0.000000  0.236427  0.221879  1
  Ho  Ho1  1  0.000000  0.763573  0.778121  1
  Ho  Ho2  1  0.000000  0.249032  0.720097  1
  Ho  Ho3  1  0.000000  0.750968  0.279903  1
  Ho  Ho4  1  0.000000  0.000000  0.000000  1
  Ho  Ho5  1  0.000000  0.500000  0.500000  1
  Er  Er6  1  0.000000  0.115078  0.411942  1
  Er  Er7  1  0.000000  0.884922  0.588058  1
  Er  Er8  1  0.000000  0.383255  0.913869  1
  Er  Er9  1  0.000000  0.616745  0.086131  1
  In  In10  1  0.500000  0.423497  0.351026  1
  In  In11  1  0.500000  0.576503  0.648974  1
  In  In12  1  0.500000  0.074772  0.850720  1
  In  In13  1  0.500000  0.925228  0.149280  1
  In  In14  1  0.500000  0.292672  0.066480  1
  In  In15  1  0.500000  0.707328  0.933520  1
  In  In16  1  0.500000  0.206446  0.567272  1
  In  In17  1  0.500000  0.793554  0.432728  1
  Ir  Ir18  1  0.500000  0.021917  0.303970  1
  Ir  Ir19  1  0.500000  0.978083  0.696030  1
  Pt  Pt20  1  0.500000  0.476885  0.803645  1
  Pt  Pt21  1  0.500000  0.523115  0.196355  1
