# generated using pymatgen
data_Dy9Ho11Pb16
_symmetry_space_group_name_H-M   'P 1'
_cell_length_a   8.19555503
_cell_length_b   8.27132803
_cell_length_c   15.61314400
_cell_angle_alpha   90.00462690
_cell_angle_beta   89.99996423
_cell_angle_gamma   90.00867867
_symmetry_Int_Tables_number   1
_chemical_formula_structural   Dy9Ho11Pb16
_chemical_formula_sum   'Dy9 Ho11 Pb16'
_cell_volume   1058.38572721
_cell_formula_units_Z   1
loop_
 _symmetry_equiv_pos_site_id
 _symmetry_equiv_pos_as_xyz
  1  'x, y, z'
loop_
 _atom_site_type_symbol
 _atom_site_label
 _atom_site_symmetry_multiplicity
 _atom_site_fract_x
 _atom_site_fract_y
 _atom_site_fract_z
 _atom_site_occupancy
  Dy  Dy0  1  0.876727  0.658816  0.879172  1
  Dy  Dy1  1  0.536162  0.323523  0.899864  1
  Dy  Dy2  1  0.036196  0.176478  0.600133  1
  Dy  Dy3  1  0.463807  0.676469  0.399858  1
  Dy  Dy4  1  0.963832  0.823521  0.100159  1
  Dy  Dy5  1  0.463806  0.676418  0.100121  1
  Dy  Dy6  1  0.963783  0.823542  0.399849  1
  Dy  Dy7  1  0.536209  0.323529  0.600141  1
  Dy  Dy8  1  0.036208  0.176399  0.899848  1
  Ho  Ho9  1  0.376546  0.841285  0.879128  1
  Ho  Ho10  1  0.876612  0.658732  0.620825  1
  Ho  Ho11  1  0.623401  0.158720  0.379165  1
  Ho  Ho12  1  0.123381  0.341324  0.120861  1
  Ho  Ho13  1  0.623387  0.158739  0.120884  1
  Ho  Ho14  1  0.123387  0.341260  0.379159  1
  Ho  Ho15  1  0.376630  0.841265  0.620832  1
  Ho  Ho16  1  0.208610  0.504118  0.749955  1
  Ho  Ho17  1  0.708524  0.995934  0.749918  1
  Ho  Ho18  1  0.791429  0.495876  0.250051  1
  Ho  Ho19  1  0.291434  0.004113  0.250034  1
  Pb  Pb20  1  0.281055  0.032896  0.042791  1
  Pb  Pb21  1  0.781055  0.467108  0.457217  1
  Pb  Pb22  1  0.718961  0.967114  0.542763  1
  Pb  Pb23  1  0.219012  0.532878  0.957248  1
  Pb  Pb24  1  0.718864  0.967174  0.957238  1
  Pb  Pb25  1  0.218938  0.532893  0.542770  1
  Pb  Pb26  1  0.281052  0.032897  0.457205  1
  Pb  Pb27  1  0.781046  0.467015  0.042845  1
  Pb  Pb28  1  0.571733  0.625999  0.750000  1
  Pb  Pb29  1  0.071788  0.874045  0.750017  1
  Pb  Pb30  1  0.428243  0.373997  0.249992  1
  Pb  Pb31  1  0.928244  0.126008  0.249995  1
  Pb  Pb32  1  0.347080  0.153249  0.749981  1
  Pb  Pb33  1  0.847088  0.346681  0.749998  1
  Pb  Pb34  1  0.652897  0.846691  0.249993  1
  Pb  Pb35  1  0.152873  0.653292  0.249993  1
