# generated using pymatgen
data_BaLa2(H6Ru)2
_symmetry_space_group_name_H-M   'P 1'
_cell_length_a   5.19397400
_cell_length_b   5.19397313
_cell_length_c   8.71968100
_cell_angle_alpha   90.00000000
_cell_angle_beta   90.00000000
_cell_angle_gamma   119.99999282
_symmetry_Int_Tables_number   1
_chemical_formula_structural   BaLa2(H6Ru)2
_chemical_formula_sum   'Ba1 La2 H12 Ru2'
_cell_volume   203.71862196
_cell_formula_units_Z   1
loop_
 _symmetry_equiv_pos_site_id
 _symmetry_equiv_pos_as_xyz
  1  'x, y, z'
loop_
 _atom_site_type_symbol
 _atom_site_label
 _atom_site_symmetry_multiplicity
 _atom_site_fract_x
 _atom_site_fract_y
 _atom_site_fract_z
 _atom_site_occupancy
  Ba  Ba0  1  0.000000  0.000000  0.000000  1
  La  La1  1  0.666667  0.333333  0.360692  1
  La  La2  1  0.333333  0.666667  0.639308  1
  H  H3  1  0.174505  0.825495  0.378108  1
  H  H4  1  0.650990  0.825495  0.378108  1
  H  H5  1  0.174505  0.349010  0.378108  1
  H  H6  1  0.825495  0.174505  0.621892  1
  H  H7  1  0.349010  0.174505  0.621892  1
  H  H8  1  0.825495  0.650990  0.621892  1
  H  H9  1  0.515851  0.031701  0.853253  1
  H  H10  1  0.515851  0.484149  0.853253  1
  H  H11  1  0.968299  0.484149  0.853253  1
  H  H12  1  0.484149  0.968299  0.146747  1
  H  H13  1  0.484149  0.515851  0.146747  1
  H  H14  1  0.031701  0.515851  0.146747  1
  Ru  Ru15  1  0.666667  0.333333  0.732633  1
  Ru  Ru16  1  0.333333  0.666667  0.267367  1
