# generated using pymatgen
data_Ca4Er3LuHg8
_symmetry_space_group_name_H-M   'P 1'
_cell_length_a   7.49845200
_cell_length_b   7.49229600
_cell_length_c   7.42100600
_cell_angle_alpha   90.00000000
_cell_angle_beta   89.99840303
_cell_angle_gamma   90.00000000
_symmetry_Int_Tables_number   1
_chemical_formula_structural   Ca4Er3LuHg8
_chemical_formula_sum   'Ca4 Er3 Lu1 Hg8'
_cell_volume   416.91673240
_cell_formula_units_Z   1
loop_
 _symmetry_equiv_pos_site_id
 _symmetry_equiv_pos_as_xyz
  1  'x, y, z'
loop_
 _atom_site_type_symbol
 _atom_site_label
 _atom_site_symmetry_multiplicity
 _atom_site_fract_x
 _atom_site_fract_y
 _atom_site_fract_z
 _atom_site_occupancy
  Ca  Ca0  1  0.749488  0.250000  0.000104  1
  Ca  Ca1  1  0.249500  0.750000  0.499885  1
  Ca  Ca2  1  0.750515  0.250000  0.500111  1
  Ca  Ca3  1  0.250536  0.750000  0.999877  1
  Er  Er4  1  0.250489  0.250000  0.000003  1
  Er  Er5  1  0.749549  0.750000  0.999987  1
  Er  Er6  1  0.750522  0.750000  0.500018  1
  Lu  Lu7  1  0.249312  0.250000  0.500016  1
  Hg  Hg8  1  0.000038  0.500289  0.248448  1
  Hg  Hg9  1  0.000038  0.999713  0.248448  1
  Hg  Hg10  1  0.500340  0.999927  0.251133  1
  Hg  Hg11  1  0.500340  0.500073  0.251133  1
  Hg  Hg12  1  0.499992  0.500283  0.748871  1
  Hg  Hg13  1  0.499992  0.999719  0.748871  1
  Hg  Hg14  1  0.999673  0.999916  0.751547  1
  Hg  Hg15  1  0.999673  0.500084  0.751547  1
