# generated using pymatgen
data_La4DyGaSn2
_symmetry_space_group_name_H-M   'P 1'
_cell_length_a   9.34999660
_cell_length_b   9.34998515
_cell_length_c   9.34999700
_cell_angle_alpha   96.52332393
_cell_angle_beta   96.52369215
_cell_angle_gamma   140.60412866
_symmetry_Int_Tables_number   1
_chemical_formula_structural   La4DyGaSn2
_chemical_formula_sum   'La8 Dy2 Ga2 Sn4'
_cell_volume   488.42423841
_cell_formula_units_Z   2
loop_
 _symmetry_equiv_pos_site_id
 _symmetry_equiv_pos_as_xyz
  1  'x, y, z'
loop_
 _atom_site_type_symbol
 _atom_site_label
 _atom_site_symmetry_multiplicity
 _atom_site_fract_x
 _atom_site_fract_y
 _atom_site_fract_z
 _atom_site_occupancy
  La  La0  1  0.913141  0.217392  0.130273  1
  La  La1  1  0.217302  0.086981  0.304256  1
  La  La2  1  0.782698  0.913019  0.695744  1
  La  La3  1  0.086859  0.782608  0.869727  1
  La  La4  1  0.717275  0.413019  0.130319  1
  La  La5  1  0.282725  0.586981  0.869681  1
  La  La6  1  0.587118  0.717392  0.304252  1
  La  La7  1  0.412882  0.282608  0.695748  1
  Dy  Dy8  1  0.749994  0.250000  0.499994  1
  Dy  Dy9  1  0.250006  0.750000  0.500006  1
  Ga  Ga10  1  0.750022  0.750000  0.000022  1
  Ga  Ga11  1  0.249978  0.250000  0.999978  1
  Sn  Sn12  1  0.845510  0.654487  0.500007  1
  Sn  Sn13  1  0.654480  0.154487  0.808976  1
  Sn  Sn14  1  0.345520  0.845513  0.191024  1
  Sn  Sn15  1  0.154490  0.345513  0.499993  1
