# generated using pymatgen
data_Zr2Fe4Co8P7
_symmetry_space_group_name_H-M   'P 1'
_cell_length_a   8.92167181
_cell_length_b   8.91310721
_cell_length_c   3.59059600
_cell_angle_alpha   90.00000000
_cell_angle_beta   90.00000000
_cell_angle_gamma   120.10476221
_symmetry_Int_Tables_number   1
_chemical_formula_structural   Zr2Fe4Co8P7
_chemical_formula_sum   'Zr2 Fe4 Co8 P7'
_cell_volume   247.00919202
_cell_formula_units_Z   1
loop_
 _symmetry_equiv_pos_site_id
 _symmetry_equiv_pos_as_xyz
  1  'x, y, z'
loop_
 _atom_site_type_symbol
 _atom_site_label
 _atom_site_symmetry_multiplicity
 _atom_site_fract_x
 _atom_site_fract_y
 _atom_site_fract_z
 _atom_site_occupancy
  Zr  Zr0  1  0.000980  0.002081  0.000000  1
  Zr  Zr1  1  0.332766  0.665419  0.500000  1
  Fe  Fe2  1  0.230542  0.283250  0.500000  1
  Fe  Fe3  1  0.886122  0.426897  0.500000  1
  Fe  Fe4  1  0.540656  0.114077  0.500000  1
  Fe  Fe5  1  0.574075  0.458378  0.500000  1
  Co  Co6  1  0.098658  0.395801  0.000000  1
  Co  Co7  1  0.295422  0.899054  0.000000  1
  Co  Co8  1  0.603595  0.703908  0.000000  1
  Co  Co9  1  0.826641  0.611540  0.000000  1
  Co  Co10  1  0.783700  0.172701  0.000000  1
  Co  Co11  1  0.390653  0.215517  0.000000  1
  Co  Co12  1  0.053443  0.771515  0.500000  1
  Co  Co13  1  0.716801  0.946040  0.500000  1
  P  P14  1  0.078924  0.629353  0.000000  1
  P  P15  1  0.549504  0.920095  0.000000  1
  P  P16  1  0.368299  0.448156  0.000000  1
  P  P17  1  0.783668  0.739165  0.500000  1
  P  P18  1  0.956768  0.217059  0.500000  1
  P  P19  1  0.261198  0.046446  0.500000  1
  P  P20  1  0.667587  0.333549  0.000000  1
