# generated using pymatgen
data_U3Cu(PO5)4
_symmetry_space_group_name_H-M   'P 1'
_cell_length_a   5.42817963
_cell_length_b   8.56065579
_cell_length_c   9.18857400
_cell_angle_alpha   101.11369395
_cell_angle_beta   103.09545910
_cell_angle_gamma   95.12809796
_symmetry_Int_Tables_number   1
_chemical_formula_structural   U3Cu(PO5)4
_chemical_formula_sum   'U3 Cu1 P4 O20'
_cell_volume   404.10449282
_cell_formula_units_Z   1
loop_
 _symmetry_equiv_pos_site_id
 _symmetry_equiv_pos_as_xyz
  1  'x, y, z'
loop_
 _atom_site_type_symbol
 _atom_site_label
 _atom_site_symmetry_multiplicity
 _atom_site_fract_x
 _atom_site_fract_y
 _atom_site_fract_z
 _atom_site_occupancy
  U  U0  1  0.647281  0.700324  0.956530  1
  U  U1  1  0.338200  0.801919  0.551522  1
  U  U2  1  0.655493  0.207161  0.439938  1
  Cu  Cu3  1  0.286524  0.266487  0.017166  1
  P  P4  1  0.108488  0.506171  0.772028  1
  P  P5  1  0.944765  0.475948  0.233280  1
  P  P6  1  0.267748  0.933706  0.175968  1
  P  P7  1  0.696051  0.085073  0.828442  1
  O  O8  1  0.982416  0.124317  0.879722  1
  O  O9  1  0.983616  0.866492  0.097139  1
  O  O10  1  0.983404  0.367086  0.641255  1
  O  O11  1  0.066265  0.618716  0.366872  1
  O  O12  1  0.754208  0.364971  0.279393  1
  O  O13  1  0.284540  0.639461  0.733817  1
  O  O14  1  0.420472  0.814957  0.085743  1
  O  O15  1  0.556049  0.192843  0.923635  1
  O  O16  1  0.428086  0.328065  0.497852  1
  O  O17  1  0.596970  0.697188  0.514857  1
  O  O18  1  0.888306  0.590366  0.831157  1
  O  O19  1  0.143592  0.400329  0.162401  1
  O  O20  1  0.305777  0.471310  0.909978  1
  O  O21  1  0.773156  0.560264  0.107503  1
  O  O22  1  0.876730  0.082257  0.380160  1
  O  O23  1  0.089101  0.904155  0.605877  1
  O  O24  1  0.347713  0.928779  0.345988  1
  O  O25  1  0.600113  0.067544  0.651234  1
  O  O26  1  0.352810  0.106812  0.171696  1
  O  O27  1  0.622125  0.897300  0.838846  1
