# generated using pymatgen
data_Hf7Nb3Sn7Au
_symmetry_space_group_name_H-M   'P 1'
_cell_length_a   5.80410300
_cell_length_b   8.65733681
_cell_length_c   8.65736100
_cell_angle_alpha   119.99918741
_cell_angle_beta   90.00010146
_cell_angle_gamma   89.99974762
_symmetry_Int_Tables_number   1
_chemical_formula_structural   Hf7Nb3Sn7Au
_chemical_formula_sum   'Hf7 Nb3 Sn7 Au1'
_cell_volume   376.73775052
_cell_formula_units_Z   1
loop_
 _symmetry_equiv_pos_site_id
 _symmetry_equiv_pos_as_xyz
  1  'x, y, z'
loop_
 _atom_site_type_symbol
 _atom_site_label
 _atom_site_symmetry_multiplicity
 _atom_site_fract_x
 _atom_site_fract_y
 _atom_site_fract_z
 _atom_site_occupancy
  Hf  Hf0  1  0.000009  0.333340  0.666680  1
  Hf  Hf1  1  0.744450  0.281338  0.000562  1
  Hf  Hf2  1  0.744460  0.719220  0.718670  1
  Hf  Hf3  1  0.744420  0.999449  0.280772  1
  Hf  Hf4  1  0.255547  0.719291  0.000571  1
  Hf  Hf5  1  0.255547  0.281263  0.280719  1
  Hf  Hf6  1  0.255511  0.999433  0.718723  1
  Nb  Nb7  1  0.499974  0.333334  0.666676  1
  Nb  Nb8  1  0.499997  0.666666  0.333335  1
  Nb  Nb9  1  0.999928  0.666676  0.333323  1
  Sn  Sn10  1  0.750963  0.615712  0.002216  1
  Sn  Sn11  1  0.750959  0.386497  0.384303  1
  Sn  Sn12  1  0.750956  0.997804  0.613504  1
  Sn  Sn13  1  0.249021  0.386514  0.002210  1
  Sn  Sn14  1  0.249051  0.615687  0.613500  1
  Sn  Sn15  1  0.249027  0.997794  0.384294  1
  Sn  Sn16  1  0.000315  0.999989  0.999981  1
  Au  Au17  1  0.499862  0.999992  0.999962  1
