# generated using pymatgen
data_Ho3Er5Si12PtRh3
_symmetry_space_group_name_H-M   'P 1'
_cell_length_a   8.15289903
_cell_length_b   8.15290089
_cell_length_c   7.85005500
_cell_angle_alpha   90.00092767
_cell_angle_beta   89.99907638
_cell_angle_gamma   120.00752824
_symmetry_Int_Tables_number   1
_chemical_formula_structural   Ho3Er5Si12PtRh3
_chemical_formula_sum   'Ho3 Er5 Si12 Pt1 Rh3'
_cell_volume   451.85033399
_cell_formula_units_Z   1
loop_
 _symmetry_equiv_pos_site_id
 _symmetry_equiv_pos_as_xyz
  1  'x, y, z'
loop_
 _atom_site_type_symbol
 _atom_site_label
 _atom_site_symmetry_multiplicity
 _atom_site_fract_x
 _atom_site_fract_y
 _atom_site_fract_z
 _atom_site_occupancy
  Ho  Ho0  1  0.000046  0.999954  0.249531  1
  Ho  Ho1  1  0.999982  0.000018  0.751164  1
  Ho  Ho2  1  0.490208  0.509792  0.247976  1
  Er  Er3  1  0.490257  0.980677  0.247911  1
  Er  Er4  1  0.019323  0.509743  0.247911  1
  Er  Er5  1  0.508170  0.491830  0.751848  1
  Er  Er6  1  0.983595  0.491755  0.751862  1
  Er  Er7  1  0.508245  0.016405  0.751862  1
  Si  Si8  1  0.835685  0.164315  0.501162  1
  Si  Si9  1  0.835597  0.671154  0.501361  1
  Si  Si10  1  0.328846  0.164403  0.501361  1
  Si  Si11  1  0.833176  0.166824  0.999313  1
  Si  Si12  1  0.833125  0.666171  0.999094  1
  Si  Si13  1  0.333829  0.166875  0.999094  1
  Si  Si14  1  0.166922  0.833078  0.000654  1
  Si  Si15  1  0.666087  0.833135  0.000303  1
  Si  Si16  1  0.166865  0.333913  0.000303  1
  Si  Si17  1  0.167795  0.832205  0.498764  1
  Si  Si18  1  0.664332  0.832258  0.499141  1
  Si  Si19  1  0.167742  0.335668  0.499141  1
  Pt  Pt20  1  0.666878  0.333122  0.466502  1
  Rh  Rh21  1  0.666871  0.333129  0.033713  1
  Rh  Rh22  1  0.333207  0.666793  0.963810  1
  Rh  Rh23  1  0.333217  0.666783  0.536218  1
