# generated using pymatgen
data_HoMgB6Ir
_symmetry_space_group_name_H-M   'P 1'
_cell_length_a   3.55022100
_cell_length_b   8.90842600
_cell_length_c   11.31553900
_cell_angle_alpha   90.00000000
_cell_angle_beta   90.00000000
_cell_angle_gamma   90.00000000
_symmetry_Int_Tables_number   1
_chemical_formula_structural   HoMgB6Ir
_chemical_formula_sum   'Ho4 Mg4 B24 Ir4'
_cell_volume   357.87520611
_cell_formula_units_Z   4
loop_
 _symmetry_equiv_pos_site_id
 _symmetry_equiv_pos_as_xyz
  1  'x, y, z'
loop_
 _atom_site_type_symbol
 _atom_site_label
 _atom_site_symmetry_multiplicity
 _atom_site_fract_x
 _atom_site_fract_y
 _atom_site_fract_z
 _atom_site_occupancy
  Ho  Ho0  1  0.500000  0.318279  0.414439  1
  Ho  Ho1  1  0.500000  0.681721  0.585561  1
  Ho  Ho2  1  0.500000  0.181721  0.914439  1
  Ho  Ho3  1  0.500000  0.818279  0.085561  1
  Mg  Mg4  1  0.500000  0.448019  0.118507  1
  Mg  Mg5  1  0.500000  0.551981  0.881493  1
  Mg  Mg6  1  0.500000  0.051981  0.618507  1
  Mg  Mg7  1  0.500000  0.948019  0.381493  1
  B  B8  1  0.000000  0.100481  0.472932  1
  B  B9  1  0.000000  0.899519  0.527068  1
  B  B10  1  0.000000  0.399519  0.972932  1
  B  B11  1  0.000000  0.600481  0.027068  1
  B  B12  1  0.000000  0.127775  0.319182  1
  B  B13  1  0.000000  0.872225  0.680818  1
  B  B14  1  0.000000  0.372225  0.819182  1
  B  B15  1  0.000000  0.627775  0.180818  1
  B  B16  1  0.000000  0.055753  0.066970  1
  B  B17  1  0.000000  0.944247  0.933030  1
  B  B18  1  0.000000  0.444247  0.566970  1
  B  B19  1  0.000000  0.555753  0.433030  1
  B  B20  1  0.000000  0.481333  0.284888  1
  B  B21  1  0.000000  0.518667  0.715112  1
  B  B22  1  0.000000  0.018667  0.784888  1
  B  B23  1  0.000000  0.981333  0.215112  1
  B  B24  1  0.000000  0.255487  0.079609  1
  B  B25  1  0.000000  0.744513  0.920391  1
  B  B26  1  0.000000  0.244513  0.579609  1
  B  B27  1  0.000000  0.755487  0.420391  1
  B  B28  1  0.000000  0.293930  0.234865  1
  B  B29  1  0.000000  0.706070  0.765135  1
  B  B30  1  0.000000  0.206070  0.734865  1
  B  B31  1  0.000000  0.793930  0.265135  1
  Ir  Ir32  1  0.500000  0.140618  0.181929  1
  Ir  Ir33  1  0.500000  0.859382  0.818071  1
  Ir  Ir34  1  0.500000  0.359382  0.681929  1
  Ir  Ir35  1  0.500000  0.640618  0.318071  1
