# generated using pymatgen
data_Yb3Eu4ScPt4
_symmetry_space_group_name_H-M   'P 1'
_cell_length_a   4.48547200
_cell_length_b   7.82783393
_cell_length_c   9.03468808
_cell_angle_alpha   91.16134745
_cell_angle_beta   90.00000000
_cell_angle_gamma   90.00000000
_symmetry_Int_Tables_number   1
_chemical_formula_structural   Yb3Eu4ScPt4
_chemical_formula_sum   'Yb3 Eu4 Sc1 Pt4'
_cell_volume   317.15655840
_cell_formula_units_Z   1
loop_
 _symmetry_equiv_pos_site_id
 _symmetry_equiv_pos_as_xyz
  1  'x, y, z'
loop_
 _atom_site_type_symbol
 _atom_site_label
 _atom_site_symmetry_multiplicity
 _atom_site_fract_x
 _atom_site_fract_y
 _atom_site_fract_z
 _atom_site_occupancy
  Yb  Yb0  1  0.500000  0.145562  0.067855  1
  Yb  Yb1  1  0.000000  0.358200  0.565574  1
  Yb  Yb2  1  0.000000  0.853067  0.931860  1
  Eu  Eu3  1  0.500000  0.523444  0.830397  1
  Eu  Eu4  1  0.500000  0.027080  0.666500  1
  Eu  Eu5  1  0.000000  0.476857  0.177348  1
  Eu  Eu6  1  0.000000  0.964128  0.328115  1
  Sc  Sc7  1  0.500000  0.640881  0.437703  1
  Pt  Pt8  1  0.500000  0.764746  0.136437  1
  Pt  Pt9  1  0.500000  0.285795  0.379193  1
  Pt  Pt10  1  0.000000  0.232182  0.877988  1
  Pt  Pt11  1  0.000000  0.728056  0.601028  1
