# generated using pymatgen
data_TmNi2(PRh)3
_symmetry_space_group_name_H-M   'P 1'
_cell_length_a   3.76541000
_cell_length_b   10.72485400
_cell_length_c   12.22211200
_cell_angle_alpha   90.00000000
_cell_angle_beta   90.00000000
_cell_angle_gamma   90.00000000
_symmetry_Int_Tables_number   1
_chemical_formula_structural   TmNi2(PRh)3
_chemical_formula_sum   'Tm4 Ni8 P12 Rh12'
_cell_volume   493.57132385
_cell_formula_units_Z   4
loop_
 _symmetry_equiv_pos_site_id
 _symmetry_equiv_pos_as_xyz
  1  'x, y, z'
loop_
 _atom_site_type_symbol
 _atom_site_label
 _atom_site_symmetry_multiplicity
 _atom_site_fract_x
 _atom_site_fract_y
 _atom_site_fract_z
 _atom_site_occupancy
  Tm  Tm0  1  0.250000  0.584037  0.707609  1
  Tm  Tm1  1  0.250000  0.915963  0.207609  1
  Tm  Tm2  1  0.750000  0.415963  0.292391  1
  Tm  Tm3  1  0.750000  0.084037  0.792391  1
  Ni  Ni4  1  0.250000  0.892216  0.696760  1
  Ni  Ni5  1  0.250000  0.607784  0.196760  1
  Ni  Ni6  1  0.750000  0.107784  0.303240  1
  Ni  Ni7  1  0.750000  0.392216  0.803240  1
  Ni  Ni8  1  0.250000  0.465517  0.933519  1
  Ni  Ni9  1  0.250000  0.034483  0.433519  1
  Ni  Ni10  1  0.750000  0.534483  0.066481  1
  Ni  Ni11  1  0.750000  0.965517  0.566481  1
  P  P12  1  0.250000  0.421275  0.112914  1
  P  P13  1  0.250000  0.078725  0.612914  1
  P  P14  1  0.750000  0.578725  0.887086  1
  P  P15  1  0.750000  0.921275  0.387086  1
  P  P16  1  0.250000  0.271223  0.874241  1
  P  P17  1  0.250000  0.228777  0.374241  1
  P  P18  1  0.750000  0.728777  0.125759  1
  P  P19  1  0.750000  0.771223  0.625759  1
  P  P20  1  0.250000  0.597848  0.382453  1
  P  P21  1  0.250000  0.902152  0.882453  1
  P  P22  1  0.750000  0.402152  0.617547  1
  P  P23  1  0.750000  0.097848  0.117547  1
  Rh  Rh24  1  0.250000  0.711602  0.988627  1
  Rh  Rh25  1  0.250000  0.788398  0.488627  1
  Rh  Rh26  1  0.750000  0.288398  0.011373  1
  Rh  Rh27  1  0.750000  0.211602  0.511373  1
  Rh  Rh28  1  0.250000  0.408453  0.480228  1
  Rh  Rh29  1  0.250000  0.091547  0.980228  1
  Rh  Rh30  1  0.750000  0.591547  0.519772  1
  Rh  Rh31  1  0.750000  0.908453  0.019772  1
  Rh  Rh32  1  0.250000  0.224220  0.184870  1
  Rh  Rh33  1  0.250000  0.275780  0.684870  1
  Rh  Rh34  1  0.750000  0.775780  0.815130  1
  Rh  Rh35  1  0.750000  0.724220  0.315130  1
