# generated using pymatgen
data_Lu4BeFe3B16
_symmetry_space_group_name_H-M   'P 1'
_cell_length_a   3.32656600
_cell_length_b   5.82684833
_cell_length_c   11.25463110
_cell_angle_alpha   90.09190521
_cell_angle_beta   90.00000000
_cell_angle_gamma   90.00000000
_symmetry_Int_Tables_number   1
_chemical_formula_structural   Lu4BeFe3B16
_chemical_formula_sum   'Lu4 Be1 Fe3 B16'
_cell_volume   218.15268540
_cell_formula_units_Z   1
loop_
 _symmetry_equiv_pos_site_id
 _symmetry_equiv_pos_as_xyz
  1  'x, y, z'
loop_
 _atom_site_type_symbol
 _atom_site_label
 _atom_site_symmetry_multiplicity
 _atom_site_fract_x
 _atom_site_fract_y
 _atom_site_fract_z
 _atom_site_occupancy
  Lu  Lu0  1  0.500000  0.372920  0.150254  1
  Lu  Lu1  1  0.500000  0.627967  0.848907  1
  Lu  Lu2  1  0.500000  0.125803  0.649957  1
  Lu  Lu3  1  0.500000  0.873039  0.350638  1
  Be  Be4  1  0.500000  0.367888  0.412877  1
  Fe  Fe5  1  0.500000  0.624259  0.584236  1
  Fe  Fe6  1  0.500000  0.135777  0.911947  1
  Fe  Fe7  1  0.500000  0.864966  0.085758  1
  B  B8  1  0.000000  0.112659  0.047260  1
  B  B9  1  0.000000  0.887977  0.953359  1
  B  B10  1  0.000000  0.388201  0.548137  1
  B  B11  1  0.000000  0.615566  0.454326  1
  B  B12  1  0.000000  0.136974  0.467500  1
  B  B13  1  0.000000  0.863233  0.532138  1
  B  B14  1  0.000000  0.363337  0.968373  1
  B  B15  1  0.000000  0.637141  0.032143  1
  B  B16  1  0.000000  0.025028  0.192758  1
  B  B17  1  0.000000  0.975064  0.808439  1
  B  B18  1  0.000000  0.477727  0.691525  1
  B  B19  1  0.000000  0.523120  0.308634  1
  B  B20  1  0.000000  0.216552  0.316058  1
  B  B21  1  0.000000  0.784084  0.683742  1
  B  B22  1  0.000000  0.283637  0.815300  1
  B  B23  1  0.000000  0.717082  0.185730  1
