# generated using pymatgen
data_Tb5Ir2Ru
_symmetry_space_group_name_H-M   'P 1'
_cell_length_a   10.89357200
_cell_length_b   10.89357200
_cell_length_c   6.43596500
_cell_angle_alpha   90.00000000
_cell_angle_beta   90.00000000
_cell_angle_gamma   90.00000000
_symmetry_Int_Tables_number   1
_chemical_formula_structural   Tb5Ir2Ru
_chemical_formula_sum   'Tb20 Ir8 Ru4'
_cell_volume   763.75539323
_cell_formula_units_Z   4
loop_
 _symmetry_equiv_pos_site_id
 _symmetry_equiv_pos_as_xyz
  1  'x, y, z'
loop_
 _atom_site_type_symbol
 _atom_site_label
 _atom_site_symmetry_multiplicity
 _atom_site_fract_x
 _atom_site_fract_y
 _atom_site_fract_z
 _atom_site_occupancy
  Tb  Tb0  1  0.293737  0.086761  0.378817  1
  Tb  Tb1  1  0.293737  0.913239  0.878817  1
  Tb  Tb2  1  0.706263  0.086761  0.878817  1
  Tb  Tb3  1  0.706263  0.913239  0.378817  1
  Tb  Tb4  1  0.586761  0.793737  0.878817  1
  Tb  Tb5  1  0.586761  0.206263  0.378817  1
  Tb  Tb6  1  0.413239  0.793737  0.378817  1
  Tb  Tb7  1  0.413239  0.206263  0.878817  1
  Tb  Tb8  1  0.206263  0.413239  0.621183  1
  Tb  Tb9  1  0.206263  0.586761  0.121183  1
  Tb  Tb10  1  0.793737  0.413239  0.121183  1
  Tb  Tb11  1  0.793737  0.586761  0.621183  1
  Tb  Tb12  1  0.913239  0.706263  0.121183  1
  Tb  Tb13  1  0.913239  0.293737  0.621183  1
  Tb  Tb14  1  0.086761  0.706263  0.621183  1
  Tb  Tb15  1  0.086761  0.293737  0.121183  1
  Tb  Tb16  1  0.000000  0.000000  0.500000  1
  Tb  Tb17  1  0.000000  0.000000  0.000000  1
  Tb  Tb18  1  0.500000  0.500000  0.000000  1
  Tb  Tb19  1  0.500000  0.500000  0.500000  1
  Ir  Ir20  1  0.847199  0.152801  0.250000  1
  Ir  Ir21  1  0.847199  0.847199  0.750000  1
  Ir  Ir22  1  0.152801  0.152801  0.750000  1
  Ir  Ir23  1  0.152801  0.847199  0.250000  1
  Ir  Ir24  1  0.652801  0.347199  0.750000  1
  Ir  Ir25  1  0.652801  0.652801  0.250000  1
  Ir  Ir26  1  0.347199  0.347199  0.250000  1
  Ir  Ir27  1  0.347199  0.652801  0.750000  1
  Ru  Ru28  1  0.500000  0.000000  0.121075  1
  Ru  Ru29  1  0.500000  0.000000  0.621075  1
  Ru  Ru30  1  0.000000  0.500000  0.878925  1
  Ru  Ru31  1  0.000000  0.500000  0.378925  1
