# generated using pymatgen
data_Pr8Nd2(IrRh)3
_symmetry_space_group_name_H-M   'P 1'
_cell_length_a   11.30893294
_cell_length_b   11.30793300
_cell_length_c   6.67691873
_cell_angle_alpha   90.00000000
_cell_angle_beta   89.91741765
_cell_angle_gamma   90.00000000
_symmetry_Int_Tables_number   1
_chemical_formula_structural   Pr8Nd2(IrRh)3
_chemical_formula_sum   'Pr16 Nd4 Ir6 Rh6'
_cell_volume   853.84786050
_cell_formula_units_Z   2
loop_
 _symmetry_equiv_pos_site_id
 _symmetry_equiv_pos_as_xyz
  1  'x, y, z'
loop_
 _atom_site_type_symbol
 _atom_site_label
 _atom_site_symmetry_multiplicity
 _atom_site_fract_x
 _atom_site_fract_y
 _atom_site_fract_z
 _atom_site_occupancy
  Pr  Pr0  1  0.088848  0.290233  0.114281  1
  Pr  Pr1  1  0.790624  0.409102  0.113691  1
  Pr  Pr2  1  0.208655  0.590891  0.114104  1
  Pr  Pr3  1  0.907079  0.708340  0.113514  1
  Pr  Pr4  1  0.411152  0.790233  0.385719  1
  Pr  Pr5  1  0.592921  0.208340  0.386486  1
  Pr  Pr6  1  0.291345  0.090891  0.385896  1
  Pr  Pr7  1  0.709376  0.909102  0.386309  1
  Pr  Pr8  1  0.410018  0.208756  0.884612  1
  Pr  Pr9  1  0.709219  0.090543  0.885845  1
  Pr  Pr10  1  0.291655  0.909819  0.884237  1
  Pr  Pr11  1  0.590812  0.791197  0.885542  1
  Pr  Pr12  1  0.089982  0.708756  0.615388  1
  Pr  Pr13  1  0.909188  0.291197  0.614458  1
  Pr  Pr14  1  0.208345  0.409819  0.615763  1
  Pr  Pr15  1  0.790781  0.590543  0.614155  1
  Nd  Nd16  1  0.999944  0.999466  0.000037  1
  Nd  Nd17  1  0.499948  0.500515  0.000147  1
  Nd  Nd18  1  0.500056  0.499466  0.499963  1
  Nd  Nd19  1  0.000052  0.000515  0.499853  1
  Ir  Ir20  1  0.652822  0.653338  0.250145  1
  Ir  Ir21  1  0.847178  0.153338  0.249855  1
  Ir  Ir22  1  0.346844  0.652703  0.750074  1
  Ir  Ir23  1  0.153156  0.152703  0.749926  1
  Ir  Ir24  1  0.847740  0.847353  0.750060  1
  Ir  Ir25  1  0.652260  0.347353  0.749940  1
  Rh  Rh26  1  0.153287  0.847152  0.250092  1
  Rh  Rh27  1  0.346713  0.347152  0.249908  1
  Rh  Rh28  1  0.001614  0.500596  0.379557  1
  Rh  Rh29  1  0.498386  0.000596  0.120443  1
  Rh  Rh30  1  0.499213  0.999995  0.619153  1
  Rh  Rh31  1  0.000787  0.499995  0.880847  1
