# generated using pymatgen
data_Eu2BeH6
_symmetry_space_group_name_H-M   'P 1'
_cell_length_a   5.03897846
_cell_length_b   5.03897798
_cell_length_c   5.03909400
_cell_angle_alpha   59.99923837
_cell_angle_beta   59.99924150
_cell_angle_gamma   60.00150707
_symmetry_Int_Tables_number   1
_chemical_formula_structural   Eu2BeH6
_chemical_formula_sum   'Eu2 Be1 H6'
_cell_volume   90.47370619
_cell_formula_units_Z   1
loop_
 _symmetry_equiv_pos_site_id
 _symmetry_equiv_pos_as_xyz
  1  'x, y, z'
loop_
 _atom_site_type_symbol
 _atom_site_label
 _atom_site_symmetry_multiplicity
 _atom_site_fract_x
 _atom_site_fract_y
 _atom_site_fract_z
 _atom_site_occupancy
  Eu  Eu0  1  0.250001  0.250001  0.250001  1
  Eu  Eu1  1  0.750000  0.750000  0.750000  1
  Be  Be2  1  0.000000  0.000000  0.000000  1
  H  H3  1  0.771931  0.228068  0.228068  1
  H  H4  1  0.228068  0.771931  0.228068  1
  H  H5  1  0.771928  0.771928  0.228071  1
  H  H6  1  0.228071  0.228071  0.771928  1
  H  H7  1  0.771931  0.228068  0.771931  1
  H  H8  1  0.228068  0.771931  0.771931  1
