# generated using pymatgen
data_CaGd9Si5Hg
_symmetry_space_group_name_H-M   'P 1'
_cell_length_a   7.63636391
_cell_length_b   7.63636426
_cell_length_c   8.93353200
_cell_angle_alpha   115.30260330
_cell_angle_beta   115.30260455
_cell_angle_gamma   90.00000393
_symmetry_Int_Tables_number   1
_chemical_formula_structural   CaGd9Si5Hg
_chemical_formula_sum   'Ca1 Gd9 Si5 Hg1'
_cell_volume   415.01815888
_cell_formula_units_Z   1
loop_
 _symmetry_equiv_pos_site_id
 _symmetry_equiv_pos_as_xyz
  1  'x, y, z'
loop_
 _atom_site_type_symbol
 _atom_site_label
 _atom_site_symmetry_multiplicity
 _atom_site_fract_x
 _atom_site_fract_y
 _atom_site_fract_z
 _atom_site_occupancy
  Ca  Ca0  1  0.511791  0.511791  0.023582  1
  Gd  Gd1  1  0.979824  0.979824  0.959648  1
  Gd  Gd2  1  0.977252  0.825865  0.285456  1
  Gd  Gd3  1  0.308204  0.459590  0.285456  1
  Gd  Gd4  1  0.825865  0.308204  0.285456  1
  Gd  Gd5  1  0.459590  0.977252  0.285456  1
  Gd  Gd6  1  0.039177  0.196010  0.715845  1
  Gd  Gd7  1  0.676669  0.519836  0.715845  1
  Gd  Gd8  1  0.196010  0.676669  0.715845  1
  Gd  Gd9  1  0.519836  0.039177  0.715845  1
  Si  Si10  1  0.251779  0.251779  0.503558  1
  Si  Si11  1  0.620889  0.887042  0.001883  1
  Si  Si12  1  0.380994  0.114839  0.001883  1
  Si  Si13  1  0.887042  0.380994  0.001883  1
  Si  Si14  1  0.114839  0.620889  0.001883  1
  Hg  Hg15  1  0.750239  0.750239  0.500477  1
