# generated using pymatgen
data_Ho11ScSi12Os3Pt
_symmetry_space_group_name_H-M   'P 1'
_cell_length_a   4.19059400
_cell_length_b   10.66729663
_cell_length_c   12.21435883
_cell_angle_alpha   90.00811511
_cell_angle_beta   90.00000000
_cell_angle_gamma   90.00000000
_symmetry_Int_Tables_number   1
_chemical_formula_structural   Ho11ScSi12Os3Pt
_chemical_formula_sum   'Ho11 Sc1 Si12 Os3 Pt1'
_cell_volume   546.01004022
_cell_formula_units_Z   1
loop_
 _symmetry_equiv_pos_site_id
 _symmetry_equiv_pos_as_xyz
  1  'x, y, z'
loop_
 _atom_site_type_symbol
 _atom_site_label
 _atom_site_symmetry_multiplicity
 _atom_site_fract_x
 _atom_site_fract_y
 _atom_site_fract_z
 _atom_site_occupancy
  Ho  Ho0  1  0.250000  0.880209  0.023659  1
  Ho  Ho1  1  0.250000  0.623067  0.518065  1
  Ho  Ho2  1  0.750000  0.120487  0.982352  1
  Ho  Ho3  1  0.750000  0.381961  0.478715  1
  Ho  Ho4  1  0.250000  0.920235  0.602250  1
  Ho  Ho5  1  0.250000  0.581138  0.106445  1
  Ho  Ho6  1  0.750000  0.077120  0.396267  1
  Ho  Ho7  1  0.750000  0.419627  0.895977  1
  Ho  Ho8  1  0.250000  0.660665  0.799704  1
  Ho  Ho9  1  0.750000  0.340143  0.200200  1
  Ho  Ho10  1  0.750000  0.158815  0.697510  1
  Sc  Sc11  1  0.250000  0.838349  0.297058  1
  Si  Si12  1  0.250000  0.015791  0.823172  1
  Si  Si13  1  0.250000  0.490008  0.320406  1
  Si  Si14  1  0.750000  0.987689  0.181434  1
  Si  Si15  1  0.750000  0.508957  0.679639  1
  Si  Si16  1  0.250000  0.248399  0.839862  1
  Si  Si17  1  0.250000  0.250414  0.341647  1
  Si  Si18  1  0.750000  0.753470  0.163682  1
  Si  Si19  1  0.750000  0.747079  0.653174  1
  Si  Si20  1  0.250000  0.204597  0.543322  1
  Si  Si21  1  0.250000  0.297230  0.045460  1
  Si  Si22  1  0.750000  0.801338  0.446715  1
  Si  Si23  1  0.750000  0.696223  0.960028  1
  Os  Os24  1  0.250000  0.390236  0.680188  1
  Os  Os25  1  0.250000  0.107042  0.182705  1
  Os  Os26  1  0.750000  0.611286  0.319941  1
  Pt  Pt27  1  0.750000  0.888424  0.820424  1
