# generated using pymatgen
data_Tb3Nd4Y(B6Ru)4
_symmetry_space_group_name_H-M   'P 1'
_cell_length_a   3.73135400
_cell_length_b   9.25608415
_cell_length_c   11.66886600
_cell_angle_alpha   90.01123211
_cell_angle_beta   90.00000000
_cell_angle_gamma   90.00000000
_symmetry_Int_Tables_number   1
_chemical_formula_structural   Tb3Nd4Y(B6Ru)4
_chemical_formula_sum   'Tb3 Nd4 Y1 B24 Ru4'
_cell_volume   403.01609632
_cell_formula_units_Z   1
loop_
 _symmetry_equiv_pos_site_id
 _symmetry_equiv_pos_as_xyz
  1  'x, y, z'
loop_
 _atom_site_type_symbol
 _atom_site_label
 _atom_site_symmetry_multiplicity
 _atom_site_fract_x
 _atom_site_fract_y
 _atom_site_fract_z
 _atom_site_occupancy
  Tb  Tb0  1  0.000000  0.943767  0.371519  1
  Tb  Tb1  1  0.000000  0.056294  0.628577  1
  Tb  Tb2  1  0.000000  0.443719  0.128387  1
  Nd  Nd3  1  0.000000  0.323397  0.414229  1
  Nd  Nd4  1  0.000000  0.676672  0.585856  1
  Nd  Nd5  1  0.000000  0.823261  0.085781  1
  Nd  Nd6  1  0.000000  0.176730  0.914090  1
  Y  Y7  1  0.000000  0.556148  0.871772  1
  B  B8  1  0.500000  0.556092  0.430563  1
  B  B9  1  0.500000  0.444071  0.569533  1
  B  B10  1  0.500000  0.056014  0.069354  1
  B  B11  1  0.500000  0.943699  0.930574  1
  B  B12  1  0.500000  0.748723  0.417605  1
  B  B13  1  0.500000  0.251425  0.582428  1
  B  B14  1  0.500000  0.248720  0.082334  1
  B  B15  1  0.500000  0.750898  0.917691  1
  B  B16  1  0.500000  0.789801  0.267052  1
  B  B17  1  0.500000  0.210399  0.733003  1
  B  B18  1  0.500000  0.289836  0.232874  1
  B  B19  1  0.500000  0.709738  0.767052  1
  B  B20  1  0.500000  0.631128  0.185446  1
  B  B21  1  0.500000  0.369082  0.814716  1
  B  B22  1  0.500000  0.131232  0.314524  1
  B  B23  1  0.500000  0.868684  0.685502  1
  B  B24  1  0.500000  0.986422  0.213478  1
  B  B25  1  0.500000  0.013459  0.786518  1
  B  B26  1  0.500000  0.486358  0.286460  1
  B  B27  1  0.500000  0.514000  0.713726  1
  B  B28  1  0.500000  0.604231  0.028347  1
  B  B29  1  0.500000  0.395997  0.971106  1
  B  B30  1  0.500000  0.104645  0.471293  1
  B  B31  1  0.500000  0.895389  0.528761  1
  Ru  Ru32  1  0.000000  0.639054  0.319910  1
  Ru  Ru33  1  0.000000  0.361165  0.680060  1
  Ru  Ru34  1  0.000000  0.139113  0.179872  1
  Ru  Ru35  1  0.000000  0.860638  0.820009  1
