# generated using pymatgen
data_Er5Zr2P12Ir17
_symmetry_space_group_name_H-M   'P 1'
_cell_length_a   12.90288640
_cell_length_b   12.90288649
_cell_length_c   3.98289300
_cell_angle_alpha   90.00000000
_cell_angle_beta   90.00000000
_cell_angle_gamma   121.24803779
_symmetry_Int_Tables_number   1
_chemical_formula_structural   Er5Zr2P12Ir17
_chemical_formula_sum   'Er5 Zr2 P12 Ir17'
_cell_volume   566.89517669
_cell_formula_units_Z   1
loop_
 _symmetry_equiv_pos_site_id
 _symmetry_equiv_pos_as_xyz
  1  'x, y, z'
loop_
 _atom_site_type_symbol
 _atom_site_label
 _atom_site_symmetry_multiplicity
 _atom_site_fract_x
 _atom_site_fract_y
 _atom_site_fract_z
 _atom_site_occupancy
  Er  Er0  1  0.330725  0.669475  0.000000  1
  Er  Er1  1  0.669475  0.330725  0.000000  1
  Er  Er2  1  0.817391  0.000050  0.500000  1
  Er  Er3  1  0.000050  0.817391  0.500000  1
  Er  Er4  1  0.187253  0.187253  0.500000  1
  Zr  Zr5  1  0.449176  0.002210  0.000000  1
  Zr  Zr6  1  0.002210  0.449176  0.000000  1
  P  P7  1  0.174612  0.001156  0.000000  1
  P  P8  1  0.001156  0.174612  0.000000  1
  P  P9  1  0.819051  0.819051  0.000000  1
  P  P10  1  0.171662  0.485007  0.500000  1
  P  P11  1  0.515853  0.689922  0.500000  1
  P  P12  1  0.315799  0.835026  0.500000  1
  P  P13  1  0.689922  0.515853  0.500000  1
  P  P14  1  0.835026  0.315799  0.500000  1
  P  P15  1  0.485007  0.171662  0.500000  1
  P  P16  1  0.646141  0.993534  0.000000  1
  P  P17  1  0.993534  0.646141  0.000000  1
  P  P18  1  0.354591  0.354591  0.000000  1
  Ir  Ir19  1  0.534695  0.534695  0.000000  1
  Ir  Ir20  1  0.359695  0.495638  0.500000  1
  Ir  Ir21  1  0.514571  0.871022  0.500000  1
  Ir  Ir22  1  0.141164  0.644874  0.500000  1
  Ir  Ir23  1  0.871022  0.514571  0.500000  1
  Ir  Ir24  1  0.644874  0.141164  0.500000  1
  Ir  Ir25  1  0.495638  0.359695  0.500000  1
  Ir  Ir26  1  0.184364  0.375085  0.000000  1
  Ir  Ir27  1  0.622564  0.797023  0.000000  1
  Ir  Ir28  1  0.186827  0.821957  0.000000  1
  Ir  Ir29  1  0.797023  0.622564  0.000000  1
  Ir  Ir30  1  0.821957  0.186827  0.000000  1
  Ir  Ir31  1  0.375085  0.184364  0.000000  1
  Ir  Ir32  1  0.280045  0.002945  0.500000  1
  Ir  Ir33  1  0.002945  0.280045  0.500000  1
  Ir  Ir34  1  0.712361  0.712361  0.500000  1
  Ir  Ir35  1  0.996534  0.996534  0.000000  1
