# generated using pymatgen
data_TbY2Co8P6Os
_symmetry_space_group_name_H-M   'P 1'
_cell_length_a   3.72414400
_cell_length_b   10.50996400
_cell_length_c   12.25362200
_cell_angle_alpha   90.00000000
_cell_angle_beta   90.00000000
_cell_angle_gamma   90.00000000
_symmetry_Int_Tables_number   1
_chemical_formula_structural   TbY2Co8P6Os
_chemical_formula_sum   'Tb2 Y4 Co16 P12 Os2'
_cell_volume   479.61435462
_cell_formula_units_Z   2
loop_
 _symmetry_equiv_pos_site_id
 _symmetry_equiv_pos_as_xyz
  1  'x, y, z'
loop_
 _atom_site_type_symbol
 _atom_site_label
 _atom_site_symmetry_multiplicity
 _atom_site_fract_x
 _atom_site_fract_y
 _atom_site_fract_z
 _atom_site_occupancy
  Tb  Tb0  1  0.000000  0.500000  0.524261  1
  Tb  Tb1  1  0.500000  0.000000  0.475739  1
  Y  Y2  1  0.500000  0.817086  0.206996  1
  Y  Y3  1  0.500000  0.182914  0.206996  1
  Y  Y4  1  0.000000  0.682914  0.793004  1
  Y  Y5  1  0.000000  0.317086  0.793004  1
  Co  Co6  1  0.500000  0.500000  0.703697  1
  Co  Co7  1  0.000000  0.000000  0.296303  1
  Co  Co8  1  0.000000  0.500000  0.987040  1
  Co  Co9  1  0.500000  0.000000  0.012960  1
  Co  Co10  1  0.500000  0.332688  0.990079  1
  Co  Co11  1  0.500000  0.667312  0.990079  1
  Co  Co12  1  0.000000  0.167312  0.009921  1
  Co  Co13  1  0.000000  0.832688  0.009921  1
  Co  Co14  1  0.500000  0.297687  0.430725  1
  Co  Co15  1  0.500000  0.702313  0.430725  1
  Co  Co16  1  0.000000  0.202313  0.569275  1
  Co  Co17  1  0.000000  0.797687  0.569275  1
  Co  Co18  1  0.500000  0.879658  0.708990  1
  Co  Co19  1  0.500000  0.120342  0.708990  1
  Co  Co20  1  0.000000  0.620342  0.291010  1
  Co  Co21  1  0.000000  0.379658  0.291010  1
  P  P22  1  0.500000  0.500000  0.881069  1
  P  P23  1  0.000000  0.000000  0.118931  1
  P  P24  1  0.500000  0.500000  0.349975  1
  P  P25  1  0.000000  0.000000  0.650025  1
  P  P26  1  0.500000  0.311389  0.615909  1
  P  P27  1  0.500000  0.688611  0.615909  1
  P  P28  1  0.000000  0.188611  0.384091  1
  P  P29  1  0.000000  0.811389  0.384091  1
  P  P30  1  0.500000  0.846749  0.893280  1
  P  P31  1  0.500000  0.153251  0.893280  1
  P  P32  1  0.000000  0.653251  0.106720  1
  P  P33  1  0.000000  0.346749  0.106720  1
  Os  Os34  1  0.500000  0.500000  0.158677  1
  Os  Os35  1  0.000000  0.000000  0.841323  1
