# generated using pymatgen
data_Nd3Mg3SiHg2
_symmetry_space_group_name_H-M   'P 1'
_cell_length_a   7.64879000
_cell_length_b   7.64878961
_cell_length_c   4.48020400
_cell_angle_alpha   90.00000000
_cell_angle_beta   90.00000000
_cell_angle_gamma   120.00000168
_symmetry_Int_Tables_number   1
_chemical_formula_structural   Nd3Mg3SiHg2
_chemical_formula_sum   'Nd3 Mg3 Si1 Hg2'
_cell_volume   226.99373273
_cell_formula_units_Z   1
loop_
 _symmetry_equiv_pos_site_id
 _symmetry_equiv_pos_as_xyz
  1  'x, y, z'
loop_
 _atom_site_type_symbol
 _atom_site_label
 _atom_site_symmetry_multiplicity
 _atom_site_fract_x
 _atom_site_fract_y
 _atom_site_fract_z
 _atom_site_occupancy
  Nd  Nd0  1  0.582184  0.009643  0.000000  1
  Nd  Nd1  1  0.990357  0.572539  0.000000  1
  Nd  Nd2  1  0.427461  0.417816  0.000000  1
  Mg  Mg3  1  0.248637  0.001881  0.500000  1
  Mg  Mg4  1  0.998119  0.246756  0.500000  1
  Mg  Mg5  1  0.753244  0.751363  0.500000  1
  Si  Si6  1  0.666667  0.333333  0.500000  1
  Hg  Hg7  1  0.333333  0.666667  0.500000  1
  Hg  Hg8  1  0.000000  0.000000  0.000000  1
