# generated using pymatgen
data_Ce3Tm5(ReB6)4
_symmetry_space_group_name_H-M   'P 1'
_cell_length_a   3.69010600
_cell_length_b   9.14766378
_cell_length_c   11.52795109
_cell_angle_alpha   90.04858622
_cell_angle_beta   89.99801216
_cell_angle_gamma   89.99995651
_symmetry_Int_Tables_number   1
_chemical_formula_structural   Ce3Tm5(ReB6)4
_chemical_formula_sum   'Ce3 Tm5 Re4 B24'
_cell_volume   389.13563631
_cell_formula_units_Z   1
loop_
 _symmetry_equiv_pos_site_id
 _symmetry_equiv_pos_as_xyz
  1  'x, y, z'
loop_
 _atom_site_type_symbol
 _atom_site_label
 _atom_site_symmetry_multiplicity
 _atom_site_fract_x
 _atom_site_fract_y
 _atom_site_fract_z
 _atom_site_occupancy
  Ce  Ce0  1  0.999960  0.321378  0.414536  1
  Ce  Ce1  1  0.000048  0.678489  0.586239  1
  Ce  Ce2  1  0.000036  0.823551  0.085326  1
  Tm  Tm3  1  0.000011  0.177752  0.914035  1
  Tm  Tm4  1  0.000003  0.944257  0.372141  1
  Tm  Tm5  1  0.000003  0.056559  0.628720  1
  Tm  Tm6  1  0.000000  0.442717  0.127462  1
  Tm  Tm7  1  0.000001  0.556084  0.871996  1
  Re  Re8  1  0.000009  0.638933  0.320139  1
  Re  Re9  1  0.000004  0.361944  0.679272  1
  Re  Re10  1  0.999996  0.138343  0.179247  1
  Re  Re11  1  0.000006  0.861332  0.821035  1
  B  B12  1  0.500006  0.554550  0.431508  1
  B  B13  1  0.500009  0.445254  0.568751  1
  B  B14  1  0.499995  0.054344  0.066728  1
  B  B15  1  0.499997  0.946692  0.932547  1
  B  B16  1  0.499998  0.750125  0.418091  1
  B  B17  1  0.500014  0.249494  0.582719  1
  B  B18  1  0.499985  0.249523  0.080100  1
  B  B19  1  0.499977  0.750853  0.918204  1
  B  B20  1  0.499991  0.792059  0.265321  1
  B  B21  1  0.499994  0.207093  0.735511  1
  B  B22  1  0.499991  0.291692  0.233290  1
  B  B23  1  0.499999  0.708351  0.766067  1
  B  B24  1  0.499978  0.630583  0.184993  1
  B  B25  1  0.499998  0.368368  0.815821  1
  B  B26  1  0.500003  0.130714  0.314146  1
  B  B27  1  0.500007  0.870236  0.685967  1
  B  B28  1  0.500005  0.983022  0.212195  1
  B  B29  1  0.500015  0.018885  0.787717  1
  B  B30  1  0.499998  0.482648  0.286578  1
  B  B31  1  0.500014  0.516689  0.713768  1
  B  B32  1  0.499968  0.601089  0.027993  1
  B  B33  1  0.499994  0.396386  0.971090  1
  B  B34  1  0.499989  0.102996  0.471916  1
  B  B35  1  0.499996  0.897014  0.528829  1
