# generated using pymatgen
data_Dy11Th5Mg2(CdRu2)2
_symmetry_space_group_name_H-M   'P 1'
_cell_length_a   9.70069915
_cell_length_b   9.77191370
_cell_length_c   9.78056049
_cell_angle_alpha   59.73267518
_cell_angle_beta   60.12469292
_cell_angle_gamma   60.20085203
_symmetry_Int_Tables_number   1
_chemical_formula_structural   Dy11Th5Mg2(CdRu2)2
_chemical_formula_sum   'Dy11 Th5 Mg2 Cd2 Ru4'
_cell_volume   655.85190240
_cell_formula_units_Z   1
loop_
 _symmetry_equiv_pos_site_id
 _symmetry_equiv_pos_as_xyz
  1  'x, y, z'
loop_
 _atom_site_type_symbol
 _atom_site_label
 _atom_site_symmetry_multiplicity
 _atom_site_fract_x
 _atom_site_fract_y
 _atom_site_fract_z
 _atom_site_occupancy
  Dy  Dy0  1  0.185830  0.812914  0.812991  1
  Dy  Dy1  1  0.191511  0.807914  0.187172  1
  Dy  Dy2  1  0.812851  0.184881  0.809705  1
  Dy  Dy3  1  0.190839  0.186268  0.808850  1
  Dy  Dy4  1  0.811119  0.808169  0.186352  1
  Dy  Dy5  1  0.932145  0.567482  0.567643  1
  Dy  Dy6  1  0.564018  0.934012  0.936812  1
  Dy  Dy7  1  0.562772  0.935294  0.564014  1
  Dy  Dy8  1  0.935628  0.563341  0.937849  1
  Dy  Dy9  1  0.562500  0.563744  0.937376  1
  Dy  Dy10  1  0.936820  0.936176  0.563682  1
  Th  Th11  1  0.341840  0.348417  0.348043  1
  Th  Th12  1  0.347316  0.347125  0.959009  1
  Th  Th13  1  0.348013  0.958210  0.347394  1
  Th  Th14  1  0.957600  0.350651  0.349928  1
  Th  Th15  1  0.815330  0.183745  0.185505  1
  Mg  Mg16  1  0.578640  0.263311  0.579631  1
  Mg  Mg17  1  0.264746  0.578881  0.576537  1
  Cd  Cd18  1  0.581699  0.581385  0.582358  1
  Cd  Cd19  1  0.580065  0.583802  0.253552  1
  Ru  Ru20  1  0.129425  0.147043  0.147437  1
  Ru  Ru21  1  0.146070  0.141486  0.568307  1
  Ru  Ru22  1  0.146218  0.567795  0.141931  1
  Ru  Ru23  1  0.577006  0.147952  0.147921  1
