# generated using pymatgen
data_Yb3Ho(Pt2O7)2
_symmetry_space_group_name_H-M   'P 1'
_cell_length_a   7.24100141
_cell_length_b   7.24100163
_cell_length_c   7.22749931
_cell_angle_alpha   59.93818702
_cell_angle_beta   59.93818059
_cell_angle_gamma   59.99999920
_symmetry_Int_Tables_number   1
_chemical_formula_structural   Yb3Ho(Pt2O7)2
_chemical_formula_sum   'Yb3 Ho1 Pt4 O14'
_cell_volume   267.70958416
_cell_formula_units_Z   1
loop_
 _symmetry_equiv_pos_site_id
 _symmetry_equiv_pos_as_xyz
  1  'x, y, z'
loop_
 _atom_site_type_symbol
 _atom_site_label
 _atom_site_symmetry_multiplicity
 _atom_site_fract_x
 _atom_site_fract_y
 _atom_site_fract_z
 _atom_site_occupancy
  Yb  Yb0  1  0.625000  0.625000  0.625000  1
  Yb  Yb1  1  0.625000  0.125000  0.625000  1
  Yb  Yb2  1  0.125000  0.625000  0.625000  1
  Ho  Ho3  1  0.625000  0.625000  0.125000  1
  Pt  Pt4  1  0.125000  0.125000  0.125000  1
  Pt  Pt5  1  0.625000  0.125000  0.125000  1
  Pt  Pt6  1  0.125000  0.625000  0.125000  1
  Pt  Pt7  1  0.125000  0.125000  0.625000  1
  O  O8  1  0.041857  0.458335  0.457952  1
  O  O9  1  0.790016  0.790016  0.204673  1
  O  O10  1  0.790016  0.215296  0.204673  1
  O  O11  1  0.458335  0.041857  0.457952  1
  O  O12  1  0.747264  0.747264  0.758209  1
  O  O13  1  0.041857  0.041857  0.457952  1
  O  O14  1  0.034704  0.459984  0.045327  1
  O  O15  1  0.791665  0.208143  0.792048  1
  O  O16  1  0.215296  0.790016  0.204673  1
  O  O17  1  0.208143  0.208143  0.792048  1
  O  O18  1  0.502736  0.502736  0.491791  1
  O  O19  1  0.459984  0.034704  0.045327  1
  O  O20  1  0.459984  0.459984  0.045327  1
  O  O21  1  0.208143  0.791665  0.792048  1
