# generated using pymatgen
data_Pr3NdCrMo5O24
_symmetry_space_group_name_H-M   'P 1'
_cell_length_a   7.63298543
_cell_length_b   7.63298561
_cell_length_c   10.98494837
_cell_angle_alpha   89.80054269
_cell_angle_beta   89.80054422
_cell_angle_gamma   90.26651361
_symmetry_Int_Tables_number   1
_chemical_formula_structural   Pr3NdCrMo5O24
_chemical_formula_sum   'Pr3 Nd1 Cr1 Mo5 O24'
_cell_volume   639.99548625
_cell_formula_units_Z   1
loop_
 _symmetry_equiv_pos_site_id
 _symmetry_equiv_pos_as_xyz
  1  'x, y, z'
loop_
 _atom_site_type_symbol
 _atom_site_label
 _atom_site_symmetry_multiplicity
 _atom_site_fract_x
 _atom_site_fract_y
 _atom_site_fract_z
 _atom_site_occupancy
  Pr  Pr0  1  0.811265  0.311265  0.739847  1
  Pr  Pr1  1  0.687127  0.806924  0.263682  1
  Pr  Pr2  1  0.306924  0.187127  0.263682  1
  Nd  Nd3  1  0.189866  0.689866  0.733336  1
  Cr  Cr4  1  0.209964  0.709964  0.356354  1
  Mo  Mo5  1  0.789553  0.289553  0.355984  1
  Mo  Mo6  1  0.709686  0.791478  0.644495  1
  Mo  Mo7  1  0.291478  0.209686  0.644495  1
  Mo  Mo8  1  0.003035  0.996142  0.999453  1
  Mo  Mo9  1  0.496142  0.503035  0.999453  1
  O  O10  1  0.996851  0.224262  0.296580  1
  O  O11  1  0.015721  0.768243  0.303275  1
  O  O12  1  0.224232  0.000544  0.701163  1
  O  O13  1  0.500544  0.724232  0.701163  1
  O  O14  1  0.773665  0.998657  0.704085  1
  O  O15  1  0.498657  0.273665  0.704085  1
  O  O16  1  0.268243  0.515721  0.303275  1
  O  O17  1  0.724262  0.496851  0.296580  1
  O  O18  1  0.189720  0.041084  0.092494  1
  O  O19  1  0.818789  0.951348  0.096716  1
  O  O20  1  0.045705  0.812507  0.902565  1
  O  O21  1  0.312507  0.545705  0.902565  1
  O  O22  1  0.957680  0.184189  0.906704  1
  O  O23  1  0.684189  0.457680  0.906704  1
  O  O24  1  0.451348  0.318789  0.096716  1
  O  O25  1  0.541084  0.689720  0.092494  1
  O  O26  1  0.625464  0.125464  0.311545  1
  O  O27  1  0.363314  0.863314  0.311591  1
  O  O28  1  0.128873  0.373978  0.688925  1
  O  O29  1  0.873978  0.628873  0.688925  1
  O  O30  1  0.201265  0.701265  0.507506  1
  O  O31  1  0.801975  0.301975  0.517463  1
  O  O32  1  0.700845  0.806054  0.483051  1
  O  O33  1  0.306054  0.200845  0.483051  1
