# generated using pymatgen
data_La2Nd3Ir2Rh
_symmetry_space_group_name_H-M   'P 1'
_cell_length_a   11.30670900
_cell_length_b   11.30670900
_cell_length_c   6.67305400
_cell_angle_alpha   90.00000000
_cell_angle_beta   90.00000000
_cell_angle_gamma   90.00000000
_symmetry_Int_Tables_number   1
_chemical_formula_structural   La2Nd3Ir2Rh
_chemical_formula_sum   'La8 Nd12 Ir8 Rh4'
_cell_volume   853.09435675
_cell_formula_units_Z   4
loop_
 _symmetry_equiv_pos_site_id
 _symmetry_equiv_pos_as_xyz
  1  'x, y, z'
loop_
 _atom_site_type_symbol
 _atom_site_label
 _atom_site_symmetry_multiplicity
 _atom_site_fract_x
 _atom_site_fract_y
 _atom_site_fract_z
 _atom_site_occupancy
  La  La0  1  0.092163  0.290363  0.112587  1
  La  La1  1  0.790363  0.407837  0.112587  1
  La  La2  1  0.209637  0.592163  0.112587  1
  La  La3  1  0.907837  0.709637  0.112587  1
  La  La4  1  0.407837  0.790363  0.387413  1
  La  La5  1  0.592163  0.209637  0.387413  1
  La  La6  1  0.290363  0.092163  0.387413  1
  La  La7  1  0.709637  0.907837  0.387413  1
  Nd  Nd8  1  0.410169  0.208915  0.885868  1
  Nd  Nd9  1  0.708915  0.089831  0.885868  1
  Nd  Nd10  1  0.291085  0.910169  0.885868  1
  Nd  Nd11  1  0.589831  0.791085  0.885868  1
  Nd  Nd12  1  0.089831  0.708915  0.614132  1
  Nd  Nd13  1  0.910169  0.291085  0.614132  1
  Nd  Nd14  1  0.208915  0.410169  0.614132  1
  Nd  Nd15  1  0.791085  0.589831  0.614132  1
  Nd  Nd16  1  0.000000  0.000000  0.997997  1
  Nd  Nd17  1  0.500000  0.500000  0.997997  1
  Nd  Nd18  1  0.500000  0.500000  0.502003  1
  Nd  Nd19  1  0.000000  0.000000  0.502003  1
  Ir  Ir20  1  0.153532  0.846468  0.250000  1
  Ir  Ir21  1  0.346468  0.346468  0.250000  1
  Ir  Ir22  1  0.653532  0.653532  0.250000  1
  Ir  Ir23  1  0.846468  0.153532  0.250000  1
  Ir  Ir24  1  0.345278  0.654722  0.750000  1
  Ir  Ir25  1  0.154722  0.154722  0.750000  1
  Ir  Ir26  1  0.845278  0.845278  0.750000  1
  Ir  Ir27  1  0.654722  0.345278  0.750000  1
  Rh  Rh28  1  0.000000  0.500000  0.377309  1
  Rh  Rh29  1  0.500000  0.000000  0.122691  1
  Rh  Rh30  1  0.500000  0.000000  0.620067  1
  Rh  Rh31  1  0.000000  0.500000  0.879933  1
