# generated using pymatgen
data_Tb8Cd2PdPt
_symmetry_space_group_name_H-M   'P 1'
_cell_length_a   9.74619498
_cell_length_b   9.74619506
_cell_length_c   9.71404500
_cell_angle_alpha   60.10905785
_cell_angle_beta   60.10905758
_cell_angle_gamma   60.22830626
_symmetry_Int_Tables_number   1
_chemical_formula_structural   Tb8Cd2PdPt
_chemical_formula_sum   'Tb16 Cd4 Pd2 Pt2'
_cell_volume   654.65946757
_cell_formula_units_Z   2
loop_
 _symmetry_equiv_pos_site_id
 _symmetry_equiv_pos_as_xyz
  1  'x, y, z'
loop_
 _atom_site_type_symbol
 _atom_site_label
 _atom_site_symmetry_multiplicity
 _atom_site_fract_x
 _atom_site_fract_y
 _atom_site_fract_z
 _atom_site_occupancy
  Tb  Tb0  1  0.352686  0.352686  0.349007  1
  Tb  Tb1  1  0.352686  0.352686  0.945621  1
  Tb  Tb2  1  0.356379  0.938758  0.352432  1
  Tb  Tb3  1  0.938758  0.356379  0.352432  1
  Tb  Tb4  1  0.809031  0.190422  0.190425  1
  Tb  Tb5  1  0.190422  0.809031  0.810122  1
  Tb  Tb6  1  0.190422  0.809031  0.190425  1
  Tb  Tb7  1  0.809031  0.190422  0.810122  1
  Tb  Tb8  1  0.191527  0.191527  0.808473  1
  Tb  Tb9  1  0.810382  0.810382  0.189618  1
  Tb  Tb10  1  0.935606  0.565381  0.564867  1
  Tb  Tb11  1  0.565381  0.935606  0.934145  1
  Tb  Tb12  1  0.565381  0.935606  0.564867  1
  Tb  Tb13  1  0.935606  0.565381  0.934145  1
  Tb  Tb14  1  0.565621  0.565621  0.934379  1
  Tb  Tb15  1  0.935018  0.935018  0.564982  1
  Cd  Cd16  1  0.581112  0.581112  0.582535  1
  Cd  Cd17  1  0.581112  0.581112  0.255239  1
  Cd  Cd18  1  0.580575  0.254596  0.582414  1
  Cd  Cd19  1  0.254596  0.580575  0.582414  1
  Pd  Pd20  1  0.143455  0.143455  0.145648  1
  Pd  Pd21  1  0.143455  0.143455  0.567444  1
  Pt  Pt22  1  0.141693  0.570066  0.144121  1
  Pt  Pt23  1  0.570066  0.141693  0.144121  1
