# generated using pymatgen
data_Pr2SnB2Pt3Rh4
_symmetry_space_group_name_H-M   'P 1'
_cell_length_a   5.59306207
_cell_length_b   5.61406738
_cell_length_c   7.41489391
_cell_angle_alpha   90.30881634
_cell_angle_beta   89.38003875
_cell_angle_gamma   119.87631931
_symmetry_Int_Tables_number   1
_chemical_formula_structural   Pr2SnB2Pt3Rh4
_chemical_formula_sum   'Pr2 Sn1 B2 Pt3 Rh4'
_cell_volume   201.87257243
_cell_formula_units_Z   1
loop_
 _symmetry_equiv_pos_site_id
 _symmetry_equiv_pos_as_xyz
  1  'x, y, z'
loop_
 _atom_site_type_symbol
 _atom_site_label
 _atom_site_symmetry_multiplicity
 _atom_site_fract_x
 _atom_site_fract_y
 _atom_site_fract_z
 _atom_site_occupancy
  Pr  Pr0  1  0.000411  0.000822  0.500000  1
  Pr  Pr1  1  0.998958  0.997916  0.000000  1
  Sn  Sn2  1  0.663845  0.327689  0.000000  1
  B  B3  1  0.663468  0.326934  0.500000  1
  B  B4  1  0.335936  0.671872  0.500000  1
  Pt  Pt5  1  0.497190  0.501730  0.696360  1
  Pt  Pt6  1  0.337049  0.674098  0.000000  1
  Pt  Pt7  1  0.004541  0.501730  0.303640  1
  Rh  Rh8  1  0.501468  0.501024  0.304474  1
  Rh  Rh9  1  0.500373  0.997579  0.305585  1
  Rh  Rh10  1  0.497206  0.997579  0.694415  1
  Rh  Rh11  1  0.999556  0.501024  0.695526  1
