# generated using pymatgen
data_BaPa4O11
_symmetry_space_group_name_H-M   'P 1'
_cell_length_a   6.90560800
_cell_length_b   6.90564068
_cell_length_c   13.54050500
_cell_angle_alpha   90.00075954
_cell_angle_beta   89.99989098
_cell_angle_gamma   119.99987151
_symmetry_Int_Tables_number   1
_chemical_formula_structural   BaPa4O11
_chemical_formula_sum   'Ba2 Pa8 O22'
_cell_volume   559.20617005
_cell_formula_units_Z   2
loop_
 _symmetry_equiv_pos_site_id
 _symmetry_equiv_pos_as_xyz
  1  'x, y, z'
loop_
 _atom_site_type_symbol
 _atom_site_label
 _atom_site_symmetry_multiplicity
 _atom_site_fract_x
 _atom_site_fract_y
 _atom_site_fract_z
 _atom_site_occupancy
  Ba  Ba0  1  0.666678  0.333336  0.249998  1
  Ba  Ba1  1  0.333331  0.666665  0.750002  1
  Pa  Pa2  1  0.356159  0.000008  0.000002  1
  Pa  Pa3  1  0.000001  0.356154  0.000005  1
  Pa  Pa4  1  0.643856  0.643833  0.999991  1
  Pa  Pa5  1  0.333313  0.666677  0.249997  1
  Pa  Pa6  1  0.000003  0.643853  0.499988  1
  Pa  Pa7  1  0.643838  0.999999  0.499997  1
  Pa  Pa8  1  0.356148  0.356148  0.500007  1
  Pa  Pa9  1  0.666639  0.333319  0.750010  1
  O  O10  1  0.743226  0.000000  0.000000  1
  O  O11  1  0.256762  0.256770  0.000000  1
  O  O12  1  0.999995  0.743229  0.999999  1
  O  O13  1  0.666676  0.333342  0.036767  1
  O  O14  1  0.060209  0.424557  0.156039  1
  O  O15  1  0.575458  0.635651  0.156046  1
  O  O16  1  0.364359  0.939794  0.156043  1
  O  O17  1  0.575451  0.939804  0.343957  1
  O  O18  1  0.364355  0.424544  0.343960  1
  O  O19  1  0.060205  0.635650  0.343964  1
  O  O20  1  0.666663  0.333340  0.463232  1
  O  O21  1  0.999998  0.256777  0.500000  1
  O  O22  1  0.256770  0.999999  0.500002  1
  O  O23  1  0.743234  0.743236  0.500001  1
  O  O24  1  0.333325  0.666661  0.536770  1
  O  O25  1  0.424544  0.364350  0.656039  1
  O  O26  1  0.939806  0.575455  0.656046  1
  O  O27  1  0.635643  0.060196  0.656040  1
  O  O28  1  0.424558  0.060200  0.843953  1
  O  O29  1  0.939803  0.364349  0.843954  1
  O  O30  1  0.635647  0.575443  0.843959  1
  O  O31  1  0.333334  0.666659  0.963227  1
