# generated using pymatgen
data_TmLu3B12MoRu
_symmetry_space_group_name_H-M   'P 1'
_cell_length_a   3.59445600
_cell_length_b   9.10211037
_cell_length_c   11.47727401
_cell_angle_alpha   89.76967200
_cell_angle_beta   90.00000000
_cell_angle_gamma   90.00000000
_symmetry_Int_Tables_number   1
_chemical_formula_structural   TmLu3B12MoRu
_chemical_formula_sum   'Tm2 Lu6 B24 Mo2 Ru2'
_cell_volume   375.50049156
_cell_formula_units_Z   2
loop_
 _symmetry_equiv_pos_site_id
 _symmetry_equiv_pos_as_xyz
  1  'x, y, z'
loop_
 _atom_site_type_symbol
 _atom_site_label
 _atom_site_symmetry_multiplicity
 _atom_site_fract_x
 _atom_site_fract_y
 _atom_site_fract_z
 _atom_site_occupancy
  Tm  Tm0  1  0.000000  0.321907  0.414506  1
  Tm  Tm1  1  0.000000  0.678093  0.585494  1
  Lu  Lu2  1  0.000000  0.821388  0.086135  1
  Lu  Lu3  1  0.000000  0.178612  0.913865  1
  Lu  Lu4  1  0.000000  0.944794  0.371177  1
  Lu  Lu5  1  0.000000  0.055206  0.628823  1
  Lu  Lu6  1  0.000000  0.442202  0.128024  1
  Lu  Lu7  1  0.000000  0.557798  0.871976  1
  B  B8  1  0.500000  0.551640  0.434429  1
  B  B9  1  0.500000  0.448360  0.565571  1
  B  B10  1  0.500000  0.053793  0.066150  1
  B  B11  1  0.500000  0.946207  0.933850  1
  B  B12  1  0.500000  0.751817  0.421376  1
  B  B13  1  0.500000  0.248183  0.578624  1
  B  B14  1  0.500000  0.249325  0.080257  1
  B  B15  1  0.500000  0.750675  0.919743  1
  B  B16  1  0.500000  0.796097  0.263225  1
  B  B17  1  0.500000  0.203903  0.736775  1
  B  B18  1  0.500000  0.291066  0.233939  1
  B  B19  1  0.500000  0.708934  0.766061  1
  B  B20  1  0.500000  0.631452  0.181598  1
  B  B21  1  0.500000  0.368548  0.818402  1
  B  B22  1  0.500000  0.130217  0.314165  1
  B  B23  1  0.500000  0.869783  0.685835  1
  B  B24  1  0.500000  0.982524  0.211538  1
  B  B25  1  0.500000  0.017476  0.788462  1
  B  B26  1  0.500000  0.477447  0.286640  1
  B  B27  1  0.500000  0.522553  0.713360  1
  B  B28  1  0.500000  0.602284  0.027630  1
  B  B29  1  0.500000  0.397716  0.972370  1
  B  B30  1  0.500000  0.101919  0.470954  1
  B  B31  1  0.500000  0.898081  0.529046  1
  Mo  Mo32  1  0.000000  0.639467  0.318778  1
  Mo  Mo33  1  0.000000  0.360533  0.681222  1
  Ru  Ru34  1  0.000000  0.138105  0.178074  1
  Ru  Ru35  1  0.000000  0.861895  0.821926  1
