# generated using pymatgen
data_Cs2TbCl5
_symmetry_space_group_name_H-M   'P 1'
_cell_length_a   7.60483000
_cell_length_b   9.80454700
_cell_length_c   15.56547800
_cell_angle_alpha   90.00000000
_cell_angle_beta   90.00000000
_cell_angle_gamma   90.00000000
_symmetry_Int_Tables_number   1
_chemical_formula_structural   Cs2TbCl5
_chemical_formula_sum   'Cs8 Tb4 Cl20'
_cell_volume   1160.59181896
_cell_formula_units_Z   4
loop_
 _symmetry_equiv_pos_site_id
 _symmetry_equiv_pos_as_xyz
  1  'x, y, z'
loop_
 _atom_site_type_symbol
 _atom_site_label
 _atom_site_symmetry_multiplicity
 _atom_site_fract_x
 _atom_site_fract_y
 _atom_site_fract_z
 _atom_site_occupancy
  Cs  Cs0  1  0.250000  0.664428  0.916749  1
  Cs  Cs1  1  0.750000  0.335572  0.083251  1
  Cs  Cs2  1  0.750000  0.835572  0.416749  1
  Cs  Cs3  1  0.250000  0.164428  0.583251  1
  Cs  Cs4  1  0.250000  0.975462  0.212183  1
  Cs  Cs5  1  0.750000  0.024538  0.787817  1
  Cs  Cs6  1  0.750000  0.524538  0.712183  1
  Cs  Cs7  1  0.250000  0.475462  0.287817  1
  Tb  Tb8  1  0.250000  0.677174  0.564973  1
  Tb  Tb9  1  0.750000  0.322826  0.435027  1
  Tb  Tb10  1  0.750000  0.822826  0.064973  1
  Tb  Tb11  1  0.250000  0.177174  0.935027  1
  Cl  Cl12  1  0.250000  0.519417  0.700749  1
  Cl  Cl13  1  0.750000  0.480583  0.299251  1
  Cl  Cl14  1  0.750000  0.980583  0.200749  1
  Cl  Cl15  1  0.250000  0.019417  0.799251  1
  Cl  Cl16  1  0.503042  0.832372  0.617992  1
  Cl  Cl17  1  0.496958  0.167628  0.382008  1
  Cl  Cl18  1  0.496958  0.667628  0.117992  1
  Cl  Cl19  1  0.003042  0.167628  0.382008  1
  Cl  Cl20  1  0.503042  0.332372  0.882008  1
  Cl  Cl21  1  0.996958  0.832372  0.617992  1
  Cl  Cl22  1  0.996958  0.332372  0.882008  1
  Cl  Cl23  1  0.003042  0.667628  0.117992  1
  Cl  Cl24  1  0.250000  0.786640  0.407570  1
  Cl  Cl25  1  0.750000  0.213360  0.592430  1
  Cl  Cl26  1  0.750000  0.713360  0.907570  1
  Cl  Cl27  1  0.250000  0.286640  0.092430  1
  Cl  Cl28  1  0.000000  0.500000  0.500000  1
  Cl  Cl29  1  0.000000  0.000000  0.000000  1
  Cl  Cl30  1  0.500000  0.500000  0.500000  1
  Cl  Cl31  1  0.500000  0.000000  0.000000  1
