# generated using pymatgen
data_YbTh(TaSe2)8
_symmetry_space_group_name_H-M   'P 1'
_cell_length_a   7.00558100
_cell_length_b   7.00558079
_cell_length_c   14.81858400
_cell_angle_alpha   90.00000000
_cell_angle_beta   90.00000000
_cell_angle_gamma   120.00001518
_symmetry_Int_Tables_number   1
_chemical_formula_structural   YbTh(TaSe2)8
_chemical_formula_sum   'Yb1 Th1 Ta8 Se16'
_cell_volume   629.83323820
_cell_formula_units_Z   1
loop_
 _symmetry_equiv_pos_site_id
 _symmetry_equiv_pos_as_xyz
  1  'x, y, z'
loop_
 _atom_site_type_symbol
 _atom_site_label
 _atom_site_symmetry_multiplicity
 _atom_site_fract_x
 _atom_site_fract_y
 _atom_site_fract_z
 _atom_site_occupancy
  Yb  Yb0  1  0.000000  0.000000  0.500000  1
  Th  Th1  1  0.000000  0.000000  0.000000  1
  Ta  Ta2  1  0.507731  0.492269  0.749738  1
  Ta  Ta3  1  0.015462  0.507731  0.250262  1
  Ta  Ta4  1  0.492269  0.984538  0.250262  1
  Ta  Ta5  1  0.507731  0.015462  0.749738  1
  Ta  Ta6  1  0.984538  0.492269  0.749738  1
  Ta  Ta7  1  0.492269  0.507731  0.250262  1
  Ta  Ta8  1  0.000000  0.000000  0.751031  1
  Ta  Ta9  1  0.000000  0.000000  0.248969  1
  Se  Se10  1  0.831209  0.168791  0.360935  1
  Se  Se11  1  0.831209  0.662421  0.360935  1
  Se  Se12  1  0.337579  0.168791  0.360935  1
  Se  Se13  1  0.659130  0.829564  0.861836  1
  Se  Se14  1  0.168791  0.337579  0.639065  1
  Se  Se15  1  0.170436  0.829564  0.861836  1
  Se  Se16  1  0.170436  0.340870  0.861836  1
  Se  Se17  1  0.829564  0.170436  0.138164  1
  Se  Se18  1  0.340870  0.170436  0.138164  1
  Se  Se19  1  0.662421  0.831209  0.639065  1
  Se  Se20  1  0.333333  0.666667  0.132969  1
  Se  Se21  1  0.666667  0.333333  0.632769  1
  Se  Se22  1  0.666667  0.333333  0.867031  1
  Se  Se23  1  0.333333  0.666667  0.367231  1
  Se  Se24  1  0.829564  0.659130  0.138164  1
  Se  Se25  1  0.168791  0.831209  0.639065  1
