# generated using pymatgen
data_RbMo(SO4)2
_symmetry_space_group_name_H-M   'P 1'
_cell_length_a   5.03427300
_cell_length_b   5.03427367
_cell_length_c   8.65176100
_cell_angle_alpha   90.00003343
_cell_angle_beta   90.00003601
_cell_angle_gamma   120.00027051
_symmetry_Int_Tables_number   1
_chemical_formula_structural   RbMo(SO4)2
_chemical_formula_sum   'Rb1 Mo1 S2 O8'
_cell_volume   189.89238329
_cell_formula_units_Z   1
loop_
 _symmetry_equiv_pos_site_id
 _symmetry_equiv_pos_as_xyz
  1  'x, y, z'
loop_
 _atom_site_type_symbol
 _atom_site_label
 _atom_site_symmetry_multiplicity
 _atom_site_fract_x
 _atom_site_fract_y
 _atom_site_fract_z
 _atom_site_occupancy
  Rb  Rb0  1  0.000000  0.000000  0.000000  1
  Mo  Mo1  1  0.000000  0.000000  0.500000  1
  S  S2  1  0.333330  0.666662  0.288769  1
  S  S3  1  0.666670  0.333338  0.711231  1
  O  O4  1  0.333333  0.666668  0.120025  1
  O  O5  1  0.293269  0.368496  0.347401  1
  O  O6  1  0.075220  0.706731  0.347402  1
  O  O7  1  0.631507  0.924778  0.347403  1
  O  O8  1  0.368492  0.075220  0.652597  1
  O  O9  1  0.924780  0.293270  0.652598  1
  O  O10  1  0.706731  0.631505  0.652599  1
  O  O11  1  0.666667  0.333332  0.879975  1
