# generated using pymatgen
data_DyHoSc2(CrB6)2
_symmetry_space_group_name_H-M   'P 1'
_cell_length_a   3.46029700
_cell_length_b   9.00055300
_cell_length_c   11.35496800
_cell_angle_alpha   89.99997718
_cell_angle_beta   90.00000000
_cell_angle_gamma   90.00000000
_symmetry_Int_Tables_number   1
_chemical_formula_structural   DyHoSc2(CrB6)2
_chemical_formula_sum   'Dy2 Ho2 Sc4 Cr4 B24'
_cell_volume   353.64578358
_cell_formula_units_Z   2
loop_
 _symmetry_equiv_pos_site_id
 _symmetry_equiv_pos_as_xyz
  1  'x, y, z'
loop_
 _atom_site_type_symbol
 _atom_site_label
 _atom_site_symmetry_multiplicity
 _atom_site_fract_x
 _atom_site_fract_y
 _atom_site_fract_z
 _atom_site_occupancy
  Dy  Dy0  1  0.000000  0.823039  0.085131  1
  Dy  Dy1  1  0.000000  0.176961  0.914869  1
  Ho  Ho2  1  0.000000  0.323061  0.414879  1
  Ho  Ho3  1  0.000000  0.676939  0.585121  1
  Sc  Sc4  1  0.000000  0.443154  0.130900  1
  Sc  Sc5  1  0.000000  0.556846  0.869100  1
  Sc  Sc6  1  0.000000  0.943159  0.369126  1
  Sc  Sc7  1  0.000000  0.056841  0.630874  1
  Cr  Cr8  1  0.000000  0.141711  0.182120  1
  Cr  Cr9  1  0.000000  0.858289  0.817880  1
  Cr  Cr10  1  0.000000  0.641677  0.317922  1
  Cr  Cr11  1  0.000000  0.358323  0.682078  1
  B  B12  1  0.500000  0.054756  0.067745  1
  B  B13  1  0.500000  0.945244  0.932255  1
  B  B14  1  0.500000  0.554725  0.432306  1
  B  B15  1  0.500000  0.445275  0.567694  1
  B  B16  1  0.500000  0.253025  0.082826  1
  B  B17  1  0.500000  0.746975  0.917174  1
  B  B18  1  0.500000  0.753010  0.417226  1
  B  B19  1  0.500000  0.246990  0.582774  1
  B  B20  1  0.500000  0.294563  0.235954  1
  B  B21  1  0.500000  0.705437  0.764046  1
  B  B22  1  0.500000  0.794541  0.264096  1
  B  B23  1  0.500000  0.205459  0.735904  1
  B  B24  1  0.500000  0.129806  0.316990  1
  B  B25  1  0.500000  0.870194  0.683010  1
  B  B26  1  0.500000  0.629763  0.183044  1
  B  B27  1  0.500000  0.370237  0.816956  1
  B  B28  1  0.500000  0.482549  0.286529  1
  B  B29  1  0.500000  0.517451  0.713471  1
  B  B30  1  0.500000  0.982594  0.213504  1
  B  B31  1  0.500000  0.017406  0.786496  1
  B  B32  1  0.500000  0.096235  0.474060  1
  B  B33  1  0.500000  0.903765  0.525940  1
  B  B34  1  0.500000  0.596182  0.025927  1
  B  B35  1  0.500000  0.403818  0.974073  1
