# generated using pymatgen
data_Tm5Lu3B24RhW3
_symmetry_space_group_name_H-M   'P 1'
_cell_length_a   3.57178600
_cell_length_b   9.18490584
_cell_length_c   11.57519507
_cell_angle_alpha   90.15835663
_cell_angle_beta   90.00000000
_cell_angle_gamma   90.00000000
_symmetry_Int_Tables_number   1
_chemical_formula_structural   Tm5Lu3B24RhW3
_chemical_formula_sum   'Tm5 Lu3 B24 Rh1 W3'
_cell_volume   379.74039582
_cell_formula_units_Z   1
loop_
 _symmetry_equiv_pos_site_id
 _symmetry_equiv_pos_as_xyz
  1  'x, y, z'
loop_
 _atom_site_type_symbol
 _atom_site_label
 _atom_site_symmetry_multiplicity
 _atom_site_fract_x
 _atom_site_fract_y
 _atom_site_fract_z
 _atom_site_occupancy
  Tm  Tm0  1  0.500000  0.317645  0.414590  1
  Tm  Tm1  1  0.500000  0.679844  0.588586  1
  Tm  Tm2  1  0.500000  0.178986  0.912503  1
  Tm  Tm3  1  0.500000  0.823898  0.082976  1
  Tm  Tm4  1  0.500000  0.444906  0.129132  1
  Lu  Lu5  1  0.500000  0.556171  0.872715  1
  Lu  Lu6  1  0.500000  0.054119  0.626690  1
  Lu  Lu7  1  0.500000  0.941885  0.371648  1
  B  B8  1  0.000000  0.099016  0.471481  1
  B  B9  1  0.000000  0.895201  0.526732  1
  B  B10  1  0.000000  0.399222  0.972358  1
  B  B11  1  0.000000  0.603705  0.029792  1
  B  B12  1  0.000000  0.130232  0.318910  1
  B  B13  1  0.000000  0.868169  0.682131  1
  B  B14  1  0.000000  0.369678  0.816901  1
  B  B15  1  0.000000  0.632789  0.184185  1
  B  B16  1  0.000000  0.051718  0.065181  1
  B  B17  1  0.000000  0.949035  0.934935  1
  B  B18  1  0.000000  0.449242  0.563056  1
  B  B19  1  0.000000  0.555265  0.433251  1
  B  B20  1  0.000000  0.483712  0.288751  1
  B  B21  1  0.000000  0.522312  0.713012  1
  B  B22  1  0.000000  0.021773  0.785812  1
  B  B23  1  0.000000  0.976851  0.213023  1
  B  B24  1  0.000000  0.252568  0.078779  1
  B  B25  1  0.000000  0.748262  0.922375  1
  B  B26  1  0.000000  0.246141  0.577127  1
  B  B27  1  0.000000  0.749591  0.420268  1
  B  B28  1  0.000000  0.296667  0.238447  1
  B  B29  1  0.000000  0.704149  0.764432  1
  B  B30  1  0.000000  0.204508  0.735409  1
  B  B31  1  0.000000  0.791480  0.264703  1
  Rh  Rh32  1  0.500000  0.639728  0.320645  1
  W  W33  1  0.500000  0.139404  0.181454  1
  W  W34  1  0.500000  0.860972  0.820079  1
  W  W35  1  0.500000  0.361152  0.677933  1
