# generated using pymatgen
data_Dy2Ga2RuAu
_symmetry_space_group_name_H-M   'P 1'
_cell_length_a   4.43216200
_cell_length_b   6.99708100
_cell_length_c   7.76189300
_cell_angle_alpha   90.00000000
_cell_angle_beta   90.00000000
_cell_angle_gamma   90.00000000
_symmetry_Int_Tables_number   1
_chemical_formula_structural   Dy2Ga2RuAu
_chemical_formula_sum   'Dy4 Ga4 Ru2 Au2'
_cell_volume   240.71335108
_cell_formula_units_Z   2
loop_
 _symmetry_equiv_pos_site_id
 _symmetry_equiv_pos_as_xyz
  1  'x, y, z'
loop_
 _atom_site_type_symbol
 _atom_site_label
 _atom_site_symmetry_multiplicity
 _atom_site_fract_x
 _atom_site_fract_y
 _atom_site_fract_z
 _atom_site_occupancy
  Dy  Dy0  1  0.750000  0.007190  0.694399  1
  Dy  Dy1  1  0.750000  0.530036  0.807892  1
  Dy  Dy2  1  0.250000  0.969964  0.307892  1
  Dy  Dy3  1  0.250000  0.492810  0.194399  1
  Ga  Ga4  1  0.250000  0.820432  0.927960  1
  Ga  Ga5  1  0.250000  0.351878  0.569865  1
  Ga  Ga6  1  0.750000  0.148122  0.069865  1
  Ga  Ga7  1  0.750000  0.679568  0.427960  1
  Ru  Ru8  1  0.750000  0.767839  0.105573  1
  Ru  Ru9  1  0.250000  0.732161  0.605573  1
  Au  Au10  1  0.250000  0.224664  0.894312  1
  Au  Au11  1  0.750000  0.275336  0.394312  1
