# generated using pymatgen
data_Tb3TmSi4(NiOs)2
_symmetry_space_group_name_H-M   'P 1'
_cell_length_a   4.24222500
_cell_length_b   6.91932598
_cell_length_c   7.17932355
_cell_angle_alpha   92.04654004
_cell_angle_beta   90.00000000
_cell_angle_gamma   90.00000000
_symmetry_Int_Tables_number   1
_chemical_formula_structural   Tb3TmSi4(NiOs)2
_chemical_formula_sum   'Tb3 Tm1 Si4 Ni2 Os2'
_cell_volume   210.60268972
_cell_formula_units_Z   1
loop_
 _symmetry_equiv_pos_site_id
 _symmetry_equiv_pos_as_xyz
  1  'x, y, z'
loop_
 _atom_site_type_symbol
 _atom_site_label
 _atom_site_symmetry_multiplicity
 _atom_site_fract_x
 _atom_site_fract_y
 _atom_site_fract_z
 _atom_site_occupancy
  Tb  Tb0  1  0.750000  0.510317  0.822740  1
  Tb  Tb1  1  0.750000  0.009467  0.700440  1
  Tb  Tb2  1  0.250000  0.988875  0.298654  1
  Tm  Tm3  1  0.250000  0.486662  0.184006  1
  Si  Si4  1  0.250000  0.801784  0.896282  1
  Si  Si5  1  0.750000  0.196070  0.104672  1
  Si  Si6  1  0.750000  0.699060  0.399533  1
  Si  Si7  1  0.250000  0.302827  0.596167  1
  Ni  Ni8  1  0.750000  0.837373  0.075497  1
  Ni  Ni9  1  0.250000  0.164867  0.926940  1
  Os  Os10  1  0.250000  0.657405  0.569031  1
  Os  Os11  1  0.750000  0.345294  0.426038  1
