# generated using pymatgen
data_Tb5Dy(Ni7B2)2
_symmetry_space_group_name_H-M   'P 1'
_cell_length_a   5.09118001
_cell_length_b   5.09177019
_cell_length_c   14.36115200
_cell_angle_alpha   89.99970722
_cell_angle_beta   90.00025485
_cell_angle_gamma   119.98709913
_symmetry_Int_Tables_number   1
_chemical_formula_structural   Tb5Dy(Ni7B2)2
_chemical_formula_sum   'Tb5 Dy1 Ni14 B4'
_cell_volume   322.45090518
_cell_formula_units_Z   1
loop_
 _symmetry_equiv_pos_site_id
 _symmetry_equiv_pos_as_xyz
  1  'x, y, z'
loop_
 _atom_site_type_symbol
 _atom_site_label
 _atom_site_symmetry_multiplicity
 _atom_site_fract_x
 _atom_site_fract_y
 _atom_site_fract_z
 _atom_site_occupancy
  Tb  Tb0  1  0.666682  0.333290  0.032655  1
  Tb  Tb1  1  0.333325  0.666707  0.967806  1
  Tb  Tb2  1  0.333315  0.666710  0.532178  1
  Tb  Tb3  1  0.666669  0.333300  0.467336  1
  Tb  Tb4  1  0.333331  0.666668  0.750103  1
  Dy  Dy5  1  0.666669  0.333332  0.249926  1
  Ni  Ni6  1  0.834516  0.669032  0.649626  1
  Ni  Ni7  1  0.834517  0.165478  0.649603  1
  Ni  Ni8  1  0.330970  0.165486  0.649612  1
  Ni  Ni9  1  0.165539  0.331063  0.350020  1
  Ni  Ni10  1  0.165532  0.834465  0.350041  1
  Ni  Ni11  1  0.668928  0.834459  0.350030  1
  Ni  Ni12  1  0.165475  0.330941  0.149869  1
  Ni  Ni13  1  0.165472  0.834529  0.149840  1
  Ni  Ni14  1  0.669060  0.834525  0.149859  1
  Ni  Ni15  1  0.834554  0.669126  0.850490  1
  Ni  Ni16  1  0.834555  0.165451  0.850511  1
  Ni  Ni17  1  0.330882  0.165448  0.850494  1
  Ni  Ni18  1  0.000013  0.999991  0.499809  1
  Ni  Ni19  1  0.000001  0.999997  0.000194  1
  B  B20  1  0.666663  0.333324  0.750158  1
  B  B21  1  0.333339  0.666667  0.249846  1
  B  B22  1  0.000002  0.000000  0.750125  1
  B  B23  1  0.999992  0.000010  0.249869  1
