# generated using pymatgen
data_NbMo(IrRh2)2
_symmetry_space_group_name_H-M   'P 1'
_cell_length_a   5.55705900
_cell_length_b   5.55573925
_cell_length_c   4.43146900
_cell_angle_alpha   90.00000000
_cell_angle_beta   90.00000000
_cell_angle_gamma   120.00786426
_symmetry_Int_Tables_number   1
_chemical_formula_structural   NbMo(IrRh2)2
_chemical_formula_sum   'Nb1 Mo1 Ir2 Rh4'
_cell_volume   118.47611057
_cell_formula_units_Z   1
loop_
 _symmetry_equiv_pos_site_id
 _symmetry_equiv_pos_as_xyz
  1  'x, y, z'
loop_
 _atom_site_type_symbol
 _atom_site_label
 _atom_site_symmetry_multiplicity
 _atom_site_fract_x
 _atom_site_fract_y
 _atom_site_fract_z
 _atom_site_occupancy
  Nb  Nb0  1  0.334341  0.668682  0.250000  1
  Mo  Mo1  1  0.665850  0.331699  0.750000  1
  Ir  Ir2  1  0.332710  0.167033  0.250000  1
  Ir  Ir3  1  0.834320  0.167033  0.250000  1
  Rh  Rh4  1  0.833523  0.667049  0.250000  1
  Rh  Rh5  1  0.164095  0.835201  0.750000  1
  Rh  Rh6  1  0.671107  0.835201  0.750000  1
  Rh  Rh7  1  0.164053  0.328105  0.750000  1
