# generated using pymatgen
data_Y5Ta3(Si3Ni4)4
_symmetry_space_group_name_H-M   'P 1'
_cell_length_a   12.48236500
_cell_length_b   12.48236559
_cell_length_c   3.82619800
_cell_angle_alpha   90.00000000
_cell_angle_beta   90.00000000
_cell_angle_gamma   120.00000640
_symmetry_Int_Tables_number   1
_chemical_formula_structural   Y5Ta3(Si3Ni4)4
_chemical_formula_sum   'Y5 Ta3 Si12 Ni16'
_cell_volume   516.28774918
_cell_formula_units_Z   1
loop_
 _symmetry_equiv_pos_site_id
 _symmetry_equiv_pos_as_xyz
  1  'x, y, z'
loop_
 _atom_site_type_symbol
 _atom_site_label
 _atom_site_symmetry_multiplicity
 _atom_site_fract_x
 _atom_site_fract_y
 _atom_site_fract_z
 _atom_site_occupancy
  Y  Y0  1  0.185427  0.185427  0.500000  1
  Y  Y1  1  0.814573  0.000000  0.500000  1
  Y  Y2  1  0.000000  0.814573  0.500000  1
  Y  Y3  1  0.333333  0.666667  0.000000  1
  Y  Y4  1  0.666667  0.333333  0.000000  1
  Ta  Ta5  1  0.565854  0.565854  0.000000  1
  Ta  Ta6  1  0.434146  0.000000  0.000000  1
  Ta  Ta7  1  0.000000  0.434146  0.000000  1
  Si  Si8  1  0.818357  0.818357  0.000000  1
  Si  Si9  1  0.181643  0.000000  0.000000  1
  Si  Si10  1  0.000000  0.181643  0.000000  1
  Si  Si11  1  0.168945  0.476828  0.500000  1
  Si  Si12  1  0.523172  0.692117  0.500000  1
  Si  Si13  1  0.307883  0.831055  0.500000  1
  Si  Si14  1  0.692117  0.523172  0.500000  1
  Si  Si15  1  0.831055  0.307883  0.500000  1
  Si  Si16  1  0.476828  0.168945  0.500000  1
  Si  Si17  1  0.360917  0.360917  0.000000  1
  Si  Si18  1  0.639083  0.000000  0.000000  1
  Si  Si19  1  0.000000  0.639083  0.000000  1
  Ni  Ni20  1  0.722038  0.722038  0.500000  1
  Ni  Ni21  1  0.277962  0.000000  0.500000  1
  Ni  Ni22  1  0.000000  0.277962  0.500000  1
  Ni  Ni23  1  0.183230  0.377907  0.000000  1
  Ni  Ni24  1  0.622093  0.805322  0.000000  1
  Ni  Ni25  1  0.194678  0.816770  0.000000  1
  Ni  Ni26  1  0.805322  0.622093  0.000000  1
  Ni  Ni27  1  0.816770  0.194678  0.000000  1
  Ni  Ni28  1  0.377907  0.183230  0.000000  1
  Ni  Ni29  1  0.360748  0.481410  0.500000  1
  Ni  Ni30  1  0.518590  0.879340  0.500000  1
  Ni  Ni31  1  0.120660  0.639252  0.500000  1
  Ni  Ni32  1  0.879340  0.518590  0.500000  1
  Ni  Ni33  1  0.639252  0.120660  0.500000  1
  Ni  Ni34  1  0.481410  0.360748  0.500000  1
  Ni  Ni35  1  0.000000  0.000000  0.000000  1
