# generated using pymatgen
data_Ho16In4Co3Ni
_symmetry_space_group_name_H-M   'P 1'
_cell_length_a   9.51657494
_cell_length_b   9.51029542
_cell_length_c   9.51029600
_cell_angle_alpha   60.00000494
_cell_angle_beta   60.02183022
_cell_angle_gamma   60.02182838
_symmetry_Int_Tables_number   1
_chemical_formula_structural   Ho16In4Co3Ni
_chemical_formula_sum   'Ho16 In4 Co3 Ni1'
_cell_volume   608.83126821
_cell_formula_units_Z   1
loop_
 _symmetry_equiv_pos_site_id
 _symmetry_equiv_pos_as_xyz
  1  'x, y, z'
loop_
 _atom_site_type_symbol
 _atom_site_label
 _atom_site_symmetry_multiplicity
 _atom_site_fract_x
 _atom_site_fract_y
 _atom_site_fract_z
 _atom_site_occupancy
  Ho  Ho0  1  0.937842  0.938991  0.561583  1
  Ho  Ho1  1  0.815712  0.188213  0.188213  1
  Ho  Ho2  1  0.937842  0.561583  0.561583  1
  Ho  Ho3  1  0.937842  0.561583  0.938991  1
  Ho  Ho4  1  0.815712  0.807862  0.188213  1
  Ho  Ho5  1  0.343592  0.348676  0.348676  1
  Ho  Ho6  1  0.560208  0.938337  0.938337  1
  Ho  Ho7  1  0.560208  0.938337  0.563118  1
  Ho  Ho8  1  0.188235  0.811890  0.811890  1
  Ho  Ho9  1  0.188235  0.187984  0.811890  1
  Ho  Ho10  1  0.343592  0.348676  0.959057  1
  Ho  Ho11  1  0.343592  0.959057  0.348676  1
  Ho  Ho12  1  0.815712  0.188213  0.807862  1
  Ho  Ho13  1  0.560208  0.563118  0.938337  1
  Ho  Ho14  1  0.188235  0.811890  0.187984  1
  Ho  Ho15  1  0.961012  0.346330  0.346330  1
  In  In16  1  0.582918  0.582668  0.251747  1
  In  In17  1  0.252069  0.582644  0.582644  1
  In  In18  1  0.582918  0.582668  0.582668  1
  In  In19  1  0.582918  0.251747  0.582668  1
  Co  Co20  1  0.141251  0.140764  0.140764  1
  Co  Co21  1  0.141251  0.577224  0.140764  1
  Co  Co22  1  0.141251  0.140764  0.577224  1
  Ni  Ni23  1  0.577646  0.140785  0.140785  1
