# generated using pymatgen
data_Th4Mg2PtAu3
_symmetry_space_group_name_H-M   'P 1'
_cell_length_a   8.03987822
_cell_length_b   3.96075000
_cell_length_c   8.03987822
_cell_angle_alpha   90.00000000
_cell_angle_beta   90.37572130
_cell_angle_gamma   90.00000000
_symmetry_Int_Tables_number   1
_chemical_formula_structural   Th4Mg2PtAu3
_chemical_formula_sum   'Th4 Mg2 Pt1 Au3'
_cell_volume   256.01595631
_cell_formula_units_Z   1
loop_
 _symmetry_equiv_pos_site_id
 _symmetry_equiv_pos_as_xyz
  1  'x, y, z'
loop_
 _atom_site_type_symbol
 _atom_site_label
 _atom_site_symmetry_multiplicity
 _atom_site_fract_x
 _atom_site_fract_y
 _atom_site_fract_z
 _atom_site_occupancy
  Th  Th0  1  0.336804  0.500000  0.176051  1
  Th  Th1  1  0.816635  0.500000  0.316635  1
  Th  Th2  1  0.172018  0.500000  0.672019  1
  Th  Th3  1  0.676052  0.500000  0.836804  1
  Mg  Mg4  1  0.999695  0.000000  0.001040  1
  Mg  Mg5  1  0.501040  0.000000  0.499695  1
  Pt  Pt6  1  0.630929  0.000000  0.130928  1
  Au  Au7  1  0.130050  0.000000  0.368223  1
  Au  Au8  1  0.868224  0.000000  0.630051  1
  Au  Au9  1  0.368556  0.000000  0.868557  1
