# generated using pymatgen
data_LaY5FeBr10
_symmetry_space_group_name_H-M   'P 1'
_cell_length_a   7.43796693
_cell_length_b   9.31910102
_cell_length_c   9.10813237
_cell_angle_alpha   106.93133680
_cell_angle_beta   94.94574437
_cell_angle_gamma   105.59469242
_symmetry_Int_Tables_number   1
_chemical_formula_structural   LaY5FeBr10
_chemical_formula_sum   'La1 Y5 Fe1 Br10'
_cell_volume   572.38708803
_cell_formula_units_Z   1
loop_
 _symmetry_equiv_pos_site_id
 _symmetry_equiv_pos_as_xyz
  1  'x, y, z'
loop_
 _atom_site_type_symbol
 _atom_site_label
 _atom_site_symmetry_multiplicity
 _atom_site_fract_x
 _atom_site_fract_y
 _atom_site_fract_z
 _atom_site_occupancy
  La  La0  1  0.882458  0.955401  0.228691  1
  Y  Y1  1  0.119736  0.045476  0.774883  1
  Y  Y2  1  0.031828  0.702070  0.904608  1
  Y  Y3  1  0.967782  0.296388  0.090575  1
  Y  Y4  1  0.642747  0.867288  0.825145  1
  Y  Y5  1  0.357206  0.133672  0.177314  1
  Fe  Fe6  1  0.990744  0.995424  0.016267  1
  Br  Br7  1  0.659364  0.555305  0.728272  1
  Br  Br8  1  0.339117  0.445433  0.267173  1
  Br  Br9  1  0.763781  0.923451  0.554762  1
  Br  Br10  1  0.264620  0.086317  0.459667  1
  Br  Br11  1  0.915260  0.617268  0.166302  1
  Br  Br12  1  0.089888  0.364883  0.821421  1
  Br  Br13  1  0.537833  0.173650  0.907562  1
  Br  Br14  1  0.444507  0.819351  0.081644  1
  Br  Br15  1  0.223236  0.754217  0.655560  1
  Br  Br16  1  0.769894  0.264408  0.340154  1
