# generated using pymatgen
data_CaLaNiRh3
_symmetry_space_group_name_H-M   'P 1'
_cell_length_a   5.44422911
_cell_length_b   5.44422951
_cell_length_c   5.26481726
_cell_angle_alpha   58.86615798
_cell_angle_beta   58.86615894
_cell_angle_gamma   59.99999818
_symmetry_Int_Tables_number   1
_chemical_formula_structural   CaLaNiRh3
_chemical_formula_sum   'Ca1 La1 Ni1 Rh3'
_cell_volume   108.41305311
_cell_formula_units_Z   1
loop_
 _symmetry_equiv_pos_site_id
 _symmetry_equiv_pos_as_xyz
  1  'x, y, z'
loop_
 _atom_site_type_symbol
 _atom_site_label
 _atom_site_symmetry_multiplicity
 _atom_site_fract_x
 _atom_site_fract_y
 _atom_site_fract_z
 _atom_site_occupancy
  Ca  Ca0  1  0.751287  0.751287  0.746139  1
  La  La1  1  0.498592  0.498592  0.504222  1
  Ni  Ni2  1  0.124675  0.124675  0.625975  1
  Rh  Rh3  1  0.124763  0.625918  0.124555  1
  Rh  Rh4  1  0.124763  0.124763  0.124555  1
  Rh  Rh5  1  0.625918  0.124763  0.124555  1
