# generated using pymatgen
data_Ac2Sn5Rh3
_symmetry_space_group_name_H-M   'P 1'
_cell_length_a   9.24275646
_cell_length_b   9.24275546
_cell_length_c   9.24275680
_cell_angle_alpha   138.50256918
_cell_angle_beta   106.21668137
_cell_angle_gamma   88.38083218
_symmetry_Int_Tables_number   1
_chemical_formula_structural   Ac2Sn5Rh3
_chemical_formula_sum   'Ac4 Sn10 Rh6'
_cell_volume   481.62130596
_cell_formula_units_Z   2
loop_
 _symmetry_equiv_pos_site_id
 _symmetry_equiv_pos_as_xyz
  1  'x, y, z'
loop_
 _atom_site_type_symbol
 _atom_site_label
 _atom_site_symmetry_multiplicity
 _atom_site_fract_x
 _atom_site_fract_y
 _atom_site_fract_z
 _atom_site_occupancy
  Ac  Ac0  1  0.916085  0.144214  0.771871  1
  Ac  Ac1  1  0.083915  0.855786  0.228129  1
  Ac  Ac2  1  0.627657  0.355786  0.271871  1
  Ac  Ac3  1  0.372343  0.644214  0.728129  1
  Sn  Sn4  1  0.577250  0.912221  0.665030  1
  Sn  Sn5  1  0.247192  0.412221  0.834970  1
  Sn  Sn6  1  0.422750  0.087779  0.334970  1
  Sn  Sn7  1  0.752808  0.587779  0.165030  1
  Sn  Sn8  1  0.000000  0.250000  0.250000  1
  Sn  Sn9  1  0.000000  0.750000  0.750000  1
  Sn  Sn10  1  0.721601  0.971601  0.250000  1
  Sn  Sn11  1  0.278399  0.528399  0.250000  1
  Sn  Sn12  1  0.278399  0.028399  0.750000  1
  Sn  Sn13  1  0.721601  0.471601  0.750000  1
  Rh  Rh14  1  0.246253  0.140897  0.105356  1
  Rh  Rh15  1  0.964459  0.359103  0.605356  1
  Rh  Rh16  1  0.035541  0.640897  0.394644  1
  Rh  Rh17  1  0.753747  0.859103  0.894644  1
  Rh  Rh18  1  0.500000  0.250000  0.750000  1
  Rh  Rh19  1  0.500000  0.750000  0.250000  1
