# generated using pymatgen
data_Li3Nd6ZnPd12Rh
_symmetry_space_group_name_H-M   'P 1'
_cell_length_a   8.36929398
_cell_length_b   8.36929412
_cell_length_c   8.36929507
_cell_angle_alpha   109.52026408
_cell_angle_beta   109.52027117
_cell_angle_gamma   109.52027207
_symmetry_Int_Tables_number   1
_chemical_formula_structural   Li3Nd6ZnPd12Rh
_chemical_formula_sum   'Li3 Nd6 Zn1 Pd12 Rh1'
_cell_volume   450.45712708
_cell_formula_units_Z   1
loop_
 _symmetry_equiv_pos_site_id
 _symmetry_equiv_pos_as_xyz
  1  'x, y, z'
loop_
 _atom_site_type_symbol
 _atom_site_label
 _atom_site_symmetry_multiplicity
 _atom_site_fract_x
 _atom_site_fract_y
 _atom_site_fract_z
 _atom_site_occupancy
  Li  Li0  1  0.000000  0.000000  0.500000  1
  Li  Li1  1  0.000000  0.500000  0.000000  1
  Li  Li2  1  0.500000  0.000000  0.000000  1
  Nd  Nd3  1  0.699772  0.699772  0.999192  1
  Nd  Nd4  1  0.300228  0.000808  0.300228  1
  Nd  Nd5  1  0.000808  0.300228  0.300228  1
  Nd  Nd6  1  0.300228  0.300228  0.000808  1
  Nd  Nd7  1  0.699772  0.999192  0.699772  1
  Nd  Nd8  1  0.999192  0.699772  0.699772  1
  Zn  Zn9  1  0.500000  0.500000  0.500000  1
  Pd  Pd10  1  0.331653  0.331653  0.663731  1
  Pd  Pd11  1  0.667415  0.000000  0.332585  1
  Pd  Pd12  1  0.000000  0.667415  0.332585  1
  Pd  Pd13  1  0.667415  0.332585  0.000000  1
  Pd  Pd14  1  0.331653  0.663731  0.331653  1
  Pd  Pd15  1  0.000000  0.332585  0.667415  1
  Pd  Pd16  1  0.332585  0.667415  0.000000  1
  Pd  Pd17  1  0.332585  0.000000  0.667415  1
  Pd  Pd18  1  0.663731  0.331653  0.331653  1
  Pd  Pd19  1  0.668347  0.668347  0.336269  1
  Pd  Pd20  1  0.668347  0.336269  0.668347  1
  Pd  Pd21  1  0.336269  0.668347  0.668347  1
  Rh  Rh22  1  0.000000  0.000000  0.000000  1
