# generated using pymatgen
data_La4NdNi19
_symmetry_space_group_name_H-M   'P 1'
_cell_length_a   4.99957174
_cell_length_b   4.99957271
_cell_length_c   16.58776919
_cell_angle_alpha   81.33247090
_cell_angle_beta   81.33246937
_cell_angle_gamma   60.00000385
_symmetry_Int_Tables_number   1
_chemical_formula_structural   La4NdNi19
_chemical_formula_sum   'La4 Nd1 Ni19'
_cell_volume   353.59596526
_cell_formula_units_Z   1
loop_
 _symmetry_equiv_pos_site_id
 _symmetry_equiv_pos_as_xyz
  1  'x, y, z'
loop_
 _atom_site_type_symbol
 _atom_site_label
 _atom_site_symmetry_multiplicity
 _atom_site_fract_x
 _atom_site_fract_y
 _atom_site_fract_z
 _atom_site_occupancy
  La  La0  1  0.077870  0.077870  0.766389  1
  La  La1  1  0.922130  0.922130  0.233611  1
  La  La2  1  0.151228  0.151228  0.546317  1
  La  La3  1  0.848772  0.848772  0.453683  1
  Nd  Nd4  1  0.000000  0.000000  0.000000  1
  Ni  Ni5  1  0.500000  0.500000  0.500000  1
  Ni  Ni6  1  0.251336  0.251336  0.245993  1
  Ni  Ni7  1  0.748664  0.748664  0.754007  1
  Ni  Ni8  1  0.333281  0.333281  0.000160  1
  Ni  Ni9  1  0.666719  0.666719  0.999841  1
  Ni  Ni10  1  0.414930  0.414930  0.755213  1
  Ni  Ni11  1  0.585070  0.585070  0.244787  1
  Ni  Ni12  1  0.123488  0.621958  0.632597  1
  Ni  Ni13  1  0.621958  0.621958  0.632597  1
  Ni  Ni14  1  0.621958  0.123488  0.632597  1
  Ni  Ni15  1  0.876512  0.378042  0.367403  1
  Ni  Ni16  1  0.378042  0.378042  0.367403  1
  Ni  Ni17  1  0.378042  0.876512  0.367403  1
  Ni  Ni18  1  0.039878  0.540474  0.879174  1
  Ni  Ni19  1  0.540474  0.540474  0.879174  1
  Ni  Ni20  1  0.540474  0.039878  0.879174  1
  Ni  Ni21  1  0.960122  0.459526  0.120826  1
  Ni  Ni22  1  0.459526  0.459526  0.120826  1
  Ni  Ni23  1  0.459526  0.960122  0.120826  1
