# generated using pymatgen
data_Ho(Ga3Pd)3
_symmetry_space_group_name_H-M   'P 1'
_cell_length_a   10.48289824
_cell_length_b   10.48286289
_cell_length_c   10.48296670
_cell_angle_alpha   42.27302944
_cell_angle_beta   42.27235521
_cell_angle_gamma   42.27314663
_symmetry_Int_Tables_number   1
_chemical_formula_structural   Ho(Ga3Pd)3
_chemical_formula_sum   'Ho2 Ga18 Pd6'
_cell_volume   471.75816887
_cell_formula_units_Z   2
loop_
 _symmetry_equiv_pos_site_id
 _symmetry_equiv_pos_as_xyz
  1  'x, y, z'
loop_
 _atom_site_type_symbol
 _atom_site_label
 _atom_site_symmetry_multiplicity
 _atom_site_fract_x
 _atom_site_fract_y
 _atom_site_fract_z
 _atom_site_occupancy
  Ho  Ho0  1  0.166847  0.166848  0.166853  1
  Ho  Ho1  1  0.833157  0.833151  0.833163  1
  Ga  Ga2  1  0.049174  0.049105  0.049229  1
  Ga  Ga3  1  0.704237  0.500014  0.295768  1
  Ga  Ga4  1  0.665107  0.334973  0.999987  1
  Ga  Ga5  1  0.108516  0.437871  0.769274  1
  Ga  Ga6  1  0.437907  0.769235  0.108534  1
  Ga  Ga7  1  0.384821  0.384810  0.384762  1
  Ga  Ga8  1  0.334921  0.000011  0.665162  1
  Ga  Ga9  1  0.615184  0.615195  0.615199  1
  Ga  Ga10  1  0.230725  0.562104  0.891491  1
  Ga  Ga11  1  0.562088  0.891471  0.230749  1
  Ga  Ga12  1  0.499990  0.295772  0.704263  1
  Ga  Ga13  1  0.769266  0.108491  0.437900  1
  Ga  Ga14  1  0.950759  0.950785  0.950750  1
  Ga  Ga15  1  0.295748  0.704272  0.499994  1
  Ga  Ga16  1  0.000037  0.665271  0.334754  1
  Ga  Ga17  1  0.715471  0.715432  0.715414  1
  Ga  Ga18  1  0.284552  0.284572  0.284567  1
  Ga  Ga19  1  0.891492  0.230718  0.562106  1
  Pd  Pd20  1  0.240426  0.921949  0.580686  1
  Pd  Pd21  1  0.921948  0.580648  0.240449  1
  Pd  Pd22  1  0.759599  0.419298  0.078062  1
  Pd  Pd23  1  0.078043  0.759547  0.419310  1
  Pd  Pd24  1  0.419332  0.078017  0.759594  1
  Pd  Pd25  1  0.580654  0.240439  0.921982  1
