# generated using pymatgen
data_KAlI4
_symmetry_space_group_name_H-M   'P 1'
_cell_length_a   8.46265600
_cell_length_b   11.40278600
_cell_length_c   11.48358400
_cell_angle_alpha   90.00000000
_cell_angle_beta   90.00000000
_cell_angle_gamma   90.00000000
_symmetry_Int_Tables_number   1
_chemical_formula_structural   KAlI4
_chemical_formula_sum   'K4 Al4 I16'
_cell_volume   1108.14122784
_cell_formula_units_Z   4
loop_
 _symmetry_equiv_pos_site_id
 _symmetry_equiv_pos_as_xyz
  1  'x, y, z'
loop_
 _atom_site_type_symbol
 _atom_site_label
 _atom_site_symmetry_multiplicity
 _atom_site_fract_x
 _atom_site_fract_y
 _atom_site_fract_z
 _atom_site_occupancy
  K  K0  1  0.322350  0.250000  0.250000  1
  K  K1  1  0.677650  0.750000  0.750000  1
  K  K2  1  0.177650  0.750000  0.250000  1
  K  K3  1  0.822350  0.250000  0.750000  1
  Al  Al4  1  0.250000  0.000000  0.678981  1
  Al  Al5  1  0.750000  0.000000  0.321019  1
  Al  Al6  1  0.250000  0.500000  0.821019  1
  Al  Al7  1  0.750000  0.500000  0.178981  1
  I  I8  1  0.163711  0.175628  0.554411  1
  I  I9  1  0.836289  0.824372  0.445589  1
  I  I10  1  0.336289  0.824372  0.554411  1
  I  I11  1  0.336289  0.675628  0.945589  1
  I  I12  1  0.663711  0.175628  0.445589  1
  I  I13  1  0.663711  0.324372  0.054411  1
  I  I14  1  0.163711  0.324372  0.945589  1
  I  I15  1  0.836289  0.675628  0.054411  1
  I  I16  1  0.986800  0.043799  0.186202  1
  I  I17  1  0.013200  0.956201  0.813798  1
  I  I18  1  0.513200  0.956201  0.186202  1
  I  I19  1  0.513200  0.543799  0.313798  1
  I  I20  1  0.486800  0.043799  0.813798  1
  I  I21  1  0.486800  0.456201  0.686202  1
  I  I22  1  0.986800  0.456201  0.313798  1
  I  I23  1  0.013200  0.543799  0.686202  1
