# generated using pymatgen
data_LaY2PdRh8
_symmetry_space_group_name_H-M   'P 1'
_cell_length_a   5.33771701
_cell_length_b   5.33788668
_cell_length_c   17.56550300
_cell_angle_alpha   90.00000000
_cell_angle_beta   90.00000000
_cell_angle_gamma   120.00378839
_symmetry_Int_Tables_number   1
_chemical_formula_structural   LaY2PdRh8
_chemical_formula_sum   'La2 Y4 Pd2 Rh16'
_cell_volume   433.41060801
_cell_formula_units_Z   2
loop_
 _symmetry_equiv_pos_site_id
 _symmetry_equiv_pos_as_xyz
  1  'x, y, z'
loop_
 _atom_site_type_symbol
 _atom_site_label
 _atom_site_symmetry_multiplicity
 _atom_site_fract_x
 _atom_site_fract_y
 _atom_site_fract_z
 _atom_site_occupancy
  La  La0  1  0.333334  0.666670  0.750000  1
  La  La1  1  0.666666  0.333330  0.250000  1
  Y  Y2  1  0.333337  0.666665  0.958262  1
  Y  Y3  1  0.666663  0.333335  0.041738  1
  Y  Y4  1  0.666663  0.333335  0.458262  1
  Y  Y5  1  0.333337  0.666665  0.541738  1
  Pd  Pd6  1  0.333325  0.666711  0.250000  1
  Pd  Pd7  1  0.666675  0.333289  0.750000  1
  Rh  Rh8  1  0.167329  0.832668  0.376518  1
  Rh  Rh9  1  0.167336  0.334672  0.376504  1
  Rh  Rh10  1  0.665324  0.832664  0.376512  1
  Rh  Rh11  1  0.832671  0.167332  0.623482  1
  Rh  Rh12  1  0.832664  0.665328  0.623496  1
  Rh  Rh13  1  0.334676  0.167336  0.623488  1
  Rh  Rh14  1  0.832671  0.167332  0.876518  1
  Rh  Rh15  1  0.832664  0.665328  0.876504  1
  Rh  Rh16  1  0.334676  0.167336  0.876512  1
  Rh  Rh17  1  0.167329  0.832668  0.123482  1
  Rh  Rh18  1  0.167336  0.334672  0.123496  1
  Rh  Rh19  1  0.665324  0.832664  0.123488  1
  Rh  Rh20  1  0.999996  0.999967  0.250000  1
  Rh  Rh21  1  0.000004  0.000033  0.750000  1
  Rh  Rh22  1  0.000000  0.000000  0.500000  1
  Rh  Rh23  1  0.000000  0.000000  0.000000  1
