# generated using pymatgen
data_Nd2InCuNi
_symmetry_space_group_name_H-M   'P 1'
_cell_length_a   7.69993979
_cell_length_b   7.69993979
_cell_length_c   3.78645100
_cell_angle_alpha   90.00000000
_cell_angle_beta   90.00000000
_cell_angle_gamma   89.20396297
_symmetry_Int_Tables_number   1
_chemical_formula_structural   Nd2InCuNi
_chemical_formula_sum   'Nd4 In2 Cu2 Ni2'
_cell_volume   224.47350211
_cell_formula_units_Z   2
loop_
 _symmetry_equiv_pos_site_id
 _symmetry_equiv_pos_as_xyz
  1  'x, y, z'
loop_
 _atom_site_type_symbol
 _atom_site_label
 _atom_site_symmetry_multiplicity
 _atom_site_fract_x
 _atom_site_fract_y
 _atom_site_fract_z
 _atom_site_occupancy
  Nd  Nd0  1  0.669353  0.169353  0.500000  1
  Nd  Nd1  1  0.330647  0.830647  0.500000  1
  Nd  Nd2  1  0.184556  0.315444  0.500000  1
  Nd  Nd3  1  0.815444  0.684556  0.500000  1
  In  In4  1  0.500000  0.500000  0.000000  1
  In  In5  1  0.000000  0.000000  0.000000  1
  Cu  Cu6  1  0.117875  0.617875  0.000000  1
  Cu  Cu7  1  0.882125  0.382125  0.000000  1
  Ni  Ni8  1  0.618317  0.881683  0.000000  1
  Ni  Ni9  1  0.381683  0.118317  0.000000  1
