# generated using pymatgen
data_Dy2ErTh11Os6
_symmetry_space_group_name_H-M   'P 1'
_cell_length_a   9.88481344
_cell_length_b   9.97402692
_cell_length_c   6.37555066
_cell_angle_alpha   90.05159280
_cell_angle_beta   89.91167331
_cell_angle_gamma   120.13993463
_symmetry_Int_Tables_number   1
_chemical_formula_structural   Dy2ErTh11Os6
_chemical_formula_sum   'Dy2 Er1 Th11 Os6'
_cell_volume   543.59156527
_cell_formula_units_Z   1
loop_
 _symmetry_equiv_pos_site_id
 _symmetry_equiv_pos_as_xyz
  1  'x, y, z'
loop_
 _atom_site_type_symbol
 _atom_site_label
 _atom_site_symmetry_multiplicity
 _atom_site_fract_x
 _atom_site_fract_y
 _atom_site_fract_z
 _atom_site_occupancy
  Dy  Dy0  1  0.460529  0.536163  0.299067  1
  Dy  Dy1  1  0.072379  0.535319  0.300997  1
  Er  Er2  1  0.927635  0.463417  0.800526  1
  Th  Th3  1  0.252770  0.128454  0.510333  1
  Th  Th4  1  0.541338  0.080339  0.795986  1
  Th  Th5  1  0.745866  0.872645  0.013147  1
  Th  Th6  1  0.667712  0.333715  0.273480  1
  Th  Th7  1  0.126334  0.869939  0.009419  1
  Th  Th8  1  0.460138  0.918318  0.296119  1
  Th  Th9  1  0.538021  0.465583  0.800535  1
  Th  Th10  1  0.874371  0.130293  0.512372  1
  Th  Th11  1  0.125330  0.255340  0.013907  1
  Th  Th12  1  0.873337  0.745370  0.510146  1
  Th  Th13  1  0.332225  0.664966  0.770146  1
  Os  Os14  1  0.813223  0.628487  0.046805  1
  Os  Os15  1  0.814196  0.184447  0.045777  1
  Os  Os16  1  0.630302  0.814497  0.545885  1
  Os  Os17  1  0.371718  0.186960  0.041925  1
  Os  Os18  1  0.185308  0.368973  0.552731  1
  Os  Os19  1  0.187266  0.816778  0.544695  1
