# generated using pymatgen
data_Tb2Fe3P7Ir5Ru4
_symmetry_space_group_name_H-M   'P 1'
_cell_length_a   3.87016900
_cell_length_b   9.34528361
_cell_length_c   9.36526222
_cell_angle_alpha   119.82049115
_cell_angle_beta   90.00000000
_cell_angle_gamma   90.00000000
_symmetry_Int_Tables_number   1
_chemical_formula_structural   Tb2Fe3P7Ir5Ru4
_chemical_formula_sum   'Tb2 Fe3 P7 Ir5 Ru4'
_cell_volume   293.87031909
_cell_formula_units_Z   1
loop_
 _symmetry_equiv_pos_site_id
 _symmetry_equiv_pos_as_xyz
  1  'x, y, z'
loop_
 _atom_site_type_symbol
 _atom_site_label
 _atom_site_symmetry_multiplicity
 _atom_site_fract_x
 _atom_site_fract_y
 _atom_site_fract_z
 _atom_site_occupancy
  Tb  Tb0  1  0.000000  0.665315  0.332893  1
  Tb  Tb1  1  0.500000  0.334493  0.665954  1
  Fe  Fe2  1  0.000000  0.891235  0.732370  1
  Fe  Fe3  1  0.000000  0.268689  0.156850  1
  Fe  Fe4  1  0.000000  0.840541  0.113160  1
  P  P5  1  0.000000  0.109758  0.704416  1
  P  P6  1  0.000000  0.298862  0.407218  1
  P  P7  1  0.000000  0.596710  0.886827  1
  P  P8  1  0.500000  0.716742  0.603323  1
  P  P9  1  0.500000  0.395152  0.117756  1
  P  P10  1  0.500000  0.878950  0.278220  1
  P  P11  1  0.000000  0.999684  0.001435  1
  Ir  Ir12  1  0.000000  0.366946  0.934162  1
  Ir  Ir13  1  0.000000  0.064873  0.432612  1
  Ir  Ir14  1  0.500000  0.939934  0.556539  1
  Ir  Ir15  1  0.500000  0.439763  0.384227  1
  Ir  Ir16  1  0.500000  0.613219  0.055601  1
  Ru  Ru17  1  0.000000  0.573468  0.632427  1
  Ru  Ru18  1  0.500000  0.127324  0.905215  1
  Ru  Ru19  1  0.500000  0.090447  0.222847  1
  Ru  Ru20  1  0.500000  0.787896  0.875949  1
