# generated using pymatgen
data_Sr6Cd2FeRuO12
_symmetry_space_group_name_H-M   'P 1'
_cell_length_a   6.86367380
_cell_length_b   6.86367454
_cell_length_c   6.86367308
_cell_angle_alpha   91.10793863
_cell_angle_beta   91.10792840
_cell_angle_gamma   91.10792965
_symmetry_Int_Tables_number   1
_chemical_formula_structural   Sr6Cd2FeRuO12
_chemical_formula_sum   'Sr6 Cd2 Fe1 Ru1 O12'
_cell_volume   323.16406986
_cell_formula_units_Z   1
loop_
 _symmetry_equiv_pos_site_id
 _symmetry_equiv_pos_as_xyz
  1  'x, y, z'
loop_
 _atom_site_type_symbol
 _atom_site_label
 _atom_site_symmetry_multiplicity
 _atom_site_fract_x
 _atom_site_fract_y
 _atom_site_fract_z
 _atom_site_occupancy
  Sr  Sr0  1  0.757388  0.385037  0.108362  1
  Sr  Sr1  1  0.108362  0.757388  0.385037  1
  Sr  Sr2  1  0.385037  0.108362  0.757388  1
  Sr  Sr3  1  0.242612  0.614963  0.891638  1
  Sr  Sr4  1  0.891638  0.242612  0.614963  1
  Sr  Sr5  1  0.614963  0.891638  0.242612  1
  Cd  Cd6  1  0.243477  0.243477  0.243477  1
  Cd  Cd7  1  0.756523  0.756523  0.756523  1
  Fe  Fe8  1  0.000000  0.000000  0.000000  1
  Ru  Ru9  1  0.500000  0.500000  0.500000  1
  O  O10  1  0.450634  0.777291  0.577044  1
  O  O11  1  0.577044  0.450634  0.777291  1
  O  O12  1  0.777291  0.577044  0.450634  1
  O  O13  1  0.055101  0.914914  0.713359  1
  O  O14  1  0.713359  0.055101  0.914914  1
  O  O15  1  0.914914  0.713359  0.055101  1
  O  O16  1  0.549366  0.222709  0.422956  1
  O  O17  1  0.422956  0.549366  0.222709  1
  O  O18  1  0.222709  0.422956  0.549366  1
  O  O19  1  0.944899  0.085086  0.286641  1
  O  O20  1  0.085086  0.286641  0.944899  1
  O  O21  1  0.286641  0.944899  0.085086  1
