# generated using pymatgen
data_Y2HoTm17Sn16
_symmetry_space_group_name_H-M   'P 1'
_cell_length_a   7.96037287
_cell_length_b   8.08049941
_cell_length_c   15.26778724
_cell_angle_alpha   90.01645239
_cell_angle_beta   90.07021774
_cell_angle_gamma   89.95886502
_symmetry_Int_Tables_number   1
_chemical_formula_structural   Y2HoTm17Sn16
_chemical_formula_sum   'Y2 Ho1 Tm17 Sn16'
_cell_volume   982.08088186
_cell_formula_units_Z   1
loop_
 _symmetry_equiv_pos_site_id
 _symmetry_equiv_pos_as_xyz
  1  'x, y, z'
loop_
 _atom_site_type_symbol
 _atom_site_label
 _atom_site_symmetry_multiplicity
 _atom_site_fract_x
 _atom_site_fract_y
 _atom_site_fract_z
 _atom_site_occupancy
  Y  Y0  1  0.521956  0.321315  0.596528  1
  Y  Y1  1  0.022285  0.178598  0.903525  1
  Ho  Ho2  1  0.978135  0.821055  0.403048  1
  Tm  Tm3  1  0.368319  0.837067  0.877426  1
  Tm  Tm4  1  0.867640  0.662724  0.622801  1
  Tm  Tm5  1  0.632394  0.162403  0.376784  1
  Tm  Tm6  1  0.131979  0.337528  0.122752  1
  Tm  Tm7  1  0.631803  0.162915  0.122700  1
  Tm  Tm8  1  0.132104  0.337304  0.377106  1
  Tm  Tm9  1  0.368137  0.837041  0.622777  1
  Tm  Tm10  1  0.868835  0.662888  0.877408  1
  Tm  Tm11  1  0.523372  0.321511  0.902530  1
  Tm  Tm12  1  0.022969  0.178876  0.597424  1
  Tm  Tm13  1  0.477249  0.678833  0.402703  1
  Tm  Tm14  1  0.976855  0.820869  0.097477  1
  Tm  Tm15  1  0.476908  0.678620  0.096966  1
  Tm  Tm16  1  0.198704  0.504038  0.750139  1
  Tm  Tm17  1  0.698583  0.995991  0.750132  1
  Tm  Tm18  1  0.801189  0.496332  0.249717  1
  Tm  Tm19  1  0.301289  0.003820  0.249787  1
  Sn  Sn20  1  0.292950  0.035213  0.042357  1
  Sn  Sn21  1  0.792853  0.463623  0.457866  1
  Sn  Sn22  1  0.707725  0.963508  0.541764  1
  Sn  Sn23  1  0.208708  0.537042  0.958742  1
  Sn  Sn24  1  0.706030  0.962200  0.958893  1
  Sn  Sn25  1  0.205504  0.538011  0.541096  1
  Sn  Sn26  1  0.293819  0.037405  0.458682  1
  Sn  Sn27  1  0.792046  0.463781  0.041448  1
  Sn  Sn28  1  0.564833  0.619521  0.750248  1
  Sn  Sn29  1  0.064783  0.880277  0.749955  1
  Sn  Sn30  1  0.435372  0.381042  0.249896  1
  Sn  Sn31  1  0.935366  0.119265  0.249895  1
  Sn  Sn32  1  0.332176  0.148815  0.750379  1
  Sn  Sn33  1  0.832290  0.351055  0.749635  1
  Sn  Sn34  1  0.666721  0.850228  0.249783  1
  Sn  Sn35  1  0.168121  0.649284  0.249634  1
