# generated using pymatgen
data_Sc4VTcOs6
_symmetry_space_group_name_H-M   'P 1'
_cell_length_a   5.26325328
_cell_length_b   5.17210212
_cell_length_c   8.65991800
_cell_angle_alpha   90.00000000
_cell_angle_beta   90.00000000
_cell_angle_gamma   121.52990525
_symmetry_Int_Tables_number   1
_chemical_formula_structural   Sc4VTcOs6
_chemical_formula_sum   'Sc4 V1 Tc1 Os6'
_cell_volume   200.93793598
_cell_formula_units_Z   1
loop_
 _symmetry_equiv_pos_site_id
 _symmetry_equiv_pos_as_xyz
  1  'x, y, z'
loop_
 _atom_site_type_symbol
 _atom_site_label
 _atom_site_symmetry_multiplicity
 _atom_site_fract_x
 _atom_site_fract_y
 _atom_site_fract_z
 _atom_site_occupancy
  Sc  Sc0  1  0.333598  0.661602  0.433976  1
  Sc  Sc1  1  0.666543  0.336876  0.564984  1
  Sc  Sc2  1  0.666543  0.336876  0.935016  1
  Sc  Sc3  1  0.333598  0.661602  0.066024  1
  V  V4  1  0.166505  0.338562  0.750000  1
  Tc  Tc5  1  0.345264  0.171253  0.250000  1
  Os  Os6  1  0.170771  0.823389  0.750000  1
  Os  Os7  1  0.830431  0.661590  0.250000  1
  Os  Os8  1  0.647230  0.821015  0.750000  1
  Os  Os9  1  0.007707  0.007466  0.997086  1
  Os  Os10  1  0.824100  0.172303  0.250000  1
  Os  Os11  1  0.007707  0.007466  0.502914  1
