# generated using pymatgen
data_Zr2Si7(IrRh)6
_symmetry_space_group_name_H-M   'P 1'
_cell_length_a   9.70075400
_cell_length_b   9.70075329
_cell_length_c   3.84075700
_cell_angle_alpha   90.00000000
_cell_angle_beta   90.00000000
_cell_angle_gamma   120.00000925
_symmetry_Int_Tables_number   1
_chemical_formula_structural   Zr2Si7(IrRh)6
_chemical_formula_sum   'Zr2 Si7 Ir6 Rh6'
_cell_volume   313.01011572
_cell_formula_units_Z   1
loop_
 _symmetry_equiv_pos_site_id
 _symmetry_equiv_pos_as_xyz
  1  'x, y, z'
loop_
 _atom_site_type_symbol
 _atom_site_label
 _atom_site_symmetry_multiplicity
 _atom_site_fract_x
 _atom_site_fract_y
 _atom_site_fract_z
 _atom_site_occupancy
  Zr  Zr0  1  0.333333  0.666667  0.751124  1
  Zr  Zr1  1  0.666667  0.333333  0.248876  1
  Si  Si2  1  0.000000  0.000000  0.500000  1
  Si  Si3  1  0.405263  0.290294  0.750961  1
  Si  Si4  1  0.709706  0.114967  0.750961  1
  Si  Si5  1  0.885033  0.594737  0.750961  1
  Si  Si6  1  0.594737  0.709706  0.249039  1
  Si  Si7  1  0.290294  0.885033  0.249039  1
  Si  Si8  1  0.114967  0.405263  0.249039  1
  Ir  Ir9  1  0.447053  0.068107  0.751953  1
  Ir  Ir10  1  0.931893  0.378944  0.751953  1
  Ir  Ir11  1  0.621056  0.552947  0.751953  1
  Ir  Ir12  1  0.552947  0.931893  0.248047  1
  Ir  Ir13  1  0.068107  0.621056  0.248047  1
  Ir  Ir14  1  0.378944  0.447053  0.248047  1
  Rh  Rh15  1  0.144563  0.263853  0.745462  1
  Rh  Rh16  1  0.736147  0.880711  0.745462  1
  Rh  Rh17  1  0.119289  0.855437  0.745462  1
  Rh  Rh18  1  0.855437  0.736147  0.254538  1
  Rh  Rh19  1  0.263853  0.119289  0.254538  1
  Rh  Rh20  1  0.880711  0.144563  0.254538  1
