# generated using pymatgen
data_LaTb(CuP2)2
_symmetry_space_group_name_H-M   'P 1'
_cell_length_a   3.76895700
_cell_length_b   3.86391500
_cell_length_c   20.01035900
_cell_angle_alpha   90.00000000
_cell_angle_beta   90.00000000
_cell_angle_gamma   90.00000000
_symmetry_Int_Tables_number   1
_chemical_formula_structural   LaTb(CuP2)2
_chemical_formula_sum   'La2 Tb2 Cu4 P8'
_cell_volume   291.40944712
_cell_formula_units_Z   2
loop_
 _symmetry_equiv_pos_site_id
 _symmetry_equiv_pos_as_xyz
  1  'x, y, z'
loop_
 _atom_site_type_symbol
 _atom_site_label
 _atom_site_symmetry_multiplicity
 _atom_site_fract_x
 _atom_site_fract_y
 _atom_site_fract_z
 _atom_site_occupancy
  La  La0  1  0.750000  0.280915  0.617556  1
  La  La1  1  0.750000  0.219085  0.117556  1
  Tb  Tb2  1  0.250000  0.716255  0.379993  1
  Tb  Tb3  1  0.250000  0.783745  0.879993  1
  Cu  Cu4  1  0.250000  0.223161  0.252475  1
  Cu  Cu5  1  0.750000  0.776479  0.753483  1
  Cu  Cu6  1  0.250000  0.276839  0.752475  1
  Cu  Cu7  1  0.750000  0.723521  0.253483  1
  P  P8  1  0.750000  0.817471  0.496896  1
  P  P9  1  0.750000  0.682529  0.996896  1
  P  P10  1  0.250000  0.184005  0.491979  1
  P  P11  1  0.250000  0.315995  0.991979  1
  P  P12  1  0.250000  0.720843  0.180325  1
  P  P13  1  0.750000  0.219472  0.327291  1
  P  P14  1  0.750000  0.280528  0.827291  1
  P  P15  1  0.250000  0.779157  0.680325  1
