# generated using pymatgen
data_Hf6Zn15GeAu8
_symmetry_space_group_name_H-M   'P 1'
_cell_length_a   8.90624370
_cell_length_b   8.90282128
_cell_length_c   8.90548706
_cell_angle_alpha   59.99953715
_cell_angle_beta   60.01505229
_cell_angle_gamma   60.03137574
_symmetry_Int_Tables_number   1
_chemical_formula_structural   Hf6Zn15GeAu8
_chemical_formula_sum   'Hf6 Zn15 Ge1 Au8'
_cell_volume   499.47719855
_cell_formula_units_Z   1
loop_
 _symmetry_equiv_pos_site_id
 _symmetry_equiv_pos_as_xyz
  1  'x, y, z'
loop_
 _atom_site_type_symbol
 _atom_site_label
 _atom_site_symmetry_multiplicity
 _atom_site_fract_x
 _atom_site_fract_y
 _atom_site_fract_z
 _atom_site_occupancy
  Hf  Hf0  1  0.713446  0.286675  0.286601  1
  Hf  Hf1  1  0.286554  0.713326  0.713400  1
  Hf  Hf2  1  0.286577  0.713381  0.286667  1
  Hf  Hf3  1  0.713426  0.286615  0.713328  1
  Hf  Hf4  1  0.286532  0.286697  0.713437  1
  Hf  Hf5  1  0.713464  0.713308  0.286566  1
  Zn  Zn6  1  0.499999  0.000000  0.000001  1
  Zn  Zn7  1  0.000000  0.499999  0.500000  1
  Zn  Zn8  1  0.000000  0.500000  0.000000  1
  Zn  Zn9  1  0.500000  0.000001  0.500000  1
  Zn  Zn10  1  0.000001  0.999999  0.500001  1
  Zn  Zn11  1  0.500001  0.499999  0.000000  1
  Zn  Zn12  1  0.338631  0.338675  0.338656  1
  Zn  Zn13  1  0.661370  0.661325  0.661344  1
  Zn  Zn14  1  0.338625  0.338626  0.984131  1
  Zn  Zn15  1  0.338609  0.984059  0.338658  1
  Zn  Zn16  1  0.661377  0.661372  0.015869  1
  Zn  Zn17  1  0.661390  0.015940  0.661342  1
  Zn  Zn18  1  0.984237  0.338565  0.338613  1
  Zn  Zn19  1  0.015764  0.661436  0.661388  1
  Zn  Zn20  1  0.000000  0.000000  0.000000  1
  Ge  Ge21  1  0.500000  0.500003  0.499998  1
  Au  Au22  1  0.122122  0.122133  0.122133  1
  Au  Au23  1  0.877881  0.877864  0.877867  1
  Au  Au24  1  0.122149  0.122132  0.633580  1
  Au  Au25  1  0.122137  0.633613  0.122114  1
  Au  Au26  1  0.877852  0.877867  0.366421  1
  Au  Au27  1  0.877859  0.366387  0.877888  1
  Au  Au28  1  0.633553  0.122158  0.122147  1
  Au  Au29  1  0.366448  0.877845  0.877852  1
