# generated using pymatgen
data_YBi3(SbO4)4
_symmetry_space_group_name_H-M   'P 1'
_cell_length_a   5.23097335
_cell_length_b   5.24504870
_cell_length_c   13.76821000
_cell_angle_alpha   68.13304510
_cell_angle_beta   90.05434967
_cell_angle_gamma   89.93786644
_symmetry_Int_Tables_number   1
_chemical_formula_structural   YBi3(SbO4)4
_chemical_formula_sum   'Y1 Bi3 Sb4 O16'
_cell_volume   350.57483900
_cell_formula_units_Z   1
loop_
 _symmetry_equiv_pos_site_id
 _symmetry_equiv_pos_as_xyz
  1  'x, y, z'
loop_
 _atom_site_type_symbol
 _atom_site_label
 _atom_site_symmetry_multiplicity
 _atom_site_fract_x
 _atom_site_fract_y
 _atom_site_fract_z
 _atom_site_occupancy
  Y  Y0  1  0.251855  0.333498  0.168078  1
  Bi  Bi1  1  0.754795  0.672420  0.328016  1
  Bi  Bi2  1  0.747467  0.668740  0.827238  1
  Bi  Bi3  1  0.248082  0.326966  0.671736  1
  Sb  Sb4  1  0.747854  0.929404  0.070537  1
  Sb  Sb5  1  0.752486  0.930194  0.566310  1
  Sb  Sb6  1  0.247912  0.066116  0.934975  1
  Sb  Sb7  1  0.250709  0.074104  0.428472  1
  O  O8  1  0.429652  0.735958  0.047422  1
  O  O9  1  0.065948  0.745715  0.539573  1
  O  O10  1  0.560693  0.251019  0.961203  1
  O  O11  1  0.939684  0.257356  0.459053  1
  O  O12  1  0.596972  0.032486  0.182225  1
  O  O13  1  0.895051  0.022793  0.683237  1
  O  O14  1  0.391593  0.968918  0.819777  1
  O  O15  1  0.101471  0.983574  0.313353  1
  O  O16  1  0.065074  0.168368  0.048920  1
  O  O17  1  0.438221  0.165357  0.544252  1
  O  O18  1  0.932561  0.835481  0.956764  1
  O  O19  1  0.564013  0.835105  0.453518  1
  O  O20  1  0.900905  0.602620  0.178768  1
  O  O21  1  0.612561  0.598511  0.679380  1
  O  O22  1  0.109777  0.397048  0.821624  1
  O  O23  1  0.394663  0.398244  0.315568  1
