# generated using pymatgen
data_Zr4Hg(PO4)6
_symmetry_space_group_name_H-M   'P 1'
_cell_length_a   8.96141566
_cell_length_b   8.96141610
_cell_length_c   9.20340555
_cell_angle_alpha   119.13396927
_cell_angle_beta   119.13397027
_cell_angle_gamma   59.99999620
_symmetry_Int_Tables_number   1
_chemical_formula_structural   Zr4Hg(PO4)6
_chemical_formula_sum   'Zr4 Hg1 P6 O24'
_cell_volume   529.35791866
_cell_formula_units_Z   1
loop_
 _symmetry_equiv_pos_site_id
 _symmetry_equiv_pos_as_xyz
  1  'x, y, z'
loop_
 _atom_site_type_symbol
 _atom_site_label
 _atom_site_symmetry_multiplicity
 _atom_site_fract_x
 _atom_site_fract_y
 _atom_site_fract_z
 _atom_site_occupancy
  Zr  Zr0  1  0.351573  0.351573  0.054719  1
  Zr  Zr1  1  0.138324  0.138324  0.414971  1
  Zr  Zr2  1  0.861676  0.861676  0.585030  1
  Zr  Zr3  1  0.648427  0.648427  0.945281  1
  Hg  Hg4  1  0.500000  0.500000  0.499999  1
  P  P5  1  0.744046  0.044564  0.260179  1
  P  P6  1  0.044565  0.471568  0.260179  1
  P  P7  1  0.471568  0.744046  0.260179  1
  P  P8  1  0.528432  0.255954  0.739821  1
  P  P9  1  0.955435  0.528432  0.739821  1
  P  P10  1  0.255954  0.955435  0.739821  1
  O  O11  1  0.892966  0.509518  0.089796  1
  O  O12  1  0.509519  0.687312  0.089796  1
  O  O13  1  0.687312  0.892966  0.089796  1
  O  O14  1  0.588299  0.232140  0.249494  1
  O  O15  1  0.232139  0.429056  0.249494  1
  O  O16  1  0.429055  0.588300  0.249494  1
  O  O17  1  0.918355  0.047544  0.269746  1
  O  O18  1  0.047544  0.303847  0.269746  1
  O  O19  1  0.303847  0.918355  0.269746  1
  O  O20  1  0.767541  0.014221  0.420994  1
  O  O21  1  0.014220  0.639233  0.420994  1
  O  O22  1  0.639233  0.767540  0.420994  1
  O  O23  1  0.360766  0.232459  0.579006  1
  O  O24  1  0.985780  0.360767  0.579006  1
  O  O25  1  0.232460  0.985780  0.579006  1
  O  O26  1  0.696153  0.081645  0.730254  1
  O  O27  1  0.952456  0.696153  0.730254  1
  O  O28  1  0.081645  0.952456  0.730254  1
  O  O29  1  0.570945  0.411700  0.750506  1
  O  O30  1  0.767861  0.570944  0.750506  1
  O  O31  1  0.411701  0.767860  0.750506  1
  O  O32  1  0.312688  0.107034  0.910204  1
  O  O33  1  0.490481  0.312689  0.910204  1
  O  O34  1  0.107033  0.490482  0.910204  1
