# generated using pymatgen
data_Mg2Ni2AsRh
_symmetry_space_group_name_H-M   'P 1'
_cell_length_a   4.73756611
_cell_length_b   4.94093616
_cell_length_c   4.73756581
_cell_angle_alpha   65.86506895
_cell_angle_beta   64.06643675
_cell_angle_gamma   65.86506899
_symmetry_Int_Tables_number   1
_chemical_formula_structural   Mg2Ni2AsRh
_chemical_formula_sum   'Mg2 Ni2 As1 Rh1'
_cell_volume   87.36257328
_cell_formula_units_Z   1
loop_
 _symmetry_equiv_pos_site_id
 _symmetry_equiv_pos_as_xyz
  1  'x, y, z'
loop_
 _atom_site_type_symbol
 _atom_site_label
 _atom_site_symmetry_multiplicity
 _atom_site_fract_x
 _atom_site_fract_y
 _atom_site_fract_z
 _atom_site_occupancy
  Mg  Mg0  1  0.374581  0.373703  0.374581  1
  Mg  Mg1  1  0.625419  0.626297  0.625419  1
  Ni  Ni2  1  0.499999  0.000000  0.000000  1
  Ni  Ni3  1  0.000000  0.000000  0.500000  1
  As  As4  1  0.000000  0.000000  0.000000  1
  Rh  Rh5  1  0.000000  0.499999  0.000000  1
