# generated using pymatgen
data_Ho2InCuNi
_symmetry_space_group_name_H-M   'P 1'
_cell_length_a   7.39154334
_cell_length_b   7.39154424
_cell_length_c   3.57022100
_cell_angle_alpha   90.00000000
_cell_angle_beta   90.00000000
_cell_angle_gamma   147.65674733
_symmetry_Int_Tables_number   1
_chemical_formula_structural   Ho2InCuNi
_chemical_formula_sum   'Ho2 In1 Cu1 Ni1'
_cell_volume   104.35452978
_cell_formula_units_Z   1
loop_
 _symmetry_equiv_pos_site_id
 _symmetry_equiv_pos_as_xyz
  1  'x, y, z'
loop_
 _atom_site_type_symbol
 _atom_site_label
 _atom_site_symmetry_multiplicity
 _atom_site_fract_x
 _atom_site_fract_y
 _atom_site_fract_z
 _atom_site_occupancy
  Ho  Ho0  1  0.364782  0.635218  0.500000  1
  Ho  Ho1  1  0.638065  0.361935  0.500000  1
  In  In2  1  0.997670  0.002330  0.000000  1
  Cu  Cu3  1  0.201134  0.798866  0.000000  1
  Ni  Ni4  1  0.798349  0.201651  0.000000  1
