# generated using pymatgen
data_DyEr3Al24Ir2Pt7
_symmetry_space_group_name_H-M   'P 1'
_cell_length_a   7.50626762
_cell_length_b   7.50470635
_cell_length_c   13.16413321
_cell_angle_alpha   84.52141709
_cell_angle_beta   100.89805326
_cell_angle_gamma   119.78082811
_symmetry_Int_Tables_number   1
_chemical_formula_structural   DyEr3Al24Ir2Pt7
_chemical_formula_sum   'Dy1 Er3 Al24 Ir2 Pt7'
_cell_volume   632.02011230
_cell_formula_units_Z   1
loop_
 _symmetry_equiv_pos_site_id
 _symmetry_equiv_pos_as_xyz
  1  'x, y, z'
loop_
 _atom_site_type_symbol
 _atom_site_label
 _atom_site_symmetry_multiplicity
 _atom_site_fract_x
 _atom_site_fract_y
 _atom_site_fract_z
 _atom_site_occupancy
  Dy  Dy0  1  0.731958  0.998525  0.190067  1
  Er  Er1  1  0.267174  0.001278  0.809779  1
  Er  Er2  1  0.062186  0.668845  0.190490  1
  Er  Er3  1  0.938509  0.331557  0.809686  1
  Al  Al4  1  0.810368  0.870552  0.817659  1
  Al  Al5  1  0.190529  0.128820  0.182303  1
  Al  Al6  1  0.985534  0.669048  0.946162  1
  Al  Al7  1  0.020273  0.334598  0.053474  1
  Al  Al8  1  0.396276  0.663086  0.818887  1
  Al  Al9  1  0.601771  0.335989  0.182706  1
  Al  Al10  1  0.882741  0.665084  0.673257  1
  Al  Al11  1  0.117647  0.335095  0.326193  1
  Al  Al12  1  0.603214  0.458111  0.816826  1
  Al  Al13  1  0.397028  0.543662  0.181561  1
  Al  Al14  1  0.230791  0.340068  0.671069  1
  Al  Al15  1  0.769383  0.659694  0.329108  1
  Al  Al16  1  0.853431  0.333570  0.559244  1
  Al  Al17  1  0.186525  0.999485  0.559163  1
  Al  Al18  1  0.814088  0.000075  0.440891  1
  Al  Al19  1  0.348445  0.996200  0.053742  1
  Al  Al20  1  0.647913  0.998203  0.946329  1
  Al  Al21  1  0.556810  0.992457  0.673815  1
  Al  Al22  1  0.443162  0.007201  0.326783  1
  Al  Al23  1  0.521643  0.668639  0.561791  1
  Al  Al24  1  0.478332  0.331628  0.438045  1
  Al  Al25  1  0.682474  0.671161  0.042980  1
  Al  Al26  1  0.314125  0.331993  0.956919  1
  Al  Al27  1  0.146806  0.665800  0.440903  1
  Ir  Ir28  1  0.328302  0.671413  0.999872  1
  Ir  Ir29  1  0.999908  0.000307  0.999837  1
  Pt  Pt30  1  0.545922  0.324281  0.637274  1
  Pt  Pt31  1  0.453828  0.674822  0.362425  1
  Pt  Pt32  1  0.888209  0.008523  0.638717  1
  Pt  Pt33  1  0.112292  0.991352  0.361488  1
  Pt  Pt34  1  0.671590  0.328522  0.999904  1
  Pt  Pt35  1  0.204105  0.667044  0.638941  1
  Pt  Pt36  1  0.796707  0.333311  0.361709  1
