# generated using pymatgen
data_Sm3Er(CuP)6
_symmetry_space_group_name_H-M   'P 1'
_cell_length_a   3.90234100
_cell_length_b   10.76389800
_cell_length_c   13.03028500
_cell_angle_alpha   90.00000000
_cell_angle_beta   90.00000000
_cell_angle_gamma   90.00000000
_symmetry_Int_Tables_number   1
_chemical_formula_structural   Sm3Er(CuP)6
_chemical_formula_sum   'Sm6 Er2 Cu12 P12'
_cell_volume   547.32930958
_cell_formula_units_Z   2
loop_
 _symmetry_equiv_pos_site_id
 _symmetry_equiv_pos_as_xyz
  1  'x, y, z'
loop_
 _atom_site_type_symbol
 _atom_site_label
 _atom_site_symmetry_multiplicity
 _atom_site_fract_x
 _atom_site_fract_y
 _atom_site_fract_z
 _atom_site_occupancy
  Sm  Sm0  1  0.250000  0.932189  0.793922  1
  Sm  Sm1  1  0.750000  0.432189  0.706078  1
  Sm  Sm2  1  0.250000  0.567358  0.291788  1
  Sm  Sm3  1  0.750000  0.067358  0.208212  1
  Sm  Sm4  1  0.250000  0.841671  0.503006  1
  Sm  Sm5  1  0.750000  0.341671  0.996994  1
  Er  Er6  1  0.250000  0.659078  0.002644  1
  Er  Er7  1  0.750000  0.159078  0.497356  1
  Cu  Cu8  1  0.250000  0.403258  0.511504  1
  Cu  Cu9  1  0.750000  0.903258  0.988496  1
  Cu  Cu10  1  0.250000  0.095669  0.012177  1
  Cu  Cu11  1  0.750000  0.595669  0.487823  1
  Cu  Cu12  1  0.250000  0.270814  0.332244  1
  Cu  Cu13  1  0.750000  0.770814  0.167756  1
  Cu  Cu14  1  0.250000  0.229321  0.830667  1
  Cu  Cu15  1  0.750000  0.729321  0.669333  1
  Cu  Cu16  1  0.250000  0.858710  0.279735  1
  Cu  Cu17  1  0.750000  0.358710  0.220265  1
  Cu  Cu18  1  0.250000  0.642185  0.781357  1
  Cu  Cu19  1  0.750000  0.142185  0.718643  1
  P  P20  1  0.250000  0.239662  0.641468  1
  P  P21  1  0.750000  0.739662  0.858532  1
  P  P22  1  0.250000  0.258539  0.145299  1
  P  P23  1  0.750000  0.758539  0.354701  1
  P  P24  1  0.250000  0.604177  0.601519  1
  P  P25  1  0.750000  0.104177  0.898481  1
  P  P26  1  0.250000  0.893152  0.100145  1
  P  P27  1  0.750000  0.393152  0.399855  1
  P  P28  1  0.250000  0.058709  0.372038  1
  P  P29  1  0.750000  0.558709  0.127962  1
  P  P30  1  0.250000  0.445509  0.868627  1
  P  P31  1  0.750000  0.945509  0.631373  1
