# generated using pymatgen
data_KZr(TaSe2)8
_symmetry_space_group_name_H-M   'P 1'
_cell_length_a   6.99295404
_cell_length_b   6.99315860
_cell_length_c   15.16881300
_cell_angle_alpha   89.96798129
_cell_angle_beta   90.00582548
_cell_angle_gamma   119.99221497
_symmetry_Int_Tables_number   1
_chemical_formula_structural   KZr(TaSe2)8
_chemical_formula_sum   'K1 Zr1 Ta8 Se16'
_cell_volume   642.46617510
_cell_formula_units_Z   1
loop_
 _symmetry_equiv_pos_site_id
 _symmetry_equiv_pos_as_xyz
  1  'x, y, z'
loop_
 _atom_site_type_symbol
 _atom_site_label
 _atom_site_symmetry_multiplicity
 _atom_site_fract_x
 _atom_site_fract_y
 _atom_site_fract_z
 _atom_site_occupancy
  K  K0  1  0.000000  0.000000  0.500000  1
  Zr  Zr1  1  0.000000  0.000000  0.000000  1
  Ta  Ta2  1  0.999992  0.999849  0.220183  1
  Ta  Ta3  1  0.000008  0.000151  0.779817  1
  Ta  Ta4  1  0.508628  0.017138  0.221084  1
  Ta  Ta5  1  0.982564  0.491064  0.221131  1
  Ta  Ta6  1  0.508431  0.491274  0.221015  1
  Ta  Ta7  1  0.491372  0.982862  0.778916  1
  Ta  Ta8  1  0.017436  0.508936  0.778869  1
  Ta  Ta9  1  0.491569  0.508726  0.778985  1
  Se  Se10  1  0.333367  0.666701  0.893666  1
  Se  Se11  1  0.666633  0.333299  0.106334  1
  Se  Se12  1  0.666373  0.333067  0.336049  1
  Se  Se13  1  0.333627  0.666933  0.663951  1
  Se  Se14  1  0.168187  0.831288  0.328646  1
  Se  Se15  1  0.168276  0.336367  0.328616  1
  Se  Se16  1  0.663235  0.831287  0.328609  1
  Se  Se17  1  0.831813  0.168712  0.671354  1
  Se  Se18  1  0.831724  0.663633  0.671384  1
  Se  Se19  1  0.336765  0.168713  0.671391  1
  Se  Se20  1  0.829083  0.171032  0.888168  1
  Se  Se21  1  0.829208  0.658145  0.888205  1
  Se  Se22  1  0.341755  0.170793  0.888236  1
  Se  Se23  1  0.170917  0.828968  0.111832  1
  Se  Se24  1  0.170792  0.341855  0.111795  1
  Se  Se25  1  0.658245  0.829207  0.111764  1
