# generated using pymatgen
data_RbSb4F13
_symmetry_space_group_name_H-M   'P 1'
_cell_length_a   7.68386599
_cell_length_b   7.68386524
_cell_length_c   7.68386592
_cell_angle_alpha   100.48061346
_cell_angle_beta   100.48061730
_cell_angle_gamma   129.50861576
_symmetry_Int_Tables_number   1
_chemical_formula_structural   RbSb4F13
_chemical_formula_sum   'Rb1 Sb4 F13'
_cell_volume   316.58764106
_cell_formula_units_Z   1
loop_
 _symmetry_equiv_pos_site_id
 _symmetry_equiv_pos_as_xyz
  1  'x, y, z'
loop_
 _atom_site_type_symbol
 _atom_site_label
 _atom_site_symmetry_multiplicity
 _atom_site_fract_x
 _atom_site_fract_y
 _atom_site_fract_z
 _atom_site_occupancy
  Rb  Rb0  1  0.500000  0.500000  0.000000  1
  Sb  Sb1  1  0.020678  0.304923  0.315840  1
  Sb  Sb2  1  0.295161  0.979322  0.284245  1
  Sb  Sb3  1  0.695077  0.010917  0.715755  1
  Sb  Sb4  1  0.989083  0.704839  0.684160  1
  F  F5  1  0.004861  0.868744  0.335777  1
  F  F6  1  0.330916  0.995139  0.863883  1
  F  F7  1  0.131256  0.467033  0.136117  1
  F  F8  1  0.532967  0.669084  0.664223  1
  F  F9  1  0.001731  0.076894  0.770794  1
  F  F10  1  0.250000  0.750000  0.500000  1
  F  F11  1  0.681380  0.964581  0.447830  1
  F  F12  1  0.766449  0.318620  0.283201  1
  F  F13  1  0.035419  0.483249  0.716799  1
  F  F14  1  0.516751  0.233551  0.552170  1
  F  F15  1  0.306099  0.230937  0.229206  1
  F  F16  1  0.923106  0.693901  0.924838  1
  F  F17  1  0.769063  0.998269  0.075162  1
