# generated using pymatgen
data_Pr2B2Pt5RhAu2
_symmetry_space_group_name_H-M   'P 1'
_cell_length_a   5.55368800
_cell_length_b   5.58158085
_cell_length_c   7.70854300
_cell_angle_alpha   90.00000000
_cell_angle_beta   90.00000000
_cell_angle_gamma   119.83482778
_symmetry_Int_Tables_number   1
_chemical_formula_structural   Pr2B2Pt5RhAu2
_chemical_formula_sum   'Pr2 B2 Pt5 Rh1 Au2'
_cell_volume   207.28222343
_cell_formula_units_Z   1
loop_
 _symmetry_equiv_pos_site_id
 _symmetry_equiv_pos_as_xyz
  1  'x, y, z'
loop_
 _atom_site_type_symbol
 _atom_site_label
 _atom_site_symmetry_multiplicity
 _atom_site_fract_x
 _atom_site_fract_y
 _atom_site_fract_z
 _atom_site_occupancy
  Pr  Pr0  1  0.000000  0.000000  0.497387  1
  Pr  Pr1  1  0.000000  0.000000  0.001667  1
  B  B2  1  0.664459  0.328918  0.497891  1
  B  B3  1  0.335541  0.671082  0.497891  1
  Pt  Pt4  1  0.500000  0.500000  0.304728  1
  Pt  Pt5  1  0.500000  0.000000  0.693766  1
  Pt  Pt6  1  0.500000  0.500000  0.694589  1
  Pt  Pt7  1  0.000000  0.500000  0.694589  1
  Pt  Pt8  1  0.000000  0.500000  0.304728  1
  Rh  Rh9  1  0.500000  0.000000  0.309870  1
  Au  Au10  1  0.664985  0.329969  0.001447  1
  Au  Au11  1  0.335015  0.670031  0.001447  1
