# generated using pymatgen
data_Be4Co2BW6
_symmetry_space_group_name_H-M   'P 1'
_cell_length_a   7.58715168
_cell_length_b   7.58715224
_cell_length_c   7.58715200
_cell_angle_alpha   60.00000103
_cell_angle_beta   59.99999859
_cell_angle_gamma   60.00000150
_symmetry_Int_Tables_number   1
_chemical_formula_structural   Be4Co2BW6
_chemical_formula_sum   'Be8 Co4 B2 W12'
_cell_volume   308.83133232
_cell_formula_units_Z   2
loop_
 _symmetry_equiv_pos_site_id
 _symmetry_equiv_pos_as_xyz
  1  'x, y, z'
loop_
 _atom_site_type_symbol
 _atom_site_label
 _atom_site_symmetry_multiplicity
 _atom_site_fract_x
 _atom_site_fract_y
 _atom_site_fract_z
 _atom_site_occupancy
  Be  Be0  1  0.921037  0.236891  0.921037  1
  Be  Be1  1  0.328963  0.013109  0.328963  1
  Be  Be2  1  0.328963  0.328963  0.328963  1
  Be  Be3  1  0.013109  0.328963  0.328963  1
  Be  Be4  1  0.921037  0.921037  0.236891  1
  Be  Be5  1  0.236891  0.921037  0.921037  1
  Be  Be6  1  0.328963  0.328963  0.013109  1
  Be  Be7  1  0.921037  0.921037  0.921037  1
  Co  Co8  1  0.125000  0.125000  0.625000  1
  Co  Co9  1  0.125000  0.625000  0.125000  1
  Co  Co10  1  0.125000  0.125000  0.125000  1
  Co  Co11  1  0.625000  0.125000  0.125000  1
  B  B12  1  0.750000  0.750000  0.750000  1
  B  B13  1  0.500000  0.500000  0.500000  1
  W  W14  1  0.297719  0.702281  0.702281  1
  W  W15  1  0.297719  0.297719  0.702281  1
  W  W16  1  0.547719  0.952281  0.547719  1
  W  W17  1  0.952281  0.547719  0.547719  1
  W  W18  1  0.547719  0.952281  0.952281  1
  W  W19  1  0.702281  0.297719  0.297719  1
  W  W20  1  0.952281  0.547719  0.952281  1
  W  W21  1  0.297719  0.702281  0.297719  1
  W  W22  1  0.547719  0.547719  0.952281  1
  W  W23  1  0.702281  0.297719  0.702281  1
  W  W24  1  0.702281  0.702281  0.297719  1
  W  W25  1  0.952281  0.952281  0.547719  1
