# generated using pymatgen
data_Rb3SiSe3
_symmetry_space_group_name_H-M   'P 1'
_cell_length_a   10.26880331
_cell_length_b   10.26879526
_cell_length_c   9.39110361
_cell_angle_alpha   85.54416201
_cell_angle_beta   85.54412834
_cell_angle_gamma   80.20200681
_symmetry_Int_Tables_number   1
_chemical_formula_structural   Rb3SiSe3
_chemical_formula_sum   'Rb12 Si4 Se12'
_cell_volume   970.78455119
_cell_formula_units_Z   4
loop_
 _symmetry_equiv_pos_site_id
 _symmetry_equiv_pos_as_xyz
  1  'x, y, z'
loop_
 _atom_site_type_symbol
 _atom_site_label
 _atom_site_symmetry_multiplicity
 _atom_site_fract_x
 _atom_site_fract_y
 _atom_site_fract_z
 _atom_site_occupancy
  Rb  Rb0  1  0.202485  0.247649  0.303958  1
  Rb  Rb1  1  0.752351  0.797516  0.196041  1
  Rb  Rb2  1  0.797515  0.752351  0.696042  1
  Rb  Rb3  1  0.247649  0.202484  0.803959  1
  Rb  Rb4  1  0.200066  0.608679  0.627420  1
  Rb  Rb5  1  0.391321  0.799936  0.872579  1
  Rb  Rb6  1  0.799934  0.391321  0.372580  1
  Rb  Rb7  1  0.608679  0.200064  0.127421  1
  Rb  Rb8  1  0.591376  0.408624  0.750001  1
  Rb  Rb9  1  0.408624  0.591376  0.249999  1
  Rb  Rb10  1  0.080656  0.919345  0.249999  1
  Rb  Rb11  1  0.919344  0.080655  0.750001  1
  Si  Si12  1  0.565818  0.077702  0.537898  1
  Si  Si13  1  0.922298  0.434183  0.962102  1
  Si  Si14  1  0.434182  0.922298  0.462102  1
  Si  Si15  1  0.077702  0.565817  0.037898  1
  Se  Se16  1  0.579259  0.053861  0.784694  1
  Se  Se17  1  0.946140  0.420741  0.715306  1
  Se  Se18  1  0.420741  0.946139  0.215306  1
  Se  Se19  1  0.053860  0.579259  0.284694  1
  Se  Se20  1  0.467337  0.292874  0.472399  1
  Se  Se21  1  0.707126  0.532663  0.027601  1
  Se  Se22  1  0.532663  0.707126  0.527601  1
  Se  Se23  1  0.292874  0.467337  0.972399  1
  Se  Se24  1  0.776458  0.039504  0.429861  1
  Se  Se25  1  0.960496  0.223542  0.070139  1
  Se  Se26  1  0.223542  0.960496  0.570139  1
  Se  Se27  1  0.039504  0.776458  0.929861  1
