# generated using pymatgen
data_MnInBO4
_symmetry_space_group_name_H-M   'P 1'
_cell_length_a   3.40508900
_cell_length_b   9.90685907
_cell_length_c   9.71261312
_cell_angle_alpha   90.01562318
_cell_angle_beta   90.00000000
_cell_angle_gamma   90.00000000
_symmetry_Int_Tables_number   1
_chemical_formula_structural   MnInBO4
_chemical_formula_sum   'Mn4 In4 B4 O16'
_cell_volume   327.64272301
_cell_formula_units_Z   4
loop_
 _symmetry_equiv_pos_site_id
 _symmetry_equiv_pos_as_xyz
  1  'x, y, z'
loop_
 _atom_site_type_symbol
 _atom_site_label
 _atom_site_symmetry_multiplicity
 _atom_site_fract_x
 _atom_site_fract_y
 _atom_site_fract_z
 _atom_site_occupancy
  Mn  Mn0  1  0.000000  0.909677  0.181391  1
  Mn  Mn1  1  0.500000  0.591057  0.681230  1
  Mn  Mn2  1  0.000000  0.409290  0.318559  1
  Mn  Mn3  1  0.500000  0.090899  0.818898  1
  In  In4  1  0.000000  0.879061  0.573201  1
  In  In5  1  0.500000  0.620898  0.073105  1
  In  In6  1  0.000000  0.379002  0.926802  1
  In  In7  1  0.500000  0.120831  0.426761  1
  B  B8  1  0.000000  0.827798  0.872516  1
  B  B9  1  0.500000  0.672198  0.372325  1
  B  B10  1  0.000000  0.327821  0.627536  1
  B  B11  1  0.500000  0.172127  0.127626  1
  O  O12  1  0.000000  0.992881  0.381947  1
  O  O13  1  0.000000  0.965188  0.865353  1
  O  O14  1  0.000000  0.764349  0.003205  1
  O  O15  1  0.000000  0.748070  0.752742  1
  O  O16  1  0.500000  0.751845  0.252744  1
  O  O17  1  0.500000  0.735605  0.503211  1
  O  O18  1  0.500000  0.534776  0.365228  1
  O  O19  1  0.500000  0.506927  0.881983  1
  O  O20  1  0.000000  0.492924  0.117907  1
  O  O21  1  0.000000  0.465164  0.634821  1
  O  O22  1  0.000000  0.264376  0.496733  1
  O  O23  1  0.000000  0.248036  0.747242  1
  O  O24  1  0.500000  0.251899  0.247236  1
  O  O25  1  0.500000  0.235517  0.996799  1
  O  O26  1  0.500000  0.034766  0.134862  1
  O  O27  1  0.500000  0.007017  0.618039  1
