# generated using pymatgen
data_Ba3Fe3Si2SbO14
_symmetry_space_group_name_H-M   'P 1'
_cell_length_a   8.66992600
_cell_length_b   8.66992672
_cell_length_c   5.32231800
_cell_angle_alpha   90.00000000
_cell_angle_beta   90.00000000
_cell_angle_gamma   119.99999724
_symmetry_Int_Tables_number   1
_chemical_formula_structural   Ba3Fe3Si2SbO14
_chemical_formula_sum   'Ba3 Fe3 Si2 Sb1 O14'
_cell_volume   346.46732322
_cell_formula_units_Z   1
loop_
 _symmetry_equiv_pos_site_id
 _symmetry_equiv_pos_as_xyz
  1  'x, y, z'
loop_
 _atom_site_type_symbol
 _atom_site_label
 _atom_site_symmetry_multiplicity
 _atom_site_fract_x
 _atom_site_fract_y
 _atom_site_fract_z
 _atom_site_occupancy
  Ba  Ba0  1  0.433387  0.000000  0.000000  1
  Ba  Ba1  1  0.566613  0.566613  0.000000  1
  Ba  Ba2  1  0.000000  0.433387  0.000000  1
  Fe  Fe3  1  0.749320  0.000000  0.500000  1
  Fe  Fe4  1  0.250680  0.250680  0.500000  1
  Fe  Fe5  1  0.000000  0.749320  0.500000  1
  Si  Si6  1  0.666667  0.333333  0.478362  1
  Si  Si7  1  0.333333  0.666667  0.521638  1
  Sb  Sb8  1  0.000000  0.000000  0.000000  1
  O  O9  1  0.666667  0.333333  0.781594  1
  O  O10  1  0.333333  0.666667  0.218406  1
  O  O11  1  0.177480  0.702572  0.644802  1
  O  O12  1  0.525092  0.822520  0.644802  1
  O  O13  1  0.297428  0.474908  0.644802  1
  O  O14  1  0.822520  0.525092  0.355198  1
  O  O15  1  0.702572  0.177480  0.355198  1
  O  O16  1  0.474908  0.297428  0.355198  1
  O  O17  1  0.116047  0.899913  0.223072  1
  O  O18  1  0.783866  0.883953  0.223072  1
  O  O19  1  0.100087  0.216134  0.223072  1
  O  O20  1  0.883953  0.783866  0.776928  1
  O  O21  1  0.899913  0.116047  0.776928  1
  O  O22  1  0.216134  0.100087  0.776928  1
