# generated using pymatgen
data_Ni10GeP7
_symmetry_space_group_name_H-M   'P 1'
_cell_length_a   6.81715300
_cell_length_b   6.81715353
_cell_length_c   11.05032400
_cell_angle_alpha   90.00000000
_cell_angle_beta   90.00000000
_cell_angle_gamma   120.00000229
_symmetry_Int_Tables_number   1
_chemical_formula_structural   Ni10GeP7
_chemical_formula_sum   'Ni20 Ge2 P14'
_cell_volume   444.74569144
_cell_formula_units_Z   2
loop_
 _symmetry_equiv_pos_site_id
 _symmetry_equiv_pos_as_xyz
  1  'x, y, z'
loop_
 _atom_site_type_symbol
 _atom_site_label
 _atom_site_symmetry_multiplicity
 _atom_site_fract_x
 _atom_site_fract_y
 _atom_site_fract_z
 _atom_site_occupancy
  Ni  Ni0  1  0.923637  0.461818  0.376112  1
  Ni  Ni1  1  0.461818  0.538182  0.876112  1
  Ni  Ni2  1  0.000000  0.000000  0.199730  1
  Ni  Ni3  1  0.000000  0.000000  0.699730  1
  Ni  Ni4  1  0.538182  0.076363  0.376112  1
  Ni  Ni5  1  0.461818  0.923637  0.876112  1
  Ni  Ni6  1  0.076363  0.538182  0.876112  1
  Ni  Ni7  1  0.538182  0.461818  0.376112  1
  Ni  Ni8  1  0.794122  0.205878  0.739915  1
  Ni  Ni9  1  0.588244  0.794122  0.239915  1
  Ni  Ni10  1  0.205878  0.411756  0.239915  1
  Ni  Ni11  1  0.794122  0.588244  0.739915  1
  Ni  Ni12  1  0.411756  0.205878  0.739915  1
  Ni  Ni13  1  0.205878  0.794122  0.239915  1
  Ni  Ni14  1  0.458662  0.541338  0.589773  1
  Ni  Ni15  1  0.917324  0.458662  0.089773  1
  Ni  Ni16  1  0.541338  0.082676  0.089773  1
  Ni  Ni17  1  0.458662  0.917324  0.589773  1
  Ni  Ni18  1  0.082676  0.541338  0.589773  1
  Ni  Ni19  1  0.541338  0.458662  0.089773  1
  Ge  Ge20  1  0.666667  0.333333  0.554941  1
  Ge  Ge21  1  0.333333  0.666667  0.054941  1
  P  P22  1  0.000000  0.000000  0.501697  1
  P  P23  1  0.000000  0.000000  0.001697  1
  P  P24  1  0.820879  0.179121  0.943711  1
  P  P25  1  0.641757  0.820879  0.443711  1
  P  P26  1  0.179121  0.358243  0.443711  1
  P  P27  1  0.820879  0.641757  0.943711  1
  P  P28  1  0.358243  0.179121  0.943711  1
  P  P29  1  0.179121  0.820879  0.443711  1
  P  P30  1  0.181831  0.818169  0.731589  1
  P  P31  1  0.363663  0.181831  0.231589  1
  P  P32  1  0.818169  0.636337  0.231589  1
  P  P33  1  0.181831  0.363663  0.731589  1
  P  P34  1  0.636337  0.818169  0.731589  1
  P  P35  1  0.818169  0.181831  0.231589  1
