# generated using pymatgen
data_Pa(FeB)4
_symmetry_space_group_name_H-M   'P 1'
_cell_length_a   6.94784100
_cell_length_b   6.94784100
_cell_length_c   3.83723600
_cell_angle_alpha   90.00000000
_cell_angle_beta   90.00000000
_cell_angle_gamma   90.00000000
_symmetry_Int_Tables_number   1
_chemical_formula_structural   Pa(FeB)4
_chemical_formula_sum   'Pa2 Fe8 B8'
_cell_volume   185.23295394
_cell_formula_units_Z   2
loop_
 _symmetry_equiv_pos_site_id
 _symmetry_equiv_pos_as_xyz
  1  'x, y, z'
loop_
 _atom_site_type_symbol
 _atom_site_label
 _atom_site_symmetry_multiplicity
 _atom_site_fract_x
 _atom_site_fract_y
 _atom_site_fract_z
 _atom_site_occupancy
  Pa  Pa0  1  0.000000  0.000000  0.000000  1
  Pa  Pa1  1  0.500000  0.500000  0.500000  1
  Fe  Fe2  1  0.866553  0.382669  0.103414  1
  Fe  Fe3  1  0.133447  0.617331  0.103414  1
  Fe  Fe4  1  0.882669  0.633447  0.603414  1
  Fe  Fe5  1  0.117331  0.366553  0.603414  1
  Fe  Fe6  1  0.633447  0.117331  0.396586  1
  Fe  Fe7  1  0.366553  0.882669  0.396586  1
  Fe  Fe8  1  0.617331  0.866553  0.896586  1
  Fe  Fe9  1  0.382669  0.133447  0.896586  1
  B  B10  1  0.336578  0.796103  0.895877  1
  B  B11  1  0.663422  0.203897  0.895877  1
  B  B12  1  0.296103  0.163422  0.395877  1
  B  B13  1  0.703897  0.836578  0.395877  1
  B  B14  1  0.163422  0.703897  0.604123  1
  B  B15  1  0.836578  0.296103  0.604123  1
  B  B16  1  0.203897  0.336578  0.104123  1
  B  B17  1  0.796103  0.663422  0.104123  1
