# generated using pymatgen
data_Hf2BiF11
_symmetry_space_group_name_H-M   'P 1'
_cell_length_a   8.39753774
_cell_length_b   8.39753721
_cell_length_c   8.39753775
_cell_angle_alpha   124.82938788
_cell_angle_beta   106.59039987
_cell_angle_gamma   98.24102496
_symmetry_Int_Tables_number   1
_chemical_formula_structural   Hf2BiF11
_chemical_formula_sum   'Hf4 Bi2 F22'
_cell_volume   429.07069619
_cell_formula_units_Z   2
loop_
 _symmetry_equiv_pos_site_id
 _symmetry_equiv_pos_as_xyz
  1  'x, y, z'
loop_
 _atom_site_type_symbol
 _atom_site_label
 _atom_site_symmetry_multiplicity
 _atom_site_fract_x
 _atom_site_fract_y
 _atom_site_fract_z
 _atom_site_occupancy
  Hf  Hf0  1  0.681034  0.634702  0.315736  1
  Hf  Hf1  1  0.318966  0.365298  0.684264  1
  Hf  Hf2  1  0.181034  0.865298  0.046331  1
  Hf  Hf3  1  0.818966  0.134702  0.953669  1
  Bi  Bi4  1  0.750000  0.250000  0.500000  1
  Bi  Bi5  1  0.250000  0.750000  0.500000  1
  F  F6  1  0.706321  0.893669  0.339534  1
  F  F7  1  0.293679  0.106331  0.660466  1
  F  F8  1  0.554135  0.366787  0.660466  1
  F  F9  1  0.945865  0.606331  0.812651  1
  F  F10  1  0.445865  0.633213  0.339534  1
  F  F11  1  0.054135  0.393669  0.187349  1
  F  F12  1  0.793679  0.133213  0.187349  1
  F  F13  1  0.206321  0.866787  0.812651  1
  F  F14  1  0.500000  0.500000  0.000000  1
  F  F15  1  0.000000  0.000000  0.000000  1
  F  F16  1  0.780940  0.870284  0.651224  1
  F  F17  1  0.219060  0.129716  0.348776  1
  F  F18  1  0.280940  0.629716  0.910656  1
  F  F19  1  0.719060  0.370284  0.089344  1
  F  F20  1  0.952214  0.739436  0.417747  1
  F  F21  1  0.047786  0.260564  0.582253  1
  F  F22  1  0.321688  0.534467  0.582253  1
  F  F23  1  0.178312  0.760564  0.212778  1
  F  F24  1  0.678312  0.465533  0.417747  1
  F  F25  1  0.821688  0.239436  0.787222  1
  F  F26  1  0.547786  0.965533  0.787222  1
  F  F27  1  0.452214  0.034467  0.212778  1
