# generated using pymatgen
data_Dy3Mg3AgSnPb
_symmetry_space_group_name_H-M   'P 1'
_cell_length_a   7.53643300
_cell_length_b   7.53643151
_cell_length_c   4.56440300
_cell_angle_alpha   90.00000000
_cell_angle_beta   90.00000000
_cell_angle_gamma   120.00000215
_symmetry_Int_Tables_number   1
_chemical_formula_structural   Dy3Mg3AgSnPb
_chemical_formula_sum   'Dy3 Mg3 Ag1 Sn1 Pb1'
_cell_volume   224.51543521
_cell_formula_units_Z   1
loop_
 _symmetry_equiv_pos_site_id
 _symmetry_equiv_pos_as_xyz
  1  'x, y, z'
loop_
 _atom_site_type_symbol
 _atom_site_label
 _atom_site_symmetry_multiplicity
 _atom_site_fract_x
 _atom_site_fract_y
 _atom_site_fract_z
 _atom_site_occupancy
  Dy  Dy0  1  0.412883  0.415899  0.500000  1
  Dy  Dy1  1  0.584101  0.996983  0.500000  1
  Dy  Dy2  1  0.003017  0.587117  0.500000  1
  Mg  Mg3  1  0.763508  0.765503  0.000000  1
  Mg  Mg4  1  0.234497  0.998005  0.000000  1
  Mg  Mg5  1  0.001995  0.236492  0.000000  1
  Ag  Ag6  1  0.000000  0.000000  0.500000  1
  Sn  Sn7  1  0.333333  0.666667  0.000000  1
  Pb  Pb8  1  0.666667  0.333333  0.000000  1
