# generated using pymatgen
data_Tb2Ho6In2IrPd
_symmetry_space_group_name_H-M   'P 1'
_cell_length_a   9.65037876
_cell_length_b   9.68518811
_cell_length_c   9.69058151
_cell_angle_alpha   60.21463827
_cell_angle_beta   60.10378578
_cell_angle_gamma   60.07077984
_symmetry_Int_Tables_number   1
_chemical_formula_structural   Tb2Ho6In2IrPd
_chemical_formula_sum   'Tb4 Ho12 In4 Ir2 Pd2'
_cell_volume   642.33306622
_cell_formula_units_Z   2
loop_
 _symmetry_equiv_pos_site_id
 _symmetry_equiv_pos_as_xyz
  1  'x, y, z'
loop_
 _atom_site_type_symbol
 _atom_site_label
 _atom_site_symmetry_multiplicity
 _atom_site_fract_x
 _atom_site_fract_y
 _atom_site_fract_z
 _atom_site_occupancy
  Tb  Tb0  1  0.442068  0.433348  0.062043  1
  Tb  Tb1  1  0.649006  0.642857  0.058133  1
  Tb  Tb2  1  0.185247  0.808953  0.194744  1
  Tb  Tb3  1  0.062279  0.434039  0.060499  1
  Ho  Ho4  1  0.190992  0.809806  0.808159  1
  Ho  Ho5  1  0.064671  0.435207  0.436945  1
  Ho  Ho6  1  0.810297  0.188919  0.189650  1
  Ho  Ho7  1  0.656222  0.649557  0.649348  1
  Ho  Ho8  1  0.811853  0.194737  0.808325  1
  Ho  Ho9  1  0.185957  0.194887  0.807622  1
  Ho  Ho10  1  0.047935  0.647760  0.648007  1
  Ho  Ho11  1  0.438467  0.061645  0.061708  1
  Ho  Ho12  1  0.061689  0.059908  0.435504  1
  Ho  Ho13  1  0.648975  0.057993  0.642856  1
  Ho  Ho14  1  0.811014  0.809257  0.194774  1
  Ho  Ho15  1  0.442146  0.061316  0.434440  1
  In  In16  1  0.414967  0.416626  0.417901  1
  In  In17  1  0.416895  0.418221  0.748131  1
  In  In18  1  0.416297  0.749242  0.418543  1
  In  In19  1  0.749332  0.417104  0.418178  1
  Ir  Ir20  1  0.856568  0.426702  0.861209  1
  Ir  Ir21  1  0.854456  0.862457  0.428365  1
  Pd  Pd22  1  0.428826  0.860309  0.857248  1
  Pd  Pd23  1  0.853839  0.859154  0.857670  1
