# generated using pymatgen
data_Er16Cd4PdRu3
_symmetry_space_group_name_H-M   'P 1'
_cell_length_a   9.49925037
_cell_length_b   9.62445188
_cell_length_c   9.62445300
_cell_angle_alpha   59.99999960
_cell_angle_beta   59.56303763
_cell_angle_gamma   59.56303648
_symmetry_Int_Tables_number   1
_chemical_formula_structural   Er16Cd4PdRu3
_chemical_formula_sum   'Er16 Cd4 Pd1 Ru3'
_cell_volume   618.05370734
_cell_formula_units_Z   1
loop_
 _symmetry_equiv_pos_site_id
 _symmetry_equiv_pos_as_xyz
  1  'x, y, z'
loop_
 _atom_site_type_symbol
 _atom_site_label
 _atom_site_symmetry_multiplicity
 _atom_site_fract_x
 _atom_site_fract_y
 _atom_site_fract_z
 _atom_site_occupancy
  Er  Er0  1  0.346130  0.351884  0.351884  1
  Er  Er1  1  0.346130  0.351884  0.950102  1
  Er  Er2  1  0.346130  0.950102  0.351884  1
  Er  Er3  1  0.967773  0.344075  0.344075  1
  Er  Er4  1  0.816094  0.189172  0.189172  1
  Er  Er5  1  0.184931  0.812159  0.812159  1
  Er  Er6  1  0.184931  0.812159  0.190751  1
  Er  Er7  1  0.816094  0.189172  0.805563  1
  Er  Er8  1  0.184931  0.190751  0.812159  1
  Er  Er9  1  0.816094  0.805563  0.189172  1
  Er  Er10  1  0.934527  0.563430  0.563430  1
  Er  Er11  1  0.557122  0.938270  0.938270  1
  Er  Er12  1  0.557122  0.938270  0.566338  1
  Er  Er13  1  0.934527  0.563430  0.938613  1
  Er  Er14  1  0.557122  0.566338  0.938270  1
  Er  Er15  1  0.934527  0.938613  0.563430  1
  Cd  Cd16  1  0.580859  0.579379  0.579379  1
  Cd  Cd17  1  0.580859  0.579379  0.260381  1
  Cd  Cd18  1  0.580859  0.260381  0.579379  1
  Cd  Cd19  1  0.254908  0.581697  0.581697  1
  Pd  Pd20  1  0.572385  0.142538  0.142538  1
  Ru  Ru21  1  0.148647  0.138173  0.138173  1
  Ru  Ru22  1  0.148647  0.138173  0.575007  1
  Ru  Ru23  1  0.148647  0.575007  0.138173  1
