# generated using pymatgen
data_YHoB6Ir7Rh2
_symmetry_space_group_name_H-M   'P 1'
_cell_length_a   5.63171106
_cell_length_b   5.63171128
_cell_length_c   8.64711300
_cell_angle_alpha   90.00000000
_cell_angle_beta   90.00000000
_cell_angle_gamma   119.83365642
_symmetry_Int_Tables_number   1
_chemical_formula_structural   YHoB6Ir7Rh2
_chemical_formula_sum   'Y1 Ho1 B6 Ir7 Rh2'
_cell_volume   237.90744557
_cell_formula_units_Z   1
loop_
 _symmetry_equiv_pos_site_id
 _symmetry_equiv_pos_as_xyz
  1  'x, y, z'
loop_
 _atom_site_type_symbol
 _atom_site_label
 _atom_site_symmetry_multiplicity
 _atom_site_fract_x
 _atom_site_fract_y
 _atom_site_fract_z
 _atom_site_occupancy
  Y  Y0  1  0.000000  0.000000  0.298923  1
  Ho  Ho1  1  0.000000  0.000000  0.701297  1
  B  B2  1  0.667437  0.332563  0.999980  1
  B  B3  1  0.332563  0.667437  0.999980  1
  B  B4  1  0.666789  0.333211  0.667895  1
  B  B5  1  0.333211  0.666789  0.667895  1
  B  B6  1  0.333214  0.666786  0.332153  1
  B  B7  1  0.666786  0.333214  0.332153  1
  Ir  Ir8  1  0.500000  0.000000  0.836058  1
  Ir  Ir9  1  0.000000  0.500000  0.836058  1
  Ir  Ir10  1  0.500000  0.000000  0.163708  1
  Ir  Ir11  1  0.000000  0.500000  0.163708  1
  Ir  Ir12  1  0.500000  0.500000  0.500139  1
  Ir  Ir13  1  0.500000  0.000000  0.500133  1
  Ir  Ir14  1  0.000000  0.500000  0.500133  1
  Rh  Rh15  1  0.500000  0.500000  0.836270  1
  Rh  Rh16  1  0.500000  0.500000  0.163516  1
