# generated using pymatgen
data_Y8Ta12Si15Ge
_symmetry_space_group_name_H-M   'P 1'
_cell_length_a   6.87771323
_cell_length_b   7.05958213
_cell_length_c   13.39470259
_cell_angle_alpha   89.97470107
_cell_angle_beta   90.21936358
_cell_angle_gamma   90.15019893
_symmetry_Int_Tables_number   1
_chemical_formula_structural   Y8Ta12Si15Ge
_chemical_formula_sum   'Y8 Ta12 Si15 Ge1'
_cell_volume   650.35639996
_cell_formula_units_Z   1
loop_
 _symmetry_equiv_pos_site_id
 _symmetry_equiv_pos_as_xyz
  1  'x, y, z'
loop_
 _atom_site_type_symbol
 _atom_site_label
 _atom_site_symmetry_multiplicity
 _atom_site_fract_x
 _atom_site_fract_y
 _atom_site_fract_z
 _atom_site_occupancy
  Y  Y0  1  0.500850  0.670520  0.596078  1
  Y  Y1  1  0.002329  0.829304  0.904368  1
  Y  Y2  1  0.497362  0.329277  0.095123  1
  Y  Y3  1  0.001179  0.172932  0.403437  1
  Y  Y4  1  0.497930  0.329793  0.404174  1
  Y  Y5  1  0.997710  0.170583  0.095293  1
  Y  Y6  1  0.502595  0.670956  0.904733  1
  Y  Y7  1  0.002530  0.827734  0.596686  1
  Ta  Ta8  1  0.660172  0.177346  0.627096  1
  Ta  Ta9  1  0.161742  0.324647  0.874784  1
  Ta  Ta10  1  0.337811  0.824789  0.125373  1
  Ta  Ta11  1  0.841102  0.671014  0.373236  1
  Ta  Ta12  1  0.335779  0.824711  0.374085  1
  Ta  Ta13  1  0.837465  0.674924  0.125120  1
  Ta  Ta14  1  0.662209  0.175153  0.874644  1
  Ta  Ta15  1  0.161323  0.325430  0.625876  1
  Ta  Ta16  1  0.836615  0.490040  0.750212  1
  Ta  Ta17  1  0.336672  0.010522  0.750151  1
  Ta  Ta18  1  0.163173  0.510170  0.249853  1
  Ta  Ta19  1  0.663254  0.989068  0.247980  1
  Si  Si20  1  0.163376  0.536603  0.040958  1
  Si  Si21  1  0.336601  0.036459  0.958851  1
  Si  Si22  1  0.834913  0.462628  0.540571  1
  Si  Si23  1  0.331646  0.037777  0.541610  1
  Si  Si24  1  0.836384  0.463621  0.958973  1
  Si  Si25  1  0.663451  0.963554  0.040806  1
  Si  Si26  1  0.165116  0.537323  0.459771  1
  Si  Si27  1  0.456845  0.377771  0.750921  1
  Si  Si28  1  0.957623  0.123312  0.750153  1
  Si  Si29  1  0.541959  0.623229  0.250113  1
  Si  Si30  1  0.042063  0.876937  0.249513  1
  Si  Si31  1  0.702894  0.873170  0.750380  1
  Si  Si32  1  0.203609  0.626946  0.750637  1
  Si  Si33  1  0.297569  0.126728  0.249719  1
  Si  Si34  1  0.795925  0.371953  0.249178  1
  Ge  Ge35  1  0.670224  0.963073  0.459544  1
