# generated using pymatgen
data_Pr2MnFe(Tc5C)3
_symmetry_space_group_name_H-M   'P 1'
_cell_length_a   6.97678006
_cell_length_b   6.97191561
_cell_length_c   6.96842442
_cell_angle_alpha   82.68651385
_cell_angle_beta   82.67055966
_cell_angle_gamma   82.92872471
_symmetry_Int_Tables_number   1
_chemical_formula_structural   Pr2MnFe(Tc5C)3
_chemical_formula_sum   'Pr2 Mn1 Fe1 Tc15 C3'
_cell_volume   331.47693837
_cell_formula_units_Z   1
loop_
 _symmetry_equiv_pos_site_id
 _symmetry_equiv_pos_as_xyz
  1  'x, y, z'
loop_
 _atom_site_type_symbol
 _atom_site_label
 _atom_site_symmetry_multiplicity
 _atom_site_fract_x
 _atom_site_fract_y
 _atom_site_fract_z
 _atom_site_occupancy
  Pr  Pr0  1  0.649705  0.649597  0.649089  1
  Pr  Pr1  1  0.350295  0.350403  0.350911  1
  Mn  Mn2  1  0.500000  0.000000  0.000000  1
  Fe  Fe3  1  0.000000  0.500000  0.000000  1
  Tc  Tc4  1  0.000000  0.000000  0.500000  1
  Tc  Tc5  1  0.723456  0.277496  0.999920  1
  Tc  Tc6  1  0.000921  0.720526  0.273591  1
  Tc  Tc7  1  0.279186  0.999265  0.725767  1
  Tc  Tc8  1  0.999079  0.279474  0.726409  1
  Tc  Tc9  1  0.720814  0.000735  0.274233  1
  Tc  Tc10  1  0.276544  0.722504  0.000080  1
  Tc  Tc11  1  0.344551  0.345173  0.866411  1
  Tc  Tc12  1  0.864571  0.349791  0.344268  1
  Tc  Tc13  1  0.349223  0.864495  0.344276  1
  Tc  Tc14  1  0.655449  0.654827  0.133589  1
  Tc  Tc15  1  0.135429  0.650209  0.655732  1
  Tc  Tc16  1  0.650777  0.135505  0.655724  1
  Tc  Tc17  1  0.901942  0.901566  0.902492  1
  Tc  Tc18  1  0.098058  0.098434  0.097508  1
  C  C19  1  0.500000  0.500000  0.000000  1
  C  C20  1  0.000000  0.500000  0.500000  1
  C  C21  1  0.500000  0.000000  0.500000  1
