# generated using pymatgen
data_LiVCo4SiGe
_symmetry_space_group_name_H-M   'P 1'
_cell_length_a   6.88412201
_cell_length_b   6.88412222
_cell_length_c   6.88412021
_cell_angle_alpha   33.72002767
_cell_angle_beta   33.72002676
_cell_angle_gamma   33.72002927
_symmetry_Int_Tables_number   1
_chemical_formula_structural   LiVCo4SiGe
_chemical_formula_sum   'Li1 V1 Co4 Si1 Ge1'
_cell_volume   89.57823839
_cell_formula_units_Z   1
loop_
 _symmetry_equiv_pos_site_id
 _symmetry_equiv_pos_as_xyz
  1  'x, y, z'
loop_
 _atom_site_type_symbol
 _atom_site_label
 _atom_site_symmetry_multiplicity
 _atom_site_fract_x
 _atom_site_fract_y
 _atom_site_fract_z
 _atom_site_occupancy
  Li  Li0  1  0.000508  0.000508  0.000508  1
  V  V1  1  0.499132  0.499132  0.499132  1
  Co  Co2  1  0.625039  0.625039  0.625039  1
  Co  Co3  1  0.126169  0.126169  0.126169  1
  Co  Co4  1  0.869380  0.869380  0.869380  1
  Co  Co5  1  0.379333  0.379333  0.379333  1
  Si  Si6  1  0.746659  0.746659  0.746659  1
  Ge  Ge7  1  0.253781  0.253781  0.253781  1
