# generated using pymatgen
data_Dy5Cr3Ge3P9Ir16
_symmetry_space_group_name_H-M   'P 1'
_cell_length_a   12.85134400
_cell_length_b   12.85134454
_cell_length_c   3.93672900
_cell_angle_alpha   90.00000000
_cell_angle_beta   90.00000000
_cell_angle_gamma   119.99999861
_symmetry_Int_Tables_number   1
_chemical_formula_structural   Dy5Cr3Ge3P9Ir16
_chemical_formula_sum   'Dy5 Cr3 Ge3 P9 Ir16'
_cell_volume   563.07114614
_cell_formula_units_Z   1
loop_
 _symmetry_equiv_pos_site_id
 _symmetry_equiv_pos_as_xyz
  1  'x, y, z'
loop_
 _atom_site_type_symbol
 _atom_site_label
 _atom_site_symmetry_multiplicity
 _atom_site_fract_x
 _atom_site_fract_y
 _atom_site_fract_z
 _atom_site_occupancy
  Dy  Dy0  1  0.333333  0.666667  0.500000  1
  Dy  Dy1  1  0.666667  0.333333  0.500000  1
  Dy  Dy2  1  0.000000  0.813545  0.000000  1
  Dy  Dy3  1  0.186455  0.186455  0.000000  1
  Dy  Dy4  1  0.813545  0.000000  0.000000  1
  Cr  Cr5  1  0.000000  0.443671  0.500000  1
  Cr  Cr6  1  0.556329  0.556329  0.500000  1
  Cr  Cr7  1  0.443671  0.000000  0.500000  1
  Ge  Ge8  1  0.000000  0.638435  0.500000  1
  Ge  Ge9  1  0.361565  0.361565  0.500000  1
  Ge  Ge10  1  0.638435  0.000000  0.500000  1
  P  P11  1  0.517177  0.688115  0.000000  1
  P  P12  1  0.311885  0.829061  0.000000  1
  P  P13  1  0.170939  0.482823  0.000000  1
  P  P14  1  0.482823  0.170939  0.000000  1
  P  P15  1  0.688115  0.517177  0.000000  1
  P  P16  1  0.829061  0.311885  0.000000  1
  P  P17  1  0.000000  0.178009  0.500000  1
  P  P18  1  0.821991  0.821991  0.500000  1
  P  P19  1  0.178009  0.000000  0.500000  1
  Ir  Ir20  1  0.505109  0.867620  0.000000  1
  Ir  Ir21  1  0.132380  0.637491  0.000000  1
  Ir  Ir22  1  0.362509  0.494891  0.000000  1
  Ir  Ir23  1  0.494891  0.362509  0.000000  1
  Ir  Ir24  1  0.867620  0.505109  0.000000  1
  Ir  Ir25  1  0.637491  0.132380  0.000000  1
  Ir  Ir26  1  0.000000  0.282943  0.000000  1
  Ir  Ir27  1  0.717057  0.717057  0.000000  1
  Ir  Ir28  1  0.282943  0.000000  0.000000  1
  Ir  Ir29  1  0.621801  0.796428  0.500000  1
  Ir  Ir30  1  0.203572  0.825373  0.500000  1
  Ir  Ir31  1  0.174627  0.378199  0.500000  1
  Ir  Ir32  1  0.378199  0.174627  0.500000  1
  Ir  Ir33  1  0.796428  0.621801  0.500000  1
  Ir  Ir34  1  0.825373  0.203572  0.500000  1
  Ir  Ir35  1  0.000000  0.000000  0.500000  1
