# generated using pymatgen
data_Hf5NiP3
_symmetry_space_group_name_H-M   'P 1'
_cell_length_a   3.58827000
_cell_length_b   10.17763700
_cell_length_c   17.05377500
_cell_angle_alpha   90.00000000
_cell_angle_beta   90.00000000
_cell_angle_gamma   90.00000000
_symmetry_Int_Tables_number   1
_chemical_formula_structural   Hf5NiP3
_chemical_formula_sum   'Hf20 Ni4 P12'
_cell_volume   622.80573070
_cell_formula_units_Z   4
loop_
 _symmetry_equiv_pos_site_id
 _symmetry_equiv_pos_as_xyz
  1  'x, y, z'
loop_
 _atom_site_type_symbol
 _atom_site_label
 _atom_site_symmetry_multiplicity
 _atom_site_fract_x
 _atom_site_fract_y
 _atom_site_fract_z
 _atom_site_occupancy
  Hf  Hf0  1  0.250000  0.120254  0.476819  1
  Hf  Hf1  1  0.750000  0.879746  0.523181  1
  Hf  Hf2  1  0.750000  0.620254  0.023181  1
  Hf  Hf3  1  0.250000  0.379746  0.976819  1
  Hf  Hf4  1  0.250000  0.063907  0.077080  1
  Hf  Hf5  1  0.750000  0.936093  0.922920  1
  Hf  Hf6  1  0.750000  0.563907  0.422920  1
  Hf  Hf7  1  0.250000  0.436093  0.577080  1
  Hf  Hf8  1  0.250000  0.489176  0.271668  1
  Hf  Hf9  1  0.750000  0.510824  0.728332  1
  Hf  Hf10  1  0.750000  0.989176  0.228332  1
  Hf  Hf11  1  0.250000  0.010824  0.771668  1
  Hf  Hf12  1  0.250000  0.814824  0.368628  1
  Hf  Hf13  1  0.750000  0.185176  0.631372  1
  Hf  Hf14  1  0.750000  0.314824  0.131372  1
  Hf  Hf15  1  0.250000  0.685176  0.868628  1
  Hf  Hf16  1  0.250000  0.751908  0.169899  1
  Hf  Hf17  1  0.750000  0.248092  0.830101  1
  Hf  Hf18  1  0.750000  0.251908  0.330101  1
  Hf  Hf19  1  0.250000  0.748092  0.669899  1
  Ni  Ni20  1  0.250000  0.367822  0.414076  1
  Ni  Ni21  1  0.750000  0.632178  0.585924  1
  Ni  Ni22  1  0.750000  0.867822  0.085924  1
  Ni  Ni23  1  0.250000  0.132178  0.914076  1
  P  P24  1  0.250000  0.810852  0.009798  1
  P  P25  1  0.750000  0.189148  0.990202  1
  P  P26  1  0.750000  0.310852  0.490202  1
  P  P27  1  0.250000  0.689148  0.509798  1
  P  P28  1  0.250000  0.506496  0.116440  1
  P  P29  1  0.750000  0.493504  0.883560  1
  P  P30  1  0.750000  0.006496  0.383560  1
  P  P31  1  0.250000  0.993504  0.616440  1
  P  P32  1  0.250000  0.186541  0.218279  1
  P  P33  1  0.750000  0.813459  0.781721  1
  P  P34  1  0.750000  0.686541  0.281721  1
  P  P35  1  0.250000  0.313459  0.718279  1
