# generated using pymatgen
data_Lu10Zn3Fe
_symmetry_space_group_name_H-M   'P 1'
_cell_length_a   9.13827000
_cell_length_b   9.13827003
_cell_length_c   9.33667400
_cell_angle_alpha   90.00000000
_cell_angle_beta   90.00000000
_cell_angle_gamma   119.99999990
_symmetry_Int_Tables_number   1
_chemical_formula_structural   Lu10Zn3Fe
_chemical_formula_sum   'Lu20 Zn6 Fe2'
_cell_volume   675.22855484
_cell_formula_units_Z   2
loop_
 _symmetry_equiv_pos_site_id
 _symmetry_equiv_pos_as_xyz
  1  'x, y, z'
loop_
 _atom_site_type_symbol
 _atom_site_label
 _atom_site_symmetry_multiplicity
 _atom_site_fract_x
 _atom_site_fract_y
 _atom_site_fract_z
 _atom_site_occupancy
  Lu  Lu0  1  0.000000  0.000000  0.500000  1
  Lu  Lu1  1  0.000000  0.000000  0.000000  1
  Lu  Lu2  1  0.541360  0.458640  0.250000  1
  Lu  Lu3  1  0.541360  0.082719  0.250000  1
  Lu  Lu4  1  0.917281  0.458640  0.250000  1
  Lu  Lu5  1  0.458640  0.541360  0.750000  1
  Lu  Lu6  1  0.458640  0.917281  0.750000  1
  Lu  Lu7  1  0.082719  0.541360  0.750000  1
  Lu  Lu8  1  0.209705  0.790295  0.437694  1
  Lu  Lu9  1  0.209705  0.419412  0.437694  1
  Lu  Lu10  1  0.580588  0.790295  0.437694  1
  Lu  Lu11  1  0.790295  0.209705  0.562306  1
  Lu  Lu12  1  0.790295  0.580588  0.562306  1
  Lu  Lu13  1  0.419412  0.209705  0.562306  1
  Lu  Lu14  1  0.790295  0.209705  0.937694  1
  Lu  Lu15  1  0.790295  0.580588  0.937694  1
  Lu  Lu16  1  0.419412  0.209705  0.937694  1
  Lu  Lu17  1  0.209705  0.790295  0.062306  1
  Lu  Lu18  1  0.209705  0.419412  0.062306  1
  Lu  Lu19  1  0.580588  0.790295  0.062306  1
  Zn  Zn20  1  0.886273  0.113727  0.250000  1
  Zn  Zn21  1  0.886273  0.772547  0.250000  1
  Zn  Zn22  1  0.227453  0.113727  0.250000  1
  Zn  Zn23  1  0.113727  0.886273  0.750000  1
  Zn  Zn24  1  0.113727  0.227453  0.750000  1
  Zn  Zn25  1  0.772547  0.886273  0.750000  1
  Fe  Fe26  1  0.333333  0.666667  0.250000  1
  Fe  Fe27  1  0.666667  0.333333  0.750000  1
