# generated using pymatgen
data_Nd2AlGaIrPt
_symmetry_space_group_name_H-M   'P 1'
_cell_length_a   4.45808200
_cell_length_b   7.07375200
_cell_length_c   7.91549900
_cell_angle_alpha   90.00000000
_cell_angle_beta   90.00000000
_cell_angle_gamma   90.00000000
_symmetry_Int_Tables_number   1
_chemical_formula_structural   Nd2AlGaIrPt
_chemical_formula_sum   'Nd4 Al2 Ga2 Ir2 Pt2'
_cell_volume   249.61816171
_cell_formula_units_Z   2
loop_
 _symmetry_equiv_pos_site_id
 _symmetry_equiv_pos_as_xyz
  1  'x, y, z'
loop_
 _atom_site_type_symbol
 _atom_site_label
 _atom_site_symmetry_multiplicity
 _atom_site_fract_x
 _atom_site_fract_y
 _atom_site_fract_z
 _atom_site_occupancy
  Nd  Nd0  1  0.750000  0.467644  0.180854  1
  Nd  Nd1  1  0.250000  0.026403  0.686194  1
  Nd  Nd2  1  0.750000  0.967644  0.319146  1
  Nd  Nd3  1  0.250000  0.526403  0.813806  1
  Al  Al4  1  0.250000  0.647686  0.436254  1
  Al  Al5  1  0.250000  0.147686  0.063746  1
  Ga  Ga6  1  0.750000  0.854213  0.930797  1
  Ga  Ga7  1  0.750000  0.354213  0.569203  1
  Ir  Ir8  1  0.750000  0.724182  0.610261  1
  Ir  Ir9  1  0.750000  0.224182  0.889739  1
  Pt  Pt10  1  0.250000  0.279871  0.380933  1
  Pt  Pt11  1  0.250000  0.779871  0.119067  1
