# generated using pymatgen
data_Sc3Tc2Ge2POs
_symmetry_space_group_name_H-M   'P 1'
_cell_length_a   7.04746909
_cell_length_b   7.01973703
_cell_length_c   3.35066900
_cell_angle_alpha   90.00000000
_cell_angle_beta   90.00000000
_cell_angle_gamma   119.86991322
_symmetry_Int_Tables_number   1
_chemical_formula_structural   Sc3Tc2Ge2POs
_chemical_formula_sum   'Sc3 Tc2 Ge2 P1 Os1'
_cell_volume   143.74209870
_cell_formula_units_Z   1
loop_
 _symmetry_equiv_pos_site_id
 _symmetry_equiv_pos_as_xyz
  1  'x, y, z'
loop_
 _atom_site_type_symbol
 _atom_site_label
 _atom_site_symmetry_multiplicity
 _atom_site_fract_x
 _atom_site_fract_y
 _atom_site_fract_z
 _atom_site_occupancy
  Sc  Sc0  1  0.391129  0.391527  0.500000  1
  Sc  Sc1  1  0.608871  0.000399  0.500000  1
  Sc  Sc2  1  0.000000  0.606333  0.500000  1
  Tc  Tc3  1  0.753826  0.754950  0.000000  1
  Tc  Tc4  1  0.246174  0.001124  0.000000  1
  Ge  Ge5  1  0.665080  0.334073  0.000000  1
  Ge  Ge6  1  0.334920  0.668994  0.000000  1
  P  P7  1  0.000000  0.995675  0.500000  1
  Os  Os8  1  0.000000  0.246925  0.000000  1
