# generated using pymatgen
data_Tm2Ta3Nb3(Co4P3)4
_symmetry_space_group_name_H-M   'P 1'
_cell_length_a   11.98413000
_cell_length_b   11.98412998
_cell_length_c   3.64189100
_cell_angle_alpha   90.00000000
_cell_angle_beta   90.00000000
_cell_angle_gamma   120.00000005
_symmetry_Int_Tables_number   1
_chemical_formula_structural   Tm2Ta3Nb3(Co4P3)4
_chemical_formula_sum   'Tm2 Ta3 Nb3 Co16 P12'
_cell_volume   452.97120707
_cell_formula_units_Z   1
loop_
 _symmetry_equiv_pos_site_id
 _symmetry_equiv_pos_as_xyz
  1  'x, y, z'
loop_
 _atom_site_type_symbol
 _atom_site_label
 _atom_site_symmetry_multiplicity
 _atom_site_fract_x
 _atom_site_fract_y
 _atom_site_fract_z
 _atom_site_occupancy
  Tm  Tm0  1  0.333333  0.666667  0.000000  1
  Tm  Tm1  1  0.666667  0.333333  0.000000  1
  Ta  Ta2  1  0.444764  0.000000  0.000000  1
  Ta  Ta3  1  0.000000  0.444764  0.000000  1
  Ta  Ta4  1  0.555236  0.555236  0.000000  1
  Nb  Nb5  1  0.820908  0.000000  0.500000  1
  Nb  Nb6  1  0.000000  0.820908  0.500000  1
  Nb  Nb7  1  0.179092  0.179092  0.500000  1
  Co  Co8  1  0.272934  0.000000  0.500000  1
  Co  Co9  1  0.000000  0.272934  0.500000  1
  Co  Co10  1  0.727066  0.727066  0.500000  1
  Co  Co11  1  0.633330  0.809803  0.000000  1
  Co  Co12  1  0.190197  0.823527  0.000000  1
  Co  Co13  1  0.176473  0.366670  0.000000  1
  Co  Co14  1  0.366670  0.176473  0.000000  1
  Co  Co15  1  0.809803  0.633330  0.000000  1
  Co  Co16  1  0.823527  0.190197  0.000000  1
  Co  Co17  1  0.519377  0.874382  0.500000  1
  Co  Co18  1  0.125618  0.644994  0.500000  1
  Co  Co19  1  0.355006  0.480623  0.500000  1
  Co  Co20  1  0.480623  0.355006  0.500000  1
  Co  Co21  1  0.874382  0.519377  0.500000  1
  Co  Co22  1  0.644994  0.125618  0.500000  1
  Co  Co23  1  0.000000  0.000000  0.000000  1
  P  P24  1  0.172825  0.000000  0.000000  1
  P  P25  1  0.000000  0.172825  0.000000  1
  P  P26  1  0.827175  0.827175  0.000000  1
  P  P27  1  0.522171  0.690476  0.500000  1
  P  P28  1  0.309524  0.831694  0.500000  1
  P  P29  1  0.168306  0.477829  0.500000  1
  P  P30  1  0.477829  0.168306  0.500000  1
  P  P31  1  0.690476  0.522171  0.500000  1
  P  P32  1  0.831694  0.309524  0.500000  1
  P  P33  1  0.648516  0.000000  0.000000  1
  P  P34  1  0.000000  0.648516  0.000000  1
  P  P35  1  0.351484  0.351484  0.000000  1
