# generated using pymatgen
data_Tb4P4Ir3Rh
_symmetry_space_group_name_H-M   'P 1'
_cell_length_a   6.15388903
_cell_length_b   6.15388903
_cell_length_c   6.15388903
_cell_angle_alpha   90.00783971
_cell_angle_beta   90.00783971
_cell_angle_gamma   89.99216029
_symmetry_Int_Tables_number   1
_chemical_formula_structural   Tb4P4Ir3Rh
_chemical_formula_sum   'Tb4 P4 Ir3 Rh1'
_cell_volume   233.04992594
_cell_formula_units_Z   1
loop_
 _symmetry_equiv_pos_site_id
 _symmetry_equiv_pos_as_xyz
  1  'x, y, z'
loop_
 _atom_site_type_symbol
 _atom_site_label
 _atom_site_symmetry_multiplicity
 _atom_site_fract_x
 _atom_site_fract_y
 _atom_site_fract_z
 _atom_site_occupancy
  Tb  Tb0  1  0.084784  0.083566  0.084652  1
  Tb  Tb1  1  0.915348  0.584784  0.416435  1
  Tb  Tb2  1  0.416005  0.916004  0.583996  1
  Tb  Tb3  1  0.583566  0.415349  0.915216  1
  P  P4  1  0.311952  0.687318  0.187378  1
  P  P5  1  0.687768  0.187768  0.312233  1
  P  P6  1  0.187318  0.312623  0.688049  1
  P  P7  1  0.812622  0.811951  0.812682  1
  Ir  Ir8  1  0.573008  0.926528  0.073059  1
  Ir  Ir9  1  0.426528  0.426942  0.426992  1
  Ir  Ir10  1  0.926942  0.073009  0.573472  1
  Rh  Rh11  1  0.074162  0.574161  0.925839  1
