# generated using pymatgen
data_Pr5SnBi2
_symmetry_space_group_name_H-M   'P 1'
_cell_length_a   9.57309288
_cell_length_b   9.54808151
_cell_length_c   6.66861700
_cell_angle_alpha   90.00000000
_cell_angle_beta   90.00000000
_cell_angle_gamma   119.91361295
_symmetry_Int_Tables_number   1
_chemical_formula_structural   Pr5SnBi2
_chemical_formula_sum   'Pr10 Sn2 Bi4'
_cell_volume   528.33841599
_cell_formula_units_Z   2
loop_
 _symmetry_equiv_pos_site_id
 _symmetry_equiv_pos_as_xyz
  1  'x, y, z'
loop_
 _atom_site_type_symbol
 _atom_site_label
 _atom_site_symmetry_multiplicity
 _atom_site_fract_x
 _atom_site_fract_y
 _atom_site_fract_z
 _atom_site_occupancy
  Pr  Pr0  1  0.663432  0.330609  0.997531  1
  Pr  Pr1  1  0.336568  0.667178  0.997531  1
  Pr  Pr2  1  0.336568  0.667178  0.502469  1
  Pr  Pr3  1  0.663432  0.330609  0.502469  1
  Pr  Pr4  1  0.749641  0.754935  0.750000  1
  Pr  Pr5  1  0.250359  0.005293  0.750000  1
  Pr  Pr6  1  0.000000  0.242405  0.750000  1
  Pr  Pr7  1  0.246636  0.246759  0.250000  1
  Pr  Pr8  1  0.753364  0.000124  0.250000  1
  Pr  Pr9  1  0.000000  0.753757  0.250000  1
  Sn  Sn10  1  0.388995  0.389676  0.750000  1
  Sn  Sn11  1  0.611005  0.000681  0.750000  1
  Bi  Bi12  1  0.000000  0.612000  0.750000  1
  Bi  Bi13  1  0.611801  0.610814  0.250000  1
  Bi  Bi14  1  0.388199  0.999014  0.250000  1
  Bi  Bi15  1  0.000000  0.388965  0.250000  1
