# generated using pymatgen
data_Lu4Si2B4(IrRu)5
_symmetry_space_group_name_H-M   'P 1'
_cell_length_a   9.49629429
_cell_length_b   9.47863429
_cell_length_c   3.03867600
_cell_angle_alpha   90.00000000
_cell_angle_beta   90.00000000
_cell_angle_gamma   89.97157389
_symmetry_Int_Tables_number   1
_chemical_formula_structural   Lu4Si2B4(IrRu)5
_chemical_formula_sum   'Lu4 Si2 B4 Ir5 Ru5'
_cell_volume   273.51696877
_cell_formula_units_Z   1
loop_
 _symmetry_equiv_pos_site_id
 _symmetry_equiv_pos_as_xyz
  1  'x, y, z'
loop_
 _atom_site_type_symbol
 _atom_site_label
 _atom_site_symmetry_multiplicity
 _atom_site_fract_x
 _atom_site_fract_y
 _atom_site_fract_z
 _atom_site_occupancy
  Lu  Lu0  1  0.174640  0.670299  0.000000  1
  Lu  Lu1  1  0.674707  0.823201  0.000000  1
  Lu  Lu2  1  0.329066  0.179089  0.000000  1
  Lu  Lu3  1  0.821713  0.328656  0.000000  1
  Si  Si4  1  0.999386  0.000457  0.000000  1
  Si  Si5  1  0.500975  0.495747  0.000000  1
  B  B6  1  0.379170  0.878631  0.000000  1
  B  B7  1  0.874146  0.619222  0.000000  1
  B  B8  1  0.125233  0.380828  0.000000  1
  B  B9  1  0.620448  0.125036  0.000000  1
  Ir  Ir10  1  0.430418  0.711832  0.500000  1
  Ir  Ir11  1  0.932696  0.788372  0.500000  1
  Ir  Ir12  1  0.788372  0.067712  0.500000  1
  Ir  Ir13  1  0.212163  0.931462  0.500000  1
  Ir  Ir14  1  0.068522  0.211748  0.500000  1
  Ru  Ru15  1  0.998808  0.499374  0.500000  1
  Ru  Ru16  1  0.500458  0.999053  0.500000  1
  Ru  Ru17  1  0.288416  0.431659  0.500000  1
  Ru  Ru18  1  0.710640  0.570560  0.500000  1
  Ru  Ru19  1  0.570025  0.287062  0.500000  1
