# generated using pymatgen
data_SrCa(ThB10)3
_symmetry_space_group_name_H-M   'P 1'
_cell_length_a   4.13081500
_cell_length_b   4.13081500
_cell_length_c   20.67927400
_cell_angle_alpha   90.00000000
_cell_angle_beta   90.00000000
_cell_angle_gamma   90.00000000
_symmetry_Int_Tables_number   1
_chemical_formula_structural   SrCa(ThB10)3
_chemical_formula_sum   'Sr1 Ca1 Th3 B30'
_cell_volume   352.86353323
_cell_formula_units_Z   1
loop_
 _symmetry_equiv_pos_site_id
 _symmetry_equiv_pos_as_xyz
  1  'x, y, z'
loop_
 _atom_site_type_symbol
 _atom_site_label
 _atom_site_symmetry_multiplicity
 _atom_site_fract_x
 _atom_site_fract_y
 _atom_site_fract_z
 _atom_site_occupancy
  Sr  Sr0  1  0.000000  0.000000  0.199440  1
  Ca  Ca1  1  0.000000  0.000000  0.002152  1
  Th  Th2  1  0.000000  0.000000  0.403441  1
  Th  Th3  1  0.000000  0.000000  0.600039  1
  Th  Th4  1  0.000000  0.000000  0.796468  1
  B  B5  1  0.500000  0.500000  0.159416  1
  B  B6  1  0.500000  0.500000  0.361567  1
  B  B7  1  0.500000  0.500000  0.560894  1
  B  B8  1  0.500000  0.500000  0.759909  1
  B  B9  1  0.500000  0.500000  0.958831  1
  B  B10  1  0.500000  0.201286  0.099011  1
  B  B11  1  0.500000  0.199712  0.301603  1
  B  B12  1  0.500000  0.197562  0.500764  1
  B  B13  1  0.500000  0.197571  0.699449  1
  B  B14  1  0.500000  0.199433  0.898930  1
  B  B15  1  0.201286  0.500000  0.099011  1
  B  B16  1  0.199712  0.500000  0.301603  1
  B  B17  1  0.197562  0.500000  0.500764  1
  B  B18  1  0.197571  0.500000  0.699449  1
  B  B19  1  0.199433  0.500000  0.898930  1
  B  B20  1  0.500000  0.500000  0.039195  1
  B  B21  1  0.500000  0.500000  0.241090  1
  B  B22  1  0.500000  0.500000  0.440425  1
  B  B23  1  0.500000  0.500000  0.639267  1
  B  B24  1  0.500000  0.500000  0.838835  1
  B  B25  1  0.500000  0.798714  0.099011  1
  B  B26  1  0.500000  0.800288  0.301603  1
  B  B27  1  0.500000  0.802438  0.500764  1
  B  B28  1  0.500000  0.802429  0.699449  1
  B  B29  1  0.500000  0.800567  0.898930  1
  B  B30  1  0.798714  0.500000  0.099011  1
  B  B31  1  0.800288  0.500000  0.301603  1
  B  B32  1  0.802438  0.500000  0.500764  1
  B  B33  1  0.802429  0.500000  0.699449  1
  B  B34  1  0.800567  0.500000  0.898930  1
