# generated using pymatgen
data_Tb3ErGaSb5Rh7
_symmetry_space_group_name_H-M   'P 1'
_cell_length_a   7.58348292
_cell_length_b   7.56504663
_cell_length_c   7.56504717
_cell_angle_alpha   108.96264976
_cell_angle_beta   109.74048063
_cell_angle_gamma   109.74048552
_symmetry_Int_Tables_number   1
_chemical_formula_structural   Tb3ErGaSb5Rh7
_chemical_formula_sum   'Tb3 Er1 Ga1 Sb5 Rh7'
_cell_volume   333.95615768
_cell_formula_units_Z   1
loop_
 _symmetry_equiv_pos_site_id
 _symmetry_equiv_pos_as_xyz
  1  'x, y, z'
loop_
 _atom_site_type_symbol
 _atom_site_label
 _atom_site_symmetry_multiplicity
 _atom_site_fract_x
 _atom_site_fract_y
 _atom_site_fract_z
 _atom_site_occupancy
  Tb  Tb0  1  0.999959  0.490143  0.007685  1
  Tb  Tb1  1  0.999959  0.007685  0.490143  1
  Tb  Tb2  1  0.482399  0.490238  0.490238  1
  Er  Er3  1  0.518710  0.008607  0.008607  1
  Ga  Ga4  1  0.999363  0.327752  0.327752  1
  Sb  Sb5  1  0.683482  0.997667  0.682521  1
  Sb  Sb6  1  0.683482  0.682521  0.997667  1
  Sb  Sb7  1  0.000779  0.681413  0.681413  1
  Sb  Sb8  1  0.316369  0.997853  0.313159  1
  Sb  Sb9  1  0.316369  0.313159  0.997853  1
  Rh  Rh10  1  0.999763  0.017557  0.017557  1
  Rh  Rh11  1  0.499996  0.749931  0.247991  1
  Rh  Rh12  1  0.750649  0.495302  0.247643  1
  Rh  Rh13  1  0.249038  0.746165  0.498375  1
  Rh  Rh14  1  0.249038  0.498375  0.746165  1
  Rh  Rh15  1  0.499996  0.247991  0.749931  1
  Rh  Rh16  1  0.750649  0.247643  0.495302  1
