# generated using pymatgen
data_Y20Cd6RuRh
_symmetry_space_group_name_H-M   'P 1'
_cell_length_a   9.66116900
_cell_length_b   9.66116807
_cell_length_c   9.84622000
_cell_angle_alpha   90.00000000
_cell_angle_beta   90.00000000
_cell_angle_gamma   119.99999976
_symmetry_Int_Tables_number   1
_chemical_formula_structural   Y20Cd6RuRh
_chemical_formula_sum   'Y20 Cd6 Ru1 Rh1'
_cell_volume   795.90179572
_cell_formula_units_Z   1
loop_
 _symmetry_equiv_pos_site_id
 _symmetry_equiv_pos_as_xyz
  1  'x, y, z'
loop_
 _atom_site_type_symbol
 _atom_site_label
 _atom_site_symmetry_multiplicity
 _atom_site_fract_x
 _atom_site_fract_y
 _atom_site_fract_z
 _atom_site_occupancy
  Y  Y0  1  0.000000  0.000000  0.499703  1
  Y  Y1  1  0.000000  0.000000  0.000297  1
  Y  Y2  1  0.209345  0.790655  0.440394  1
  Y  Y3  1  0.209345  0.418690  0.440394  1
  Y  Y4  1  0.581310  0.790655  0.440394  1
  Y  Y5  1  0.790295  0.209705  0.560140  1
  Y  Y6  1  0.790295  0.580588  0.560140  1
  Y  Y7  1  0.419412  0.209705  0.560140  1
  Y  Y8  1  0.790295  0.209705  0.939860  1
  Y  Y9  1  0.790295  0.580588  0.939860  1
  Y  Y10  1  0.419412  0.209705  0.939860  1
  Y  Y11  1  0.209345  0.790655  0.059606  1
  Y  Y12  1  0.209345  0.418690  0.059606  1
  Y  Y13  1  0.581310  0.790655  0.059606  1
  Y  Y14  1  0.542017  0.457983  0.250000  1
  Y  Y15  1  0.542017  0.084035  0.250000  1
  Y  Y16  1  0.915965  0.457983  0.250000  1
  Y  Y17  1  0.458620  0.541380  0.750000  1
  Y  Y18  1  0.458620  0.917241  0.750000  1
  Y  Y19  1  0.082759  0.541380  0.750000  1
  Cd  Cd20  1  0.885266  0.114734  0.250000  1
  Cd  Cd21  1  0.885266  0.770534  0.250000  1
  Cd  Cd22  1  0.229466  0.114734  0.250000  1
  Cd  Cd23  1  0.114781  0.885219  0.750000  1
  Cd  Cd24  1  0.114781  0.229560  0.750000  1
  Cd  Cd25  1  0.770440  0.885219  0.750000  1
  Ru  Ru26  1  0.666667  0.333333  0.750000  1
  Rh  Rh27  1  0.333333  0.666667  0.250000  1
