# generated using pymatgen
data_Tb2Nd3(Tm5Sb4)3
_symmetry_space_group_name_H-M   'P 1'
_cell_length_a   8.04700864
_cell_length_b   9.25343419
_cell_length_c   11.73016100
_cell_angle_alpha   89.91354331
_cell_angle_beta   90.12331370
_cell_angle_gamma   90.09110687
_symmetry_Int_Tables_number   1
_chemical_formula_structural   Tb2Nd3(Tm5Sb4)3
_chemical_formula_sum   'Tb2 Nd3 Tm15 Sb12'
_cell_volume   873.45258362
_cell_formula_units_Z   1
loop_
 _symmetry_equiv_pos_site_id
 _symmetry_equiv_pos_as_xyz
  1  'x, y, z'
loop_
 _atom_site_type_symbol
 _atom_site_label
 _atom_site_symmetry_multiplicity
 _atom_site_fract_x
 _atom_site_fract_y
 _atom_site_fract_z
 _atom_site_occupancy
  Tb  Tb0  1  0.683862  0.751029  0.781510  1
  Tb  Tb1  1  0.183982  0.751318  0.719978  1
  Nd  Nd2  1  0.190997  0.557375  0.439209  1
  Nd  Nd3  1  0.317584  0.250177  0.220424  1
  Nd  Nd4  1  0.819243  0.249512  0.278979  1
  Tm  Tm5  1  0.354836  0.750532  0.214764  1
  Tm  Tm6  1  0.850656  0.751196  0.284018  1
  Tm  Tm7  1  0.647785  0.251015  0.782885  1
  Tm  Tm8  1  0.148447  0.252128  0.717902  1
  Tm  Tm9  1  0.691929  0.562181  0.060437  1
  Tm  Tm10  1  0.191818  0.935929  0.438193  1
  Tm  Tm11  1  0.307423  0.061602  0.938555  1
  Tm  Tm12  1  0.809420  0.438014  0.561143  1
  Tm  Tm13  1  0.308183  0.439099  0.938255  1
  Tm  Tm14  1  0.804076  0.060328  0.563351  1
  Tm  Tm15  1  0.692265  0.938754  0.060438  1
  Tm  Tm16  1  0.474719  0.250651  0.489759  1
  Tm  Tm17  1  0.974847  0.250672  0.009443  1
  Tm  Tm18  1  0.525610  0.749625  0.512933  1
  Tm  Tm19  1  0.025192  0.750681  0.986728  1
  Sb  Sb20  1  0.408174  0.750360  0.960742  1
  Sb  Sb21  1  0.904944  0.752655  0.540725  1
  Sb  Sb22  1  0.592913  0.250434  0.034696  1
  Sb  Sb23  1  0.090078  0.239864  0.467068  1
  Sb  Sb24  1  0.565504  0.991413  0.329359  1
  Sb  Sb25  1  0.064361  0.509997  0.168051  1
  Sb  Sb26  1  0.435147  0.494891  0.674702  1
  Sb  Sb27  1  0.933755  0.006906  0.827307  1
  Sb  Sb28  1  0.434000  0.006374  0.673015  1
  Sb  Sb29  1  0.933045  0.495196  0.827127  1
  Sb  Sb30  1  0.569800  0.509484  0.328509  1
  Sb  Sb31  1  0.065403  0.990608  0.169795  1
