# generated using pymatgen
data_Sm3Co7ReNiP6
_symmetry_space_group_name_H-M   'P 1'
_cell_length_a   3.75825400
_cell_length_b   10.55400300
_cell_length_c   12.33503200
_cell_angle_alpha   90.00000000
_cell_angle_beta   90.00000000
_cell_angle_gamma   90.00000000
_symmetry_Int_Tables_number   1
_chemical_formula_structural   Sm3Co7ReNiP6
_chemical_formula_sum   'Sm6 Co14 Re2 Ni2 P12'
_cell_volume   489.26440619
_cell_formula_units_Z   2
loop_
 _symmetry_equiv_pos_site_id
 _symmetry_equiv_pos_as_xyz
  1  'x, y, z'
loop_
 _atom_site_type_symbol
 _atom_site_label
 _atom_site_symmetry_multiplicity
 _atom_site_fract_x
 _atom_site_fract_y
 _atom_site_fract_z
 _atom_site_occupancy
  Sm  Sm0  1  0.000000  0.500000  0.521033  1
  Sm  Sm1  1  0.500000  0.000000  0.478967  1
  Sm  Sm2  1  0.500000  0.816678  0.205469  1
  Sm  Sm3  1  0.500000  0.183322  0.205469  1
  Sm  Sm4  1  0.000000  0.683322  0.794531  1
  Sm  Sm5  1  0.000000  0.316678  0.794531  1
  Co  Co6  1  0.000000  0.500000  0.987118  1
  Co  Co7  1  0.500000  0.000000  0.012882  1
  Co  Co8  1  0.500000  0.332346  0.991181  1
  Co  Co9  1  0.500000  0.667654  0.991181  1
  Co  Co10  1  0.000000  0.167654  0.008819  1
  Co  Co11  1  0.000000  0.832346  0.008819  1
  Co  Co12  1  0.500000  0.298686  0.429392  1
  Co  Co13  1  0.500000  0.701314  0.429392  1
  Co  Co14  1  0.000000  0.201314  0.570608  1
  Co  Co15  1  0.000000  0.798686  0.570608  1
  Co  Co16  1  0.500000  0.880844  0.711652  1
  Co  Co17  1  0.500000  0.119156  0.711652  1
  Co  Co18  1  0.000000  0.619156  0.288348  1
  Co  Co19  1  0.000000  0.380844  0.288348  1
  Re  Re20  1  0.500000  0.500000  0.153509  1
  Re  Re21  1  0.000000  0.000000  0.846491  1
  Ni  Ni22  1  0.500000  0.500000  0.701414  1
  Ni  Ni23  1  0.000000  0.000000  0.298586  1
  P  P24  1  0.500000  0.500000  0.883499  1
  P  P25  1  0.000000  0.000000  0.116501  1
  P  P26  1  0.500000  0.500000  0.344685  1
  P  P27  1  0.000000  0.000000  0.655315  1
  P  P28  1  0.500000  0.307235  0.613909  1
  P  P29  1  0.500000  0.692765  0.613909  1
  P  P30  1  0.000000  0.192765  0.386091  1
  P  P31  1  0.000000  0.807235  0.386091  1
  P  P32  1  0.500000  0.847057  0.894880  1
  P  P33  1  0.500000  0.152943  0.894880  1
  P  P34  1  0.000000  0.652943  0.105120  1
  P  P35  1  0.000000  0.347057  0.105120  1
