# generated using pymatgen
data_Y4FeCo(SiI)2
_symmetry_space_group_name_H-M   'P 1'
_cell_length_a   4.05144800
_cell_length_b   4.05144860
_cell_length_c   16.89731800
_cell_angle_alpha   90.00000000
_cell_angle_beta   90.00000000
_cell_angle_gamma   120.00001147
_symmetry_Int_Tables_number   1
_chemical_formula_structural   Y4FeCo(SiI)2
_chemical_formula_sum   'Y4 Fe1 Co1 Si2 I2'
_cell_volume   240.19776440
_cell_formula_units_Z   1
loop_
 _symmetry_equiv_pos_site_id
 _symmetry_equiv_pos_as_xyz
  1  'x, y, z'
loop_
 _atom_site_type_symbol
 _atom_site_label
 _atom_site_symmetry_multiplicity
 _atom_site_fract_x
 _atom_site_fract_y
 _atom_site_fract_z
 _atom_site_occupancy
  Y  Y0  1  0.000000  0.000000  0.104774  1
  Y  Y1  1  0.000000  0.000000  0.897048  1
  Y  Y2  1  0.000000  0.000000  0.603791  1
  Y  Y3  1  0.000000  0.000000  0.395774  1
  Fe  Fe4  1  0.333333  0.666667  0.501574  1
  Co  Co5  1  0.333333  0.666667  0.994447  1
  Si  Si6  1  0.666667  0.333333  0.499228  1
  Si  Si7  1  0.666667  0.333333  0.003639  1
  I  I8  1  0.333333  0.666667  0.248183  1
  I  I9  1  0.666667  0.333333  0.751542  1
