# generated using pymatgen
data_Be24Fe5
_symmetry_space_group_name_H-M   'P 1'
_cell_length_a   6.75723250
_cell_length_b   6.75734287
_cell_length_c   6.75726300
_cell_angle_alpha   109.47011906
_cell_angle_beta   109.46980195
_cell_angle_gamma   109.47020216
_symmetry_Int_Tables_number   1
_chemical_formula_structural   Be24Fe5
_chemical_formula_sum   'Be24 Fe5'
_cell_volume   237.52685320
_cell_formula_units_Z   1
loop_
 _symmetry_equiv_pos_site_id
 _symmetry_equiv_pos_as_xyz
  1  'x, y, z'
loop_
 _atom_site_type_symbol
 _atom_site_label
 _atom_site_symmetry_multiplicity
 _atom_site_fract_x
 _atom_site_fract_y
 _atom_site_fract_z
 _atom_site_occupancy
  Be  Be0  1  0.369748  0.187623  0.999980  1
  Be  Be1  1  0.187629  0.369768  0.999981  1
  Be  Be2  1  0.684543  0.390652  0.000000  1
  Be  Be3  1  0.390655  0.684551  0.000000  1
  Be  Be4  1  0.812384  0.812391  0.182146  1
  Be  Be5  1  0.369758  0.999987  0.187623  1
  Be  Be6  1  0.999986  0.369770  0.187624  1
  Be  Be7  1  0.609379  0.609381  0.293941  1
  Be  Be8  1  0.706090  0.315454  0.315449  1
  Be  Be9  1  0.315449  0.706077  0.315444  1
  Be  Be10  1  0.187628  0.999989  0.369771  1
  Be  Be11  1  0.999986  0.187623  0.369767  1
  Be  Be12  1  0.684573  0.000005  0.390669  1
  Be  Be13  1  0.000004  0.684582  0.390654  1
  Be  Be14  1  0.609374  0.293938  0.609371  1
  Be  Be15  1  0.293915  0.609369  0.609366  1
  Be  Be16  1  0.817877  0.630234  0.630225  1
  Be  Be17  1  0.630239  0.817880  0.630236  1
  Be  Be18  1  0.390647  0.000005  0.684547  1
  Be  Be19  1  0.000005  0.390633  0.684554  1
  Be  Be20  1  0.315418  0.315418  0.706065  1
  Be  Be21  1  0.812385  0.182138  0.812381  1
  Be  Be22  1  0.182129  0.812387  0.812378  1
  Be  Be23  1  0.630227  0.630232  0.817871  1
  Fe  Fe24  1  0.999998  0.999994  0.000001  1
  Fe  Fe25  1  0.619806  0.000004  0.000001  1
  Fe  Fe26  1  0.000000  0.619743  0.999997  1
  Fe  Fe27  1  0.380171  0.380173  0.380171  1
  Fe  Fe28  1  0.000000  0.999997  0.619785  1
