# generated using pymatgen
data_Tb4Y3Th(ReB6)4
_symmetry_space_group_name_H-M   'P 1'
_cell_length_a   3.71715000
_cell_length_b   9.21835267
_cell_length_c   11.62378901
_cell_angle_alpha   89.94606609
_cell_angle_beta   90.00000000
_cell_angle_gamma   90.00000000
_symmetry_Int_Tables_number   1
_chemical_formula_structural   Tb4Y3Th(ReB6)4
_chemical_formula_sum   'Tb4 Y3 Th1 Re4 B24'
_cell_volume   398.30057360
_cell_formula_units_Z   1
loop_
 _symmetry_equiv_pos_site_id
 _symmetry_equiv_pos_as_xyz
  1  'x, y, z'
loop_
 _atom_site_type_symbol
 _atom_site_label
 _atom_site_symmetry_multiplicity
 _atom_site_fract_x
 _atom_site_fract_y
 _atom_site_fract_z
 _atom_site_occupancy
  Tb  Tb0  1  0.000000  0.177622  0.912841  1
  Tb  Tb1  1  0.000000  0.323417  0.414817  1
  Tb  Tb2  1  0.000000  0.676014  0.586004  1
  Tb  Tb3  1  0.000000  0.441675  0.130464  1
  Y  Y4  1  0.000000  0.556376  0.868741  1
  Y  Y5  1  0.000000  0.943192  0.371654  1
  Y  Y6  1  0.000000  0.057633  0.629569  1
  Th  Th7  1  0.000000  0.822628  0.085870  1
  Re  Re8  1  0.000000  0.138464  0.179316  1
  Re  Re9  1  0.000000  0.862089  0.820084  1
  Re  Re10  1  0.000000  0.638392  0.321515  1
  Re  Re11  1  0.000000  0.361781  0.678860  1
  B  B12  1  0.500000  0.055315  0.068022  1
  B  B13  1  0.500000  0.946795  0.930534  1
  B  B14  1  0.500000  0.553093  0.433156  1
  B  B15  1  0.500000  0.446645  0.567406  1
  B  B16  1  0.500000  0.248985  0.082179  1
  B  B17  1  0.500000  0.751509  0.915197  1
  B  B18  1  0.500000  0.748118  0.419161  1
  B  B19  1  0.500000  0.251560  0.582019  1
  B  B20  1  0.500000  0.290956  0.234687  1
  B  B21  1  0.500000  0.708924  0.764364  1
  B  B22  1  0.500000  0.789967  0.267521  1
  B  B23  1  0.500000  0.208847  0.734300  1
  B  B24  1  0.500000  0.131533  0.315036  1
  B  B25  1  0.500000  0.869779  0.685358  1
  B  B26  1  0.500000  0.629505  0.187872  1
  B  B27  1  0.500000  0.369147  0.813605  1
  B  B28  1  0.500000  0.482499  0.288969  1
  B  B29  1  0.500000  0.516978  0.711409  1
  B  B30  1  0.500000  0.985288  0.213435  1
  B  B31  1  0.500000  0.017886  0.786853  1
  B  B32  1  0.500000  0.101316  0.472193  1
  B  B33  1  0.500000  0.899266  0.528618  1
  B  B34  1  0.500000  0.598108  0.027131  1
  B  B35  1  0.500000  0.398702  0.971243  1
