# generated using pymatgen
data_PrY6Sn23Rh6
_symmetry_space_group_name_H-M   'P 1'
_cell_length_a   9.89070500
_cell_length_b   9.89070680
_cell_length_c   10.12590700
_cell_angle_alpha   90.00000000
_cell_angle_beta   90.00000000
_cell_angle_gamma   120.00000402
_symmetry_Int_Tables_number   1
_chemical_formula_structural   PrY6Sn23Rh6
_chemical_formula_sum   'Pr1 Y6 Sn23 Rh6'
_cell_volume   857.86534666
_cell_formula_units_Z   1
loop_
 _symmetry_equiv_pos_site_id
 _symmetry_equiv_pos_as_xyz
  1  'x, y, z'
loop_
 _atom_site_type_symbol
 _atom_site_label
 _atom_site_symmetry_multiplicity
 _atom_site_fract_x
 _atom_site_fract_y
 _atom_site_fract_z
 _atom_site_occupancy
  Pr  Pr0  1  0.000000  0.000000  0.000000  1
  Y  Y1  1  0.043283  0.521642  0.307975  1
  Y  Y2  1  0.478358  0.956717  0.307975  1
  Y  Y3  1  0.478358  0.521642  0.307975  1
  Y  Y4  1  0.956717  0.478358  0.692025  1
  Y  Y5  1  0.521642  0.043283  0.692025  1
  Y  Y6  1  0.521642  0.478358  0.692025  1
  Sn  Sn7  1  0.000000  0.000000  0.500000  1
  Sn  Sn8  1  0.119585  0.880415  0.281468  1
  Sn  Sn9  1  0.760829  0.880415  0.281468  1
  Sn  Sn10  1  0.119585  0.239171  0.281468  1
  Sn  Sn11  1  0.880415  0.119585  0.718532  1
  Sn  Sn12  1  0.239171  0.119585  0.718532  1
  Sn  Sn13  1  0.880415  0.760829  0.718532  1
  Sn  Sn14  1  0.352102  0.000000  0.000000  1
  Sn  Sn15  1  0.647898  0.647898  0.000000  1
  Sn  Sn16  1  0.000000  0.352102  0.000000  1
  Sn  Sn17  1  0.352102  0.352102  0.000000  1
  Sn  Sn18  1  0.000000  0.647898  0.000000  1
  Sn  Sn19  1  0.647898  0.000000  0.000000  1
  Sn  Sn20  1  0.778352  0.556704  0.454576  1
  Sn  Sn21  1  0.778352  0.221648  0.454576  1
  Sn  Sn22  1  0.443296  0.221648  0.454576  1
  Sn  Sn23  1  0.221648  0.443296  0.545424  1
  Sn  Sn24  1  0.221648  0.778352  0.545424  1
  Sn  Sn25  1  0.556704  0.778352  0.545424  1
  Sn  Sn26  1  0.666667  0.333333  0.180179  1
  Sn  Sn27  1  0.333333  0.666667  0.819821  1
  Sn  Sn28  1  0.666667  0.333333  0.881497  1
  Sn  Sn29  1  0.333333  0.666667  0.118503  1
  Rh  Rh30  1  0.168922  0.831078  0.801474  1
  Rh  Rh31  1  0.662156  0.831078  0.801474  1
  Rh  Rh32  1  0.168922  0.337844  0.801474  1
  Rh  Rh33  1  0.831078  0.168922  0.198526  1
  Rh  Rh34  1  0.337844  0.168922  0.198526  1
  Rh  Rh35  1  0.831078  0.662156  0.198526  1
