# generated using pymatgen
data_Zr16AlCo4Ir3N4
_symmetry_space_group_name_H-M   'P 1'
_cell_length_a   8.68798052
_cell_length_b   8.68789708
_cell_length_c   8.68831936
_cell_angle_alpha   60.50639989
_cell_angle_beta   60.50681314
_cell_angle_gamma   60.50414329
_symmetry_Int_Tables_number   1
_chemical_formula_structural   Zr16AlCo4Ir3N4
_chemical_formula_sum   'Zr16 Al1 Co4 Ir3 N4'
_cell_volume   469.01877506
_cell_formula_units_Z   1
loop_
 _symmetry_equiv_pos_site_id
 _symmetry_equiv_pos_as_xyz
  1  'x, y, z'
loop_
 _atom_site_type_symbol
 _atom_site_label
 _atom_site_symmetry_multiplicity
 _atom_site_fract_x
 _atom_site_fract_y
 _atom_site_fract_z
 _atom_site_occupancy
  Zr  Zr0  1  0.069782  0.644245  0.644560  1
  Zr  Zr1  1  0.644265  0.069797  0.644542  1
  Zr  Zr2  1  0.644428  0.644390  0.069639  1
  Zr  Zr3  1  0.642822  0.642794  0.643035  1
  Zr  Zr4  1  0.812684  0.812685  0.187389  1
  Zr  Zr5  1  0.185346  0.185374  0.814433  1
  Zr  Zr6  1  0.812698  0.187477  0.812716  1
  Zr  Zr7  1  0.185486  0.814396  0.185288  1
  Zr  Zr8  1  0.187465  0.812696  0.812714  1
  Zr  Zr9  1  0.814398  0.185498  0.185270  1
  Zr  Zr10  1  0.433222  0.433218  0.057168  1
  Zr  Zr11  1  0.064412  0.064413  0.433618  1
  Zr  Zr12  1  0.433213  0.057167  0.433230  1
  Zr  Zr13  1  0.064401  0.433628  0.064409  1
  Zr  Zr14  1  0.057165  0.433212  0.433233  1
  Zr  Zr15  1  0.433627  0.064402  0.064411  1
  Al  Al16  1  0.426937  0.426937  0.426935  1
  Co  Co17  1  0.438640  0.856002  0.856012  1
  Co  Co18  1  0.855995  0.438662  0.856000  1
  Co  Co19  1  0.856077  0.856075  0.438457  1
  Co  Co20  1  0.852469  0.852467  0.852467  1
  Ir  Ir21  1  0.748378  0.418675  0.418700  1
  Ir  Ir22  1  0.418678  0.748374  0.418698  1
  Ir  Ir23  1  0.418685  0.418681  0.748405  1
  N  N24  1  0.622084  0.125840  0.125814  1
  N  N25  1  0.125838  0.622083  0.125813  1
  N  N26  1  0.125827  0.125828  0.622104  1
  N  N27  1  0.124983  0.124987  0.124945  1
