# generated using pymatgen
data_DyY3Ho6(In2Pt)4
_symmetry_space_group_name_H-M   'P 1'
_cell_length_a   3.62051200
_cell_length_b   8.17503781
_cell_length_c   18.26096428
_cell_angle_alpha   89.85062046
_cell_angle_beta   90.00000000
_cell_angle_gamma   90.00000000
_symmetry_Int_Tables_number   1
_chemical_formula_structural   DyY3Ho6(In2Pt)4
_chemical_formula_sum   'Dy1 Y3 Ho6 In8 Pt4'
_cell_volume   540.48294235
_cell_formula_units_Z   1
loop_
 _symmetry_equiv_pos_site_id
 _symmetry_equiv_pos_as_xyz
  1  'x, y, z'
loop_
 _atom_site_type_symbol
 _atom_site_label
 _atom_site_symmetry_multiplicity
 _atom_site_fract_x
 _atom_site_fract_y
 _atom_site_fract_z
 _atom_site_occupancy
  Dy  Dy0  1  0.000000  0.743008  0.279563  1
  Y  Y1  1  0.000000  0.257435  0.720108  1
  Y  Y2  1  0.000000  0.000016  0.000016  1
  Y  Y3  1  0.000000  0.500014  0.499968  1
  Ho  Ho4  1  0.000000  0.116657  0.414756  1
  Ho  Ho5  1  0.000000  0.883111  0.585134  1
  Ho  Ho6  1  0.000000  0.383357  0.914932  1
  Ho  Ho7  1  0.000000  0.616631  0.085221  1
  Ho  Ho8  1  0.000000  0.243079  0.220561  1
  Ho  Ho9  1  0.000000  0.756970  0.779556  1
  In  In10  1  0.500000  0.422704  0.351194  1
  In  In11  1  0.500000  0.577674  0.648850  1
  In  In12  1  0.500000  0.076978  0.851160  1
  In  In13  1  0.500000  0.923114  0.148624  1
  In  In14  1  0.500000  0.293151  0.067112  1
  In  In15  1  0.500000  0.706887  0.932931  1
  In  In16  1  0.500000  0.206573  0.566853  1
  In  In17  1  0.500000  0.793129  0.433019  1
  Pt  Pt18  1  0.500000  0.025316  0.303698  1
  Pt  Pt19  1  0.500000  0.972897  0.696187  1
  Pt  Pt20  1  0.500000  0.476606  0.804272  1
  Pt  Pt21  1  0.500000  0.524693  0.196285  1
