# generated using pymatgen
data_La3Dy2Tl2InCl
_symmetry_space_group_name_H-M   'P 1'
_cell_length_a   9.54120828
_cell_length_b   9.54120866
_cell_length_c   6.81503900
_cell_angle_alpha   90.00000000
_cell_angle_beta   90.00000000
_cell_angle_gamma   119.90433522
_symmetry_Int_Tables_number   1
_chemical_formula_structural   La3Dy2Tl2InCl
_chemical_formula_sum   'La6 Dy4 Tl4 In2 Cl2'
_cell_volume   537.80346117
_cell_formula_units_Z   2
loop_
 _symmetry_equiv_pos_site_id
 _symmetry_equiv_pos_as_xyz
  1  'x, y, z'
loop_
 _atom_site_type_symbol
 _atom_site_label
 _atom_site_symmetry_multiplicity
 _atom_site_fract_x
 _atom_site_fract_y
 _atom_site_fract_z
 _atom_site_occupancy
  La  La0  1  0.738001  0.738001  0.250000  1
  La  La1  1  0.999425  0.737837  0.750000  1
  La  La2  1  0.737837  0.999425  0.750000  1
  La  La3  1  0.261999  0.261999  0.750000  1
  La  La4  1  0.000575  0.262163  0.250000  1
  La  La5  1  0.262163  0.000575  0.250000  1
  Dy  Dy6  1  0.334300  0.665700  0.500000  1
  Dy  Dy7  1  0.665700  0.334300  0.500000  1
  Dy  Dy8  1  0.334300  0.665700  0.000000  1
  Dy  Dy9  1  0.665700  0.334300  0.000000  1
  Tl  Tl10  1  0.394147  0.999737  0.750000  1
  Tl  Tl11  1  0.000263  0.605853  0.250000  1
  Tl  Tl12  1  0.605853  0.000263  0.250000  1
  Tl  Tl13  1  0.999737  0.394147  0.750000  1
  In  In14  1  0.394893  0.394893  0.250000  1
  In  In15  1  0.605107  0.605107  0.750000  1
  Cl  Cl16  1  0.000000  0.000000  0.500000  1
  Cl  Cl17  1  0.000000  0.000000  0.000000  1
