# generated using pymatgen
data_EuHg(SeO4)2
_symmetry_space_group_name_H-M   'P 1'
_cell_length_a   5.13428530
_cell_length_b   5.21299859
_cell_length_c   7.13145800
_cell_angle_alpha   90.00000000
_cell_angle_beta   90.00000000
_cell_angle_gamma   88.85462603
_symmetry_Int_Tables_number   1
_chemical_formula_structural   EuHg(SeO4)2
_chemical_formula_sum   'Eu1 Hg1 Se2 O8'
_cell_volume   190.83549315
_cell_formula_units_Z   1
loop_
 _symmetry_equiv_pos_site_id
 _symmetry_equiv_pos_as_xyz
  1  'x, y, z'
loop_
 _atom_site_type_symbol
 _atom_site_label
 _atom_site_symmetry_multiplicity
 _atom_site_fract_x
 _atom_site_fract_y
 _atom_site_fract_z
 _atom_site_occupancy
  Eu  Eu0  1  0.135578  0.507739  0.500000  1
  Hg  Hg1  1  0.858716  0.006671  0.000000  1
  Se  Se2  1  0.663778  0.979783  0.500000  1
  Se  Se3  1  0.334755  0.474958  0.000000  1
  O  O4  1  0.695741  0.303215  0.500000  1
  O  O5  1  0.297112  0.801532  0.000000  1
  O  O6  1  0.341623  0.925075  0.500000  1
  O  O7  1  0.661951  0.416771  0.000000  1
  O  O8  1  0.816450  0.830807  0.687910  1
  O  O9  1  0.188923  0.333121  0.811544  1
  O  O10  1  0.188923  0.333121  0.188456  1
  O  O11  1  0.816450  0.830807  0.312090  1
