# generated using pymatgen
data_Er5B(WC3)2
_symmetry_space_group_name_H-M   'P 1'
_cell_length_a   8.36026972
_cell_length_b   8.36026985
_cell_length_c   3.39614300
_cell_angle_alpha   90.00000000
_cell_angle_beta   90.00000000
_cell_angle_gamma   122.28123151
_symmetry_Int_Tables_number   1
_chemical_formula_structural   Er5B(WC3)2
_chemical_formula_sum   'Er5 B1 W2 C6'
_cell_volume   200.68167367
_cell_formula_units_Z   1
loop_
 _symmetry_equiv_pos_site_id
 _symmetry_equiv_pos_as_xyz
  1  'x, y, z'
loop_
 _atom_site_type_symbol
 _atom_site_label
 _atom_site_symmetry_multiplicity
 _atom_site_fract_x
 _atom_site_fract_y
 _atom_site_fract_z
 _atom_site_occupancy
  Er  Er0  1  0.500000  0.500000  0.000000  1
  Er  Er1  1  0.077621  0.327065  0.500000  1
  Er  Er2  1  0.922379  0.672935  0.500000  1
  Er  Er3  1  0.672935  0.922379  0.500000  1
  Er  Er4  1  0.327065  0.077621  0.500000  1
  B  B5  1  0.000000  0.000000  0.000000  1
  W  W6  1  0.712890  0.287110  0.000000  1
  W  W7  1  0.287110  0.712890  0.000000  1
  C  C8  1  0.626435  0.373565  0.500000  1
  C  C9  1  0.373565  0.626435  0.500000  1
  C  C10  1  0.182946  0.182946  0.000000  1
  C  C11  1  0.817054  0.817054  0.000000  1
  C  C12  1  0.000000  0.500000  0.000000  1
  C  C13  1  0.500000  0.000000  0.000000  1
