# generated using pymatgen
data_Ho6Co4P12IrRh13
_symmetry_space_group_name_H-M   'P 1'
_cell_length_a   3.82029600
_cell_length_b   11.07084500
_cell_length_c   12.75362800
_cell_angle_alpha   90.00000000
_cell_angle_beta   90.00000000
_cell_angle_gamma   90.00000000
_symmetry_Int_Tables_number   1
_chemical_formula_structural   Ho6Co4P12IrRh13
_chemical_formula_sum   'Ho6 Co4 P12 Ir1 Rh13'
_cell_volume   539.40072938
_cell_formula_units_Z   1
loop_
 _symmetry_equiv_pos_site_id
 _symmetry_equiv_pos_as_xyz
  1  'x, y, z'
loop_
 _atom_site_type_symbol
 _atom_site_label
 _atom_site_symmetry_multiplicity
 _atom_site_fract_x
 _atom_site_fract_y
 _atom_site_fract_z
 _atom_site_occupancy
  Ho  Ho0  1  0.000000  0.500000  0.521515  1
  Ho  Ho1  1  0.500000  0.000000  0.478536  1
  Ho  Ho2  1  0.500000  0.819682  0.199146  1
  Ho  Ho3  1  0.500000  0.180318  0.199146  1
  Ho  Ho4  1  0.000000  0.685638  0.800333  1
  Ho  Ho5  1  0.000000  0.314362  0.800333  1
  Co  Co6  1  0.000000  0.500000  0.984375  1
  Co  Co7  1  0.500000  0.000000  0.016616  1
  Co  Co8  1  0.000000  0.160712  0.005838  1
  Co  Co9  1  0.000000  0.839288  0.005838  1
  P  P10  1  0.500000  0.315385  0.620233  1
  P  P11  1  0.500000  0.684615  0.620233  1
  P  P12  1  0.000000  0.183229  0.379624  1
  P  P13  1  0.000000  0.816771  0.379624  1
  P  P14  1  0.500000  0.500000  0.884662  1
  P  P15  1  0.000000  0.000000  0.111094  1
  P  P16  1  0.500000  0.852225  0.899793  1
  P  P17  1  0.500000  0.147775  0.899793  1
  P  P18  1  0.000000  0.656217  0.102949  1
  P  P19  1  0.000000  0.343783  0.102949  1
  P  P20  1  0.500000  0.500000  0.348546  1
  P  P21  1  0.000000  0.000000  0.650847  1
  Ir  Ir22  1  0.500000  0.500000  0.705295  1
  Rh  Rh23  1  0.500000  0.294638  0.429721  1
  Rh  Rh24  1  0.500000  0.705362  0.429721  1
  Rh  Rh25  1  0.000000  0.204961  0.569415  1
  Rh  Rh26  1  0.000000  0.795039  0.569415  1
  Rh  Rh27  1  0.500000  0.873108  0.714504  1
  Rh  Rh28  1  0.500000  0.126892  0.714504  1
  Rh  Rh29  1  0.000000  0.627764  0.285946  1
  Rh  Rh30  1  0.000000  0.372236  0.285946  1
  Rh  Rh31  1  0.500000  0.331015  0.993885  1
  Rh  Rh32  1  0.500000  0.668985  0.993885  1
  Rh  Rh33  1  0.500000  0.500000  0.163689  1
  Rh  Rh34  1  0.000000  0.000000  0.838789  1
  Rh  Rh35  1  0.000000  0.000000  0.293260  1
