# generated using pymatgen
data_La2Sm(OsO5)2
_symmetry_space_group_name_H-M   'P 1'
_cell_length_a   5.56931861
_cell_length_b   5.56931865
_cell_length_c   7.00326543
_cell_angle_alpha   72.65265602
_cell_angle_beta   72.65265206
_cell_angle_gamma   90.31357082
_symmetry_Int_Tables_number   1
_chemical_formula_structural   La2Sm(OsO5)2
_chemical_formula_sum   'La2 Sm1 Os2 O10'
_cell_volume   196.84642557
_cell_formula_units_Z   1
loop_
 _symmetry_equiv_pos_site_id
 _symmetry_equiv_pos_as_xyz
  1  'x, y, z'
loop_
 _atom_site_type_symbol
 _atom_site_label
 _atom_site_symmetry_multiplicity
 _atom_site_fract_x
 _atom_site_fract_y
 _atom_site_fract_z
 _atom_site_occupancy
  La  La0  1  0.754109  0.245891  0.500000  1
  La  La1  1  0.245891  0.754109  0.500000  1
  Sm  Sm2  1  0.500000  0.500000  0.000000  1
  Os  Os3  1  0.130492  0.130492  0.825606  1
  Os  Os4  1  0.869508  0.869508  0.174394  1
  O  O5  1  0.826212  0.826212  0.472630  1
  O  O6  1  0.173788  0.173788  0.527370  1
  O  O7  1  0.594798  0.594798  0.278520  1
  O  O8  1  0.405202  0.405202  0.721480  1
  O  O9  1  0.378837  0.893333  0.792848  1
  O  O10  1  0.853026  0.853026  0.897637  1
  O  O11  1  0.146974  0.146974  0.102363  1
  O  O12  1  0.893333  0.378837  0.792848  1
  O  O13  1  0.621163  0.106667  0.207152  1
  O  O14  1  0.106667  0.621163  0.207152  1
