# generated using pymatgen
data_Lu4Sc6Ga3Si5
_symmetry_space_group_name_H-M   'P 1'
_cell_length_a   7.08430736
_cell_length_b   7.34683846
_cell_length_c   14.09182346
_cell_angle_alpha   89.97128883
_cell_angle_beta   89.81250518
_cell_angle_gamma   89.98654515
_symmetry_Int_Tables_number   1
_chemical_formula_structural   Lu4Sc6Ga3Si5
_chemical_formula_sum   'Lu8 Sc12 Ga6 Si10'
_cell_volume   733.43678518
_cell_formula_units_Z   2
loop_
 _symmetry_equiv_pos_site_id
 _symmetry_equiv_pos_as_xyz
  1  'x, y, z'
loop_
 _atom_site_type_symbol
 _atom_site_label
 _atom_site_symmetry_multiplicity
 _atom_site_fract_x
 _atom_site_fract_y
 _atom_site_fract_z
 _atom_site_occupancy
  Lu  Lu0  1  0.012405  0.174609  0.097799  1
  Lu  Lu1  1  0.987595  0.825391  0.902201  1
  Lu  Lu2  1  0.487922  0.678736  0.901913  1
  Lu  Lu3  1  0.990168  0.824749  0.600198  1
  Lu  Lu4  1  0.512078  0.321264  0.098087  1
  Lu  Lu5  1  0.009832  0.175251  0.399802  1
  Lu  Lu6  1  0.510143  0.323953  0.399685  1
  Lu  Lu7  1  0.489857  0.676047  0.600315  1
  Sc  Sc8  1  0.163293  0.502339  0.750212  1
  Sc  Sc9  1  0.836707  0.497661  0.249788  1
  Sc  Sc10  1  0.335680  0.002854  0.249136  1
  Sc  Sc11  1  0.664320  0.997146  0.750864  1
  Sc  Sc12  1  0.331321  0.173099  0.626652  1
  Sc  Sc13  1  0.668679  0.826901  0.373348  1
  Sc  Sc14  1  0.169246  0.673261  0.372973  1
  Sc  Sc15  1  0.667766  0.825451  0.125416  1
  Sc  Sc16  1  0.830754  0.326739  0.627027  1
  Sc  Sc17  1  0.332234  0.174549  0.874584  1
  Sc  Sc18  1  0.826591  0.324681  0.875439  1
  Sc  Sc19  1  0.173409  0.675319  0.124561  1
  Ga  Ga20  1  0.162903  0.463900  0.539607  1
  Ga  Ga21  1  0.837097  0.536100  0.460393  1
  Ga  Ga22  1  0.336673  0.962859  0.460723  1
  Ga  Ga23  1  0.838129  0.537778  0.039438  1
  Ga  Ga24  1  0.663327  0.037141  0.539277  1
  Ga  Ga25  1  0.161871  0.462222  0.960562  1
  Si  Si26  1  0.031954  0.113119  0.751589  1
  Si  Si27  1  0.968046  0.886881  0.248411  1
  Si  Si28  1  0.468143  0.611940  0.249020  1
  Si  Si29  1  0.531857  0.388060  0.750980  1
  Si  Si30  1  0.285279  0.870679  0.751875  1
  Si  Si31  1  0.714721  0.129321  0.248125  1
  Si  Si32  1  0.213696  0.369298  0.248433  1
  Si  Si33  1  0.786304  0.630702  0.751567  1
  Si  Si34  1  0.656649  0.034765  0.962093  1
  Si  Si35  1  0.343351  0.965235  0.037907  1
