# generated using pymatgen
data_La3Th(Ga5Rh3)2
_symmetry_space_group_name_H-M   'P 1'
_cell_length_a   8.72004680
_cell_length_b   8.75381021
_cell_length_c   8.75380951
_cell_angle_alpha   141.20073382
_cell_angle_beta   108.15269704
_cell_angle_gamma   84.83396954
_symmetry_Int_Tables_number   1
_chemical_formula_structural   La3Th(Ga5Rh3)2
_chemical_formula_sum   'La3 Th1 Ga10 Rh6'
_cell_volume   384.53966480
_cell_formula_units_Z   1
loop_
 _symmetry_equiv_pos_site_id
 _symmetry_equiv_pos_as_xyz
  1  'x, y, z'
loop_
 _atom_site_type_symbol
 _atom_site_label
 _atom_site_symmetry_multiplicity
 _atom_site_fract_x
 _atom_site_fract_y
 _atom_site_fract_z
 _atom_site_occupancy
  La  La0  1  0.636883  0.863806  0.773076  1
  La  La1  1  0.088753  0.362256  0.726496  1
  La  La2  1  0.911156  0.637276  0.273881  1
  Th  Th3  1  0.363001  0.139118  0.223883  1
  Ga  Ga4  1  0.999031  0.251146  0.253060  1
  Ga  Ga5  1  0.999031  0.745970  0.747885  1
  Ga  Ga6  1  0.707071  0.957592  0.250699  1
  Ga  Ga7  1  0.292837  0.545404  0.251427  1
  Ga  Ga8  1  0.292837  0.041410  0.747433  1
  Ga  Ga9  1  0.707071  0.456372  0.749478  1
  Ga  Ga10  1  0.574755  0.409185  0.165569  1
  Ga  Ga11  1  0.240363  0.909549  0.330813  1
  Ga  Ga12  1  0.761787  0.092253  0.669534  1
  Ga  Ga13  1  0.424032  0.590829  0.833203  1
  Rh  Rh14  1  0.947289  0.852626  0.094663  1
  Rh  Rh15  1  0.500060  0.752007  0.250088  1
  Rh  Rh16  1  0.750855  0.350110  0.400745  1
  Rh  Rh17  1  0.246362  0.647137  0.599225  1
  Rh  Rh18  1  0.056768  0.145980  0.910788  1
  Rh  Rh19  1  0.500060  0.249972  0.748053  1
