# generated using pymatgen
data_Er9Sc(Zn2Bi)2
_symmetry_space_group_name_H-M   'P 1'
_cell_length_a   8.52241322
_cell_length_b   8.52241343
_cell_length_c   8.52241200
_cell_angle_alpha   123.55260140
_cell_angle_beta   123.55260397
_cell_angle_gamma   83.94952070
_symmetry_Int_Tables_number   1
_chemical_formula_structural   Er9Sc(Zn2Bi)2
_chemical_formula_sum   'Er9 Sc1 Zn4 Bi2'
_cell_volume   411.68019990
_cell_formula_units_Z   1
loop_
 _symmetry_equiv_pos_site_id
 _symmetry_equiv_pos_as_xyz
  1  'x, y, z'
loop_
 _atom_site_type_symbol
 _atom_site_label
 _atom_site_symmetry_multiplicity
 _atom_site_fract_x
 _atom_site_fract_y
 _atom_site_fract_z
 _atom_site_occupancy
  Er  Er0  1  0.000000  0.000000  0.000000  1
  Er  Er1  1  0.509671  0.012338  0.805360  1
  Er  Er2  1  0.206977  0.704310  0.194640  1
  Er  Er3  1  0.012338  0.206977  0.502667  1
  Er  Er4  1  0.704310  0.509671  0.497333  1
  Er  Er5  1  0.490329  0.987662  0.194640  1
  Er  Er6  1  0.793023  0.295690  0.805360  1
  Er  Er7  1  0.987662  0.793023  0.497333  1
  Er  Er8  1  0.295690  0.490329  0.502667  1
  Sc  Sc9  1  0.500000  0.500000  0.000000  1
  Zn  Zn10  1  0.142215  0.638577  0.780793  1
  Zn  Zn11  1  0.857785  0.361423  0.219207  1
  Zn  Zn12  1  0.638577  0.857785  0.496362  1
  Zn  Zn13  1  0.361423  0.142215  0.503638  1
  Bi  Bi14  1  0.252791  0.252791  0.000000  1
  Bi  Bi15  1  0.747209  0.747209  0.000000  1
