# generated using pymatgen
data_Sc12Fe3Hg2
_symmetry_space_group_name_H-M   'P 1'
_cell_length_a   7.74742570
_cell_length_b   7.74742735
_cell_length_c   7.74742636
_cell_angle_alpha   108.26121319
_cell_angle_beta   108.26121447
_cell_angle_gamma   111.91932109
_symmetry_Int_Tables_number   1
_chemical_formula_structural   Sc12Fe3Hg2
_chemical_formula_sum   'Sc12 Fe3 Hg2'
_cell_volume   357.48073517
_cell_formula_units_Z   1
loop_
 _symmetry_equiv_pos_site_id
 _symmetry_equiv_pos_as_xyz
  1  'x, y, z'
loop_
 _atom_site_type_symbol
 _atom_site_label
 _atom_site_symmetry_multiplicity
 _atom_site_fract_x
 _atom_site_fract_y
 _atom_site_fract_z
 _atom_site_occupancy
  Sc  Sc0  1  0.306294  0.306294  0.612587  1
  Sc  Sc1  1  0.693706  0.693706  0.387413  1
  Sc  Sc2  1  0.693706  0.306294  0.000000  1
  Sc  Sc3  1  0.306294  0.693706  0.000000  1
  Sc  Sc4  1  0.189497  0.426457  0.236960  1
  Sc  Sc5  1  0.810503  0.573543  0.763040  1
  Sc  Sc6  1  0.189497  0.952536  0.763040  1
  Sc  Sc7  1  0.952536  0.189497  0.763040  1
  Sc  Sc8  1  0.810503  0.047464  0.236960  1
  Sc  Sc9  1  0.047464  0.810503  0.236960  1
  Sc  Sc10  1  0.426457  0.189497  0.236960  1
  Sc  Sc11  1  0.573543  0.810503  0.763040  1
  Fe  Fe12  1  0.376848  0.376848  0.000000  1
  Fe  Fe13  1  0.623152  0.623152  0.000000  1
  Fe  Fe14  1  0.000000  0.000000  0.000000  1
  Hg  Hg15  1  0.000000  0.500000  0.500000  1
  Hg  Hg16  1  0.500000  0.000000  0.500000  1
