# generated using pymatgen
data_Mg3SnP6N13
_symmetry_space_group_name_H-M   'P 1'
_cell_length_a   7.12933512
_cell_length_b   7.12933679
_cell_length_c   7.12933535
_cell_angle_alpha   109.30632907
_cell_angle_beta   109.30633089
_cell_angle_gamma   109.30632764
_symmetry_Int_Tables_number   1
_chemical_formula_structural   Mg3SnP6N13
_chemical_formula_sum   'Mg3 Sn1 P6 N13'
_cell_volume   280.63937532
_cell_formula_units_Z   1
loop_
 _symmetry_equiv_pos_site_id
 _symmetry_equiv_pos_as_xyz
  1  'x, y, z'
loop_
 _atom_site_type_symbol
 _atom_site_label
 _atom_site_symmetry_multiplicity
 _atom_site_fract_x
 _atom_site_fract_y
 _atom_site_fract_z
 _atom_site_occupancy
  Mg  Mg0  1  0.996483  0.692955  0.996483  1
  Mg  Mg1  1  0.692955  0.996483  0.996483  1
  Mg  Mg2  1  0.996483  0.996483  0.692955  1
  Sn  Sn3  1  0.274297  0.274297  0.274297  1
  P  P4  1  0.503557  0.253038  0.756389  1
  P  P5  1  0.503557  0.756389  0.253038  1
  P  P6  1  0.756389  0.253038  0.503557  1
  P  P7  1  0.253038  0.503557  0.756389  1
  P  P8  1  0.756389  0.503557  0.253038  1
  P  P9  1  0.253038  0.756389  0.503557  1
  N  N10  1  0.971240  0.971240  0.971240  1
  N  N11  1  0.002302  0.733057  0.449466  1
  N  N12  1  0.272460  0.721548  0.272460  1
  N  N13  1  0.286997  0.559728  0.559728  1
  N  N14  1  0.559728  0.559728  0.286997  1
  N  N15  1  0.559728  0.286997  0.559728  1
  N  N16  1  0.733057  0.002302  0.449466  1
  N  N17  1  0.449466  0.002302  0.733057  1
  N  N18  1  0.733057  0.449466  0.002302  1
  N  N19  1  0.272460  0.272460  0.721548  1
  N  N20  1  0.721548  0.272460  0.272460  1
  N  N21  1  0.002302  0.449466  0.733057  1
  N  N22  1  0.449466  0.733057  0.002302  1
