# generated using pymatgen
data_BaPt2Au3
_symmetry_space_group_name_H-M   'P 1'
_cell_length_a   5.77338192
_cell_length_b   5.77338076
_cell_length_c   4.54147300
_cell_angle_alpha   90.00000000
_cell_angle_beta   90.00000000
_cell_angle_gamma   120.63871632
_symmetry_Int_Tables_number   1
_chemical_formula_structural   BaPt2Au3
_chemical_formula_sum   'Ba1 Pt2 Au3'
_cell_volume   130.24364591
_cell_formula_units_Z   1
loop_
 _symmetry_equiv_pos_site_id
 _symmetry_equiv_pos_as_xyz
  1  'x, y, z'
loop_
 _atom_site_type_symbol
 _atom_site_label
 _atom_site_symmetry_multiplicity
 _atom_site_fract_x
 _atom_site_fract_y
 _atom_site_fract_z
 _atom_site_occupancy
  Ba  Ba0  1  0.000000  0.000000  0.000000  1
  Pt  Pt1  1  0.500000  0.000001  0.500002  1
  Pt  Pt2  1  0.999998  0.499999  0.500002  1
  Au  Au3  1  0.323998  0.676003  0.000000  1
  Au  Au4  1  0.676001  0.323997  0.000000  1
  Au  Au5  1  0.499999  0.500000  0.500002  1
