# generated using pymatgen
data_Sc6FeSn6Ir5
_symmetry_space_group_name_H-M   'P 1'
_cell_length_a   7.67418100
_cell_length_b   7.67418151
_cell_length_c   6.61458900
_cell_angle_alpha   90.00000000
_cell_angle_beta   90.00000000
_cell_angle_gamma   120.00000211
_symmetry_Int_Tables_number   1
_chemical_formula_structural   Sc6FeSn6Ir5
_chemical_formula_sum   'Sc6 Fe1 Sn6 Ir5'
_cell_volume   337.36311016
_cell_formula_units_Z   1
loop_
 _symmetry_equiv_pos_site_id
 _symmetry_equiv_pos_as_xyz
  1  'x, y, z'
loop_
 _atom_site_type_symbol
 _atom_site_label
 _atom_site_symmetry_multiplicity
 _atom_site_fract_x
 _atom_site_fract_y
 _atom_site_fract_z
 _atom_site_occupancy
  Sc  Sc0  1  0.391922  0.001639  0.250000  1
  Sc  Sc1  1  0.609716  0.608078  0.250000  1
  Sc  Sc2  1  0.998361  0.390284  0.250000  1
  Sc  Sc3  1  0.389617  0.999374  0.750000  1
  Sc  Sc4  1  0.609758  0.610383  0.750000  1
  Sc  Sc5  1  0.000626  0.390242  0.750000  1
  Fe  Fe6  1  0.000000  0.000000  0.250000  1
  Sn  Sn7  1  0.723138  0.999493  0.006015  1
  Sn  Sn8  1  0.276356  0.276862  0.493985  1
  Sn  Sn9  1  0.000507  0.723644  0.493985  1
  Sn  Sn10  1  0.000507  0.723644  0.006015  1
  Sn  Sn11  1  0.276356  0.276862  0.006015  1
  Sn  Sn12  1  0.723138  0.999493  0.493985  1
  Ir  Ir13  1  0.333333  0.666667  0.000918  1
  Ir  Ir14  1  0.333333  0.666667  0.499082  1
  Ir  Ir15  1  0.666667  0.333333  0.998759  1
  Ir  Ir16  1  0.666667  0.333333  0.501241  1
  Ir  Ir17  1  0.000000  0.000000  0.750000  1
