# generated using pymatgen
data_Lu5Sc3Au4
_symmetry_space_group_name_H-M   'P 1'
_cell_length_a   4.73905800
_cell_length_b   6.94005870
_cell_length_c   8.56954444
_cell_angle_alpha   90.10191827
_cell_angle_beta   90.00000000
_cell_angle_gamma   90.00000000
_symmetry_Int_Tables_number   1
_chemical_formula_structural   Lu5Sc3Au4
_chemical_formula_sum   'Lu5 Sc3 Au4'
_cell_volume   281.84622102
_cell_formula_units_Z   1
loop_
 _symmetry_equiv_pos_site_id
 _symmetry_equiv_pos_as_xyz
  1  'x, y, z'
loop_
 _atom_site_type_symbol
 _atom_site_label
 _atom_site_symmetry_multiplicity
 _atom_site_fract_x
 _atom_site_fract_y
 _atom_site_fract_z
 _atom_site_occupancy
  Lu  Lu0  1  0.750000  0.646088  0.423084  1
  Lu  Lu1  1  0.250000  0.478035  0.174162  1
  Lu  Lu2  1  0.250000  0.986730  0.320487  1
  Lu  Lu3  1  0.750000  0.517896  0.823204  1
  Lu  Lu4  1  0.750000  0.021683  0.682592  1
  Sc  Sc5  1  0.250000  0.854238  0.925805  1
  Sc  Sc6  1  0.250000  0.353615  0.577826  1
  Sc  Sc7  1  0.750000  0.146362  0.075065  1
  Au  Au8  1  0.250000  0.248519  0.894807  1
  Au  Au9  1  0.250000  0.753316  0.607383  1
  Au  Au10  1  0.750000  0.749860  0.099676  1
  Au  Au11  1  0.750000  0.243660  0.395910  1
