# generated using pymatgen
data_LaPr9(IrRh)3
_symmetry_space_group_name_H-M   'P 1'
_cell_length_a   11.32144686
_cell_length_b   11.32833600
_cell_length_c   6.68394738
_cell_angle_alpha   90.00000000
_cell_angle_beta   89.88203890
_cell_angle_gamma   90.00000000
_symmetry_Int_Tables_number   1
_chemical_formula_structural   LaPr9(IrRh)3
_chemical_formula_sum   'La2 Pr18 Ir6 Rh6'
_cell_volume   857.23551560
_cell_formula_units_Z   2
loop_
 _symmetry_equiv_pos_site_id
 _symmetry_equiv_pos_as_xyz
  1  'x, y, z'
loop_
 _atom_site_type_symbol
 _atom_site_label
 _atom_site_symmetry_multiplicity
 _atom_site_fract_x
 _atom_site_fract_y
 _atom_site_fract_z
 _atom_site_occupancy
  La  La0  1  0.291023  0.092327  0.386731  1
  La  La1  1  0.291023  0.907673  0.886731  1
  Pr  Pr2  1  0.707284  0.092232  0.883372  1
  Pr  Pr3  1  0.707284  0.907768  0.383372  1
  Pr  Pr4  1  0.590324  0.790121  0.884533  1
  Pr  Pr5  1  0.590324  0.209879  0.384533  1
  Pr  Pr6  1  0.409229  0.790019  0.384661  1
  Pr  Pr7  1  0.409229  0.209981  0.884661  1
  Pr  Pr8  1  0.208974  0.409138  0.615134  1
  Pr  Pr9  1  0.208974  0.590862  0.115134  1
  Pr  Pr10  1  0.790838  0.410674  0.115505  1
  Pr  Pr11  1  0.790838  0.589326  0.615505  1
  Pr  Pr12  1  0.909459  0.708354  0.116319  1
  Pr  Pr13  1  0.909459  0.291646  0.616319  1
  Pr  Pr14  1  0.092263  0.707403  0.614683  1
  Pr  Pr15  1  0.092263  0.292597  0.114683  1
  Pr  Pr16  1  0.999043  0.998812  0.499614  1
  Pr  Pr17  1  0.999043  0.001188  0.999614  1
  Pr  Pr18  1  0.500284  0.499340  0.000550  1
  Pr  Pr19  1  0.500284  0.500660  0.500550  1
  Ir  Ir20  1  0.154201  0.153691  0.748589  1
  Ir  Ir21  1  0.154201  0.846309  0.248589  1
  Ir  Ir22  1  0.654913  0.345995  0.749572  1
  Ir  Ir23  1  0.654913  0.654005  0.249572  1
  Ir  Ir24  1  0.346332  0.345152  0.250938  1
  Ir  Ir25  1  0.346332  0.654848  0.750938  1
  Rh  Rh26  1  0.846210  0.153206  0.249608  1
  Rh  Rh27  1  0.846210  0.846794  0.749608  1
  Rh  Rh28  1  0.500305  0.000329  0.116930  1
  Rh  Rh29  1  0.500305  0.999671  0.616930  1
  Rh  Rh30  1  0.999315  0.500390  0.883262  1
  Rh  Rh31  1  0.999315  0.499610  0.383262  1
