# generated using pymatgen
data_La5Pr(RhBr3)2
_symmetry_space_group_name_H-M   'P 1'
_cell_length_a   10.63797467
_cell_length_b   10.60972739
_cell_length_c   10.60972691
_cell_angle_alpha   109.03121163
_cell_angle_beta   109.17633470
_cell_angle_gamma   110.09945915
_symmetry_Int_Tables_number   1
_chemical_formula_structural   La5Pr(RhBr3)2
_chemical_formula_sum   'La10 Pr2 Rh4 Br12'
_cell_volume   922.95902250
_cell_formula_units_Z   2
loop_
 _symmetry_equiv_pos_site_id
 _symmetry_equiv_pos_as_xyz
  1  'x, y, z'
loop_
 _atom_site_type_symbol
 _atom_site_label
 _atom_site_symmetry_multiplicity
 _atom_site_fract_x
 _atom_site_fract_y
 _atom_site_fract_z
 _atom_site_occupancy
  La  La0  1  0.467765  0.483200  0.233215  1
  La  La1  1  0.745240  0.233008  0.262678  1
  La  La2  1  0.754760  0.017438  0.487768  1
  La  La3  1  0.233687  0.469834  0.487504  1
  La  La4  1  0.266313  0.753818  0.236149  1
  La  La5  1  0.032235  0.265449  0.015434  1
  La  La6  1  0.016597  0.031622  0.265503  1
  La  La7  1  0.483403  0.748906  0.015024  1
  La  La8  1  0.483220  0.233694  0.467442  1
  La  La9  1  0.016780  0.484223  0.750474  1
  Pr  Pr10  1  0.263726  0.014076  0.027479  1
  Pr  Pr11  1  0.236274  0.263752  0.750350  1
  Rh  Rh12  1  0.249631  0.251232  0.250777  1
  Rh  Rh13  1  0.500963  0.999574  0.250710  1
  Rh  Rh14  1  0.999037  0.249747  0.498611  1
  Rh  Rh15  1  0.250369  0.501146  0.001601  1
  Br  Br16  1  0.250068  0.756538  0.745548  1
  Br  Br17  1  0.509441  0.503274  0.755165  1
  Br  Br18  1  0.990559  0.745724  0.993832  1
  Br  Br19  1  0.744965  0.249942  0.755335  1
  Br  Br20  1  0.997769  0.990088  0.745746  1
  Br  Br21  1  0.249932  0.995480  0.506470  1
  Br  Br22  1  0.755035  0.510369  0.504977  1
  Br  Br23  1  0.502231  0.247977  0.992318  1
  Br  Br24  1  0.754985  0.745193  0.250007  1
  Br  Br25  1  0.745015  0.995022  0.990209  1
  Br  Br26  1  0.995072  0.504737  0.250009  1
  Br  Br27  1  0.504928  0.754937  0.509664  1
