# generated using pymatgen
data_BaErZn3FeO7
_symmetry_space_group_name_H-M   'P 1'
_cell_length_a   6.41677600
_cell_length_b   6.41677598
_cell_length_c   10.41089400
_cell_angle_alpha   90.00000000
_cell_angle_beta   90.00000000
_cell_angle_gamma   120.00000012
_symmetry_Int_Tables_number   1
_chemical_formula_structural   BaErZn3FeO7
_chemical_formula_sum   'Ba2 Er2 Zn6 Fe2 O14'
_cell_volume   371.23798973
_cell_formula_units_Z   2
loop_
 _symmetry_equiv_pos_site_id
 _symmetry_equiv_pos_as_xyz
  1  'x, y, z'
loop_
 _atom_site_type_symbol
 _atom_site_label
 _atom_site_symmetry_multiplicity
 _atom_site_fract_x
 _atom_site_fract_y
 _atom_site_fract_z
 _atom_site_occupancy
  Ba  Ba0  1  0.666667  0.333333  0.982640  1
  Ba  Ba1  1  0.333333  0.666667  0.482640  1
  Er  Er2  1  0.666667  0.333333  0.633137  1
  Er  Er3  1  0.333333  0.666667  0.133137  1
  Zn  Zn4  1  0.172018  0.827982  0.816827  1
  Zn  Zn5  1  0.655964  0.827982  0.816827  1
  Zn  Zn6  1  0.172018  0.344036  0.816827  1
  Zn  Zn7  1  0.827982  0.172018  0.316827  1
  Zn  Zn8  1  0.344036  0.172018  0.316827  1
  Zn  Zn9  1  0.827982  0.655964  0.316827  1
  Fe  Fe10  1  0.000000  0.000000  0.067593  1
  Fe  Fe11  1  0.000000  0.000000  0.567593  1
  O  O12  1  0.507831  0.492169  0.763906  1
  O  O13  1  0.984340  0.492169  0.763906  1
  O  O14  1  0.507831  0.015660  0.763906  1
  O  O15  1  0.492169  0.507831  0.263906  1
  O  O16  1  0.015660  0.507831  0.263906  1
  O  O17  1  0.492169  0.984340  0.263906  1
  O  O18  1  0.162264  0.837736  0.010168  1
  O  O19  1  0.675473  0.837736  0.010168  1
  O  O20  1  0.162264  0.324527  0.010168  1
  O  O21  1  0.837736  0.162264  0.510168  1
  O  O22  1  0.324527  0.162264  0.510168  1
  O  O23  1  0.837736  0.675473  0.510168  1
  O  O24  1  0.000000  0.000000  0.252927  1
  O  O25  1  0.000000  0.000000  0.752927  1
