# generated using pymatgen
data_Ho12FeCo3SnIr
_symmetry_space_group_name_H-M   'P 1'
_cell_length_a   8.26621931
_cell_length_b   8.26622133
_cell_length_c   8.26524400
_cell_angle_alpha   111.65952263
_cell_angle_beta   110.67397247
_cell_angle_gamma   106.13761058
_symmetry_Int_Tables_number   1
_chemical_formula_structural   Ho12FeCo3SnIr
_chemical_formula_sum   'Ho12 Fe1 Co3 Sn1 Ir1'
_cell_volume   433.59942761
_cell_formula_units_Z   1
loop_
 _symmetry_equiv_pos_site_id
 _symmetry_equiv_pos_as_xyz
  1  'x, y, z'
loop_
 _atom_site_type_symbol
 _atom_site_label
 _atom_site_symmetry_multiplicity
 _atom_site_fract_x
 _atom_site_fract_y
 _atom_site_fract_z
 _atom_site_occupancy
  Ho  Ho0  1  0.410561  0.213795  0.196581  1
  Ho  Ho1  1  0.588598  0.785028  0.803557  1
  Ho  Ho2  1  0.018528  0.214959  0.803557  1
  Ho  Ho3  1  0.982786  0.786020  0.196581  1
  Ho  Ho4  1  0.184733  0.285169  0.469901  1
  Ho  Ho5  1  0.814191  0.713015  0.527208  1
  Ho  Ho6  1  0.184519  0.714566  0.899085  1
  Ho  Ho7  1  0.814297  0.286786  0.101085  1
  Ho  Ho8  1  0.311519  0.618856  0.303635  1
  Ho  Ho9  1  0.684807  0.381404  0.692632  1
  Ho  Ho10  1  0.311228  0.007825  0.692632  1
  Ho  Ho11  1  0.684779  0.992117  0.303635  1
  Fe  Fe12  1  0.389052  0.001130  0.390181  1
  Co  Co13  1  0.625231  0.999763  0.624995  1
  Co  Co14  1  0.109636  0.610895  0.498485  1
  Co  Co15  1  0.887590  0.388848  0.498485  1
  Sn  Sn16  1  0.498840  0.499436  0.998276  1
  Ir  Ir17  1  0.999105  0.000387  0.999492  1
