# generated using pymatgen
data_La3ThRe16Si7Ge
_symmetry_space_group_name_H-M   'P 1'
_cell_length_a   4.18788300
_cell_length_b   7.36220317
_cell_length_c   15.70306239
_cell_angle_alpha   89.89425495
_cell_angle_beta   90.00000000
_cell_angle_gamma   90.00000000
_symmetry_Int_Tables_number   1
_chemical_formula_structural   La3ThRe16Si7Ge
_chemical_formula_sum   'La3 Th1 Re16 Si7 Ge1'
_cell_volume   484.15670911
_cell_formula_units_Z   1
loop_
 _symmetry_equiv_pos_site_id
 _symmetry_equiv_pos_as_xyz
  1  'x, y, z'
loop_
 _atom_site_type_symbol
 _atom_site_label
 _atom_site_symmetry_multiplicity
 _atom_site_fract_x
 _atom_site_fract_y
 _atom_site_fract_z
 _atom_site_occupancy
  La  La0  1  0.000000  0.583006  0.117700  1
  La  La1  1  0.500000  0.086994  0.380992  1
  La  La2  1  0.500000  0.916682  0.619515  1
  Th  Th3  1  0.000000  0.414590  0.882399  1
  Re  Re4  1  0.000000  0.137359  0.050265  1
  Re  Re5  1  0.000000  0.859611  0.947445  1
  Re  Re6  1  0.500000  0.632628  0.446987  1
  Re  Re7  1  0.500000  0.363178  0.552870  1
  Re  Re8  1  0.000000  0.734925  0.318879  1
  Re  Re9  1  0.000000  0.264377  0.680970  1
  Re  Re10  1  0.500000  0.235661  0.178820  1
  Re  Re11  1  0.500000  0.760089  0.821377  1
  Re  Re12  1  0.000000  0.434401  0.418864  1
  Re  Re13  1  0.000000  0.562311  0.581544  1
  Re  Re14  1  0.500000  0.935491  0.080238  1
  Re  Re15  1  0.500000  0.067406  0.918947  1
  Re  Re16  1  0.000000  0.998414  0.206017  1
  Re  Re17  1  0.000000  0.001406  0.794324  1
  Re  Re18  1  0.500000  0.497613  0.292186  1
  Re  Re19  1  0.500000  0.500174  0.708248  1
  Si  Si20  1  0.000000  0.180851  0.526596  1
  Si  Si21  1  0.500000  0.324933  0.025022  1
  Si  Si22  1  0.500000  0.673801  0.974973  1
  Si  Si23  1  0.000000  0.300851  0.273011  1
  Si  Si24  1  0.000000  0.699466  0.726602  1
  Si  Si25  1  0.500000  0.800129  0.225488  1
  Si  Si26  1  0.500000  0.197224  0.773761  1
  Ge  Ge27  1  0.000000  0.836433  0.475959  1
