# generated using pymatgen
data_Ho6Zn17PIr6
_symmetry_space_group_name_H-M   'P 1'
_cell_length_a   8.96147901
_cell_length_b   8.96201690
_cell_length_c   8.96164000
_cell_angle_alpha   59.99588397
_cell_angle_beta   59.99868961
_cell_angle_gamma   59.99282793
_symmetry_Int_Tables_number   1
_chemical_formula_structural   Ho6Zn17PIr6
_chemical_formula_sum   'Ho6 Zn17 P1 Ir6'
_cell_volume   508.88141558
_cell_formula_units_Z   1
loop_
 _symmetry_equiv_pos_site_id
 _symmetry_equiv_pos_as_xyz
  1  'x, y, z'
loop_
 _atom_site_type_symbol
 _atom_site_label
 _atom_site_symmetry_multiplicity
 _atom_site_fract_x
 _atom_site_fract_y
 _atom_site_fract_z
 _atom_site_occupancy
  Ho  Ho0  1  0.718112  0.281867  0.281832  1
  Ho  Ho1  1  0.718123  0.281862  0.718196  1
  Ho  Ho2  1  0.718146  0.718188  0.281831  1
  Ho  Ho3  1  0.281888  0.718133  0.718168  1
  Ho  Ho4  1  0.281877  0.718138  0.281804  1
  Ho  Ho5  1  0.281854  0.281812  0.718169  1
  Zn  Zn6  1  0.625565  0.124808  0.124808  1
  Zn  Zn7  1  0.124811  0.625564  0.124813  1
  Zn  Zn8  1  0.124807  0.124813  0.625582  1
  Zn  Zn9  1  0.124816  0.124811  0.124799  1
  Zn  Zn10  1  0.374435  0.875192  0.875192  1
  Zn  Zn11  1  0.875189  0.374436  0.875187  1
  Zn  Zn12  1  0.875193  0.875187  0.374418  1
  Zn  Zn13  1  0.875184  0.875189  0.875201  1
  Zn  Zn14  1  0.000000  0.000000  0.000000  1
  Zn  Zn15  1  0.005330  0.331561  0.331555  1
  Zn  Zn16  1  0.331563  0.005323  0.331557  1
  Zn  Zn17  1  0.331582  0.331577  0.005299  1
  Zn  Zn18  1  0.331582  0.331568  0.331548  1
  Zn  Zn19  1  0.994670  0.668439  0.668445  1
  Zn  Zn20  1  0.668437  0.994677  0.668443  1
  Zn  Zn21  1  0.668418  0.668423  0.994701  1
  Zn  Zn22  1  0.668418  0.668432  0.668452  1
  P  P23  1  0.500000  0.500000  0.500000  1
  Ir  Ir24  1  0.500000  0.000000  0.000000  1
  Ir  Ir25  1  0.500000  0.000000  0.500000  1
  Ir  Ir26  1  0.500000  0.500000  0.000000  1
  Ir  Ir27  1  0.000000  0.500000  0.500000  1
  Ir  Ir28  1  0.000000  0.500000  0.000000  1
  Ir  Ir29  1  0.000000  0.000000  0.500000  1
