# generated using pymatgen
data_TbZr2Al7Pd2
_symmetry_space_group_name_H-M   'P 1'
_cell_length_a   9.02445459
_cell_length_b   9.02445525
_cell_length_c   9.02445504
_cell_angle_alpha   34.73598400
_cell_angle_beta   34.73598592
_cell_angle_gamma   34.73599070
_symmetry_Int_Tables_number   1
_chemical_formula_structural   TbZr2Al7Pd2
_chemical_formula_sum   'Tb1 Zr2 Al7 Pd2'
_cell_volume   212.96076924
_cell_formula_units_Z   1
loop_
 _symmetry_equiv_pos_site_id
 _symmetry_equiv_pos_as_xyz
  1  'x, y, z'
loop_
 _atom_site_type_symbol
 _atom_site_label
 _atom_site_symmetry_multiplicity
 _atom_site_fract_x
 _atom_site_fract_y
 _atom_site_fract_z
 _atom_site_occupancy
  Tb  Tb0  1  0.000000  0.000000  0.000000  1
  Zr  Zr1  1  0.144805  0.144805  0.144805  1
  Zr  Zr2  1  0.855195  0.855195  0.855195  1
  Al  Al3  1  0.586149  0.586149  0.075569  1
  Al  Al4  1  0.924431  0.413852  0.413851  1
  Al  Al5  1  0.413852  0.924431  0.413851  1
  Al  Al6  1  0.500000  0.500000  0.500000  1
  Al  Al7  1  0.586149  0.075569  0.586149  1
  Al  Al8  1  0.075569  0.586149  0.586149  1
  Al  Al9  1  0.413851  0.413851  0.924431  1
  Pd  Pd10  1  0.334928  0.334928  0.334928  1
  Pd  Pd11  1  0.665072  0.665072  0.665072  1
