# generated using pymatgen
data_Tm6Lu10CdIn3Ni4
_symmetry_space_group_name_H-M   'P 1'
_cell_length_a   9.39479651
_cell_length_b   9.38884459
_cell_length_c   9.38884500
_cell_angle_alpha   60.00000209
_cell_angle_beta   60.02095697
_cell_angle_gamma   60.02095791
_symmetry_Int_Tables_number   1
_chemical_formula_structural   Tm6Lu10CdIn3Ni4
_chemical_formula_sum   'Tm6 Lu10 Cd1 In3 Ni4'
_cell_volume   585.77954996
_cell_formula_units_Z   1
loop_
 _symmetry_equiv_pos_site_id
 _symmetry_equiv_pos_as_xyz
  1  'x, y, z'
loop_
 _atom_site_type_symbol
 _atom_site_label
 _atom_site_symmetry_multiplicity
 _atom_site_fract_x
 _atom_site_fract_y
 _atom_site_fract_z
 _atom_site_occupancy
  Tm  Tm0  1  0.938805  0.562823  0.562823  1
  Tm  Tm1  1  0.563928  0.937053  0.937053  1
  Tm  Tm2  1  0.563928  0.937053  0.561965  1
  Tm  Tm3  1  0.938805  0.562823  0.935549  1
  Tm  Tm4  1  0.563928  0.561965  0.937053  1
  Tm  Tm5  1  0.938805  0.935549  0.562823  1
  Lu  Lu6  1  0.347472  0.347696  0.347696  1
  Lu  Lu7  1  0.347472  0.347696  0.957136  1
  Lu  Lu8  1  0.347472  0.957136  0.347696  1
  Lu  Lu9  1  0.956022  0.347992  0.347992  1
  Lu  Lu10  1  0.811956  0.187827  0.187827  1
  Lu  Lu11  1  0.187385  0.812897  0.812897  1
  Lu  Lu12  1  0.187385  0.812897  0.186823  1
  Lu  Lu13  1  0.811956  0.187827  0.812390  1
  Lu  Lu14  1  0.187385  0.186823  0.812897  1
  Lu  Lu15  1  0.811956  0.812390  0.187827  1
  Cd  Cd16  1  0.251861  0.582714  0.582714  1
  In  In17  1  0.581406  0.583186  0.583186  1
  In  In18  1  0.581406  0.583186  0.252221  1
  In  In19  1  0.581406  0.252221  0.583186  1
  Ni  Ni20  1  0.142278  0.142135  0.142135  1
  Ni  Ni21  1  0.142278  0.142135  0.573451  1
  Ni  Ni22  1  0.142278  0.573451  0.142135  1
  Ni  Ni23  1  0.572428  0.142524  0.142524  1
