# generated using pymatgen
data_NaTa9Se16
_symmetry_space_group_name_H-M   'P 1'
_cell_length_a   7.00812406
_cell_length_b   7.01076426
_cell_length_c   14.35598500
_cell_angle_alpha   89.99597911
_cell_angle_beta   90.00766873
_cell_angle_gamma   119.97661738
_symmetry_Int_Tables_number   1
_chemical_formula_structural   NaTa9Se16
_chemical_formula_sum   'Na1 Ta9 Se16'
_cell_volume   610.98851772
_cell_formula_units_Z   1
loop_
 _symmetry_equiv_pos_site_id
 _symmetry_equiv_pos_as_xyz
  1  'x, y, z'
loop_
 _atom_site_type_symbol
 _atom_site_label
 _atom_site_symmetry_multiplicity
 _atom_site_fract_x
 _atom_site_fract_y
 _atom_site_fract_z
 _atom_site_occupancy
  Na  Na0  1  0.000000  0.000000  0.500000  1
  Ta  Ta1  1  0.506924  0.493032  0.771186  1
  Ta  Ta2  1  0.014316  0.507190  0.228552  1
  Ta  Ta3  1  0.492744  0.985538  0.228515  1
  Ta  Ta4  1  0.507256  0.014462  0.771485  1
  Ta  Ta5  1  0.985684  0.492810  0.771448  1
  Ta  Ta6  1  0.493076  0.506968  0.228814  1
  Ta  Ta7  1  0.999827  0.000274  0.771255  1
  Ta  Ta8  1  0.000173  0.999726  0.228745  1
  Ta  Ta9  1  0.000000  0.000000  0.000000  1
  Se  Se10  1  0.832170  0.167855  0.343129  1
  Se  Se11  1  0.832082  0.664003  0.343386  1
  Se  Se12  1  0.336065  0.167980  0.343343  1
  Se  Se13  1  0.663639  0.831495  0.887686  1
  Se  Se14  1  0.167918  0.335997  0.656614  1
  Se  Se15  1  0.167835  0.832110  0.887699  1
  Se  Se16  1  0.168492  0.336406  0.887716  1
  Se  Se17  1  0.832165  0.167890  0.112301  1
  Se  Se18  1  0.336361  0.168505  0.112314  1
  Se  Se19  1  0.663935  0.832020  0.656657  1
  Se  Se20  1  0.333388  0.666520  0.109236  1
  Se  Se21  1  0.666655  0.333325  0.651161  1
  Se  Se22  1  0.666612  0.333480  0.890764  1
  Se  Se23  1  0.333345  0.666675  0.348839  1
  Se  Se24  1  0.831508  0.663594  0.112284  1
  Se  Se25  1  0.167830  0.832145  0.656871  1
