# generated using pymatgen
data_Y11In9CuAu3
_symmetry_space_group_name_H-M   'P 1'
_cell_length_a   13.23682261
_cell_length_b   13.26721489
_cell_length_c   3.69917200
_cell_angle_alpha   90.00000000
_cell_angle_beta   90.00000000
_cell_angle_gamma   110.76696565
_symmetry_Int_Tables_number   1
_chemical_formula_structural   Y11In9CuAu3
_chemical_formula_sum   'Y11 In9 Cu1 Au3'
_cell_volume   607.42645660
_cell_formula_units_Z   1
loop_
 _symmetry_equiv_pos_site_id
 _symmetry_equiv_pos_as_xyz
  1  'x, y, z'
loop_
 _atom_site_type_symbol
 _atom_site_label
 _atom_site_symmetry_multiplicity
 _atom_site_fract_x
 _atom_site_fract_y
 _atom_site_fract_z
 _atom_site_occupancy
  Y  Y0  1  0.068663  0.416645  0.000000  1
  Y  Y1  1  0.932799  0.584648  0.000000  1
  Y  Y2  1  0.415446  0.065575  0.000000  1
  Y  Y3  1  0.581983  0.926040  0.000000  1
  Y  Y4  1  0.633056  0.367136  0.000000  1
  Y  Y5  1  0.372865  0.635673  0.000000  1
  Y  Y6  1  0.839702  0.159565  0.000000  1
  Y  Y7  1  0.159966  0.840132  0.000000  1
  Y  Y8  1  0.998415  0.999579  0.000000  1
  Y  Y9  1  0.305458  0.304680  0.000000  1
  Y  Y10  1  0.690779  0.698775  0.000000  1
  In  In11  1  0.846504  0.367221  0.500000  1
  In  In12  1  0.156349  0.634345  0.500000  1
  In  In13  1  0.368781  0.842476  0.500000  1
  In  In14  1  0.632682  0.152229  0.500000  1
  In  In15  1  0.067690  0.214744  0.500000  1
  In  In16  1  0.929868  0.785097  0.500000  1
  In  In17  1  0.214522  0.067424  0.500000  1
  In  In18  1  0.782020  0.930588  0.500000  1
  In  In19  1  0.501201  0.502987  0.500000  1
  Cu  Cu20  1  0.547336  0.750765  0.500000  1
  Au  Au21  1  0.252650  0.454461  0.500000  1
  Au  Au22  1  0.748812  0.550042  0.500000  1
  Au  Au23  1  0.452451  0.249176  0.500000  1
