# generated using pymatgen
data_Tb4PdRh3O14
_symmetry_space_group_name_H-M   'P 1'
_cell_length_a   7.27727297
_cell_length_b   7.27727359
_cell_length_c   7.25208016
_cell_angle_alpha   59.88501531
_cell_angle_beta   59.88501493
_cell_angle_gamma   59.99999950
_symmetry_Int_Tables_number   1
_chemical_formula_structural   Tb4PdRh3O14
_chemical_formula_sum   'Tb4 Pd1 Rh3 O14'
_cell_volume   271.09903489
_cell_formula_units_Z   1
loop_
 _symmetry_equiv_pos_site_id
 _symmetry_equiv_pos_as_xyz
  1  'x, y, z'
loop_
 _atom_site_type_symbol
 _atom_site_label
 _atom_site_symmetry_multiplicity
 _atom_site_fract_x
 _atom_site_fract_y
 _atom_site_fract_z
 _atom_site_occupancy
  Tb  Tb0  1  0.625000  0.625000  0.125000  1
  Tb  Tb1  1  0.625000  0.625000  0.625000  1
  Tb  Tb2  1  0.625000  0.125000  0.625000  1
  Tb  Tb3  1  0.125000  0.625000  0.625000  1
  Pd  Pd4  1  0.125000  0.125000  0.625000  1
  Rh  Rh5  1  0.125000  0.125000  0.125000  1
  Rh  Rh6  1  0.625000  0.125000  0.125000  1
  Rh  Rh7  1  0.125000  0.625000  0.125000  1
  O  O8  1  0.035912  0.465371  0.462806  1
  O  O9  1  0.789634  0.789634  0.208689  1
  O  O10  1  0.789634  0.212043  0.208689  1
  O  O11  1  0.465371  0.035912  0.462806  1
  O  O12  1  0.037957  0.460366  0.041311  1
  O  O13  1  0.750025  0.750025  0.749925  1
  O  O14  1  0.035912  0.035912  0.462806  1
  O  O15  1  0.212043  0.789634  0.208689  1
  O  O16  1  0.214088  0.214088  0.787194  1
  O  O17  1  0.499975  0.499975  0.500075  1
  O  O18  1  0.784629  0.214088  0.787194  1
  O  O19  1  0.460366  0.037957  0.041311  1
  O  O20  1  0.460366  0.460366  0.041311  1
  O  O21  1  0.214088  0.784629  0.787194  1
