# generated using pymatgen
data_Nb9Ga6ReB2
_symmetry_space_group_name_H-M   'P 1'
_cell_length_a   7.79747900
_cell_length_b   7.79747934
_cell_length_c   5.31721200
_cell_angle_alpha   90.00000000
_cell_angle_beta   90.00000000
_cell_angle_gamma   120.00000281
_symmetry_Int_Tables_number   1
_chemical_formula_structural   Nb9Ga6ReB2
_chemical_formula_sum   'Nb9 Ga6 Re1 B2'
_cell_volume   279.97744242
_cell_formula_units_Z   1
loop_
 _symmetry_equiv_pos_site_id
 _symmetry_equiv_pos_as_xyz
  1  'x, y, z'
loop_
 _atom_site_type_symbol
 _atom_site_label
 _atom_site_symmetry_multiplicity
 _atom_site_fract_x
 _atom_site_fract_y
 _atom_site_fract_z
 _atom_site_occupancy
  Nb  Nb0  1  0.243849  0.002023  0.253117  1
  Nb  Nb1  1  0.758174  0.002023  0.746883  1
  Nb  Nb2  1  0.997977  0.241826  0.253117  1
  Nb  Nb3  1  0.997977  0.756151  0.746883  1
  Nb  Nb4  1  0.758174  0.756151  0.253117  1
  Nb  Nb5  1  0.243849  0.241826  0.746883  1
  Nb  Nb6  1  0.666667  0.333333  0.000000  1
  Nb  Nb7  1  0.666667  0.333333  0.500000  1
  Nb  Nb8  1  0.333333  0.666667  0.500000  1
  Ga  Ga9  1  0.596197  0.996721  0.243613  1
  Ga  Ga10  1  0.400524  0.996721  0.756387  1
  Ga  Ga11  1  0.003279  0.599476  0.243613  1
  Ga  Ga12  1  0.003279  0.403803  0.756387  1
  Ga  Ga13  1  0.400524  0.403803  0.243613  1
  Ga  Ga14  1  0.596197  0.599476  0.756387  1
  Re  Re15  1  0.333333  0.666667  0.000000  1
  B  B16  1  0.000000  0.000000  0.000000  1
  B  B17  1  0.000000  0.000000  0.500000  1
