# generated using pymatgen
data_YbEu3SnSb3O14
_symmetry_space_group_name_H-M   'P 1'
_cell_length_a   7.54183191
_cell_length_b   7.53383150
_cell_length_c   7.54183300
_cell_angle_alpha   59.96486499
_cell_angle_beta   59.99999961
_cell_angle_gamma   59.96486766
_symmetry_Int_Tables_number   1
_chemical_formula_structural   YbEu3SnSb3O14
_chemical_formula_sum   'Yb1 Eu3 Sn1 Sb3 O14'
_cell_volume   302.84738615
_cell_formula_units_Z   1
loop_
 _symmetry_equiv_pos_site_id
 _symmetry_equiv_pos_as_xyz
  1  'x, y, z'
loop_
 _atom_site_type_symbol
 _atom_site_label
 _atom_site_symmetry_multiplicity
 _atom_site_fract_x
 _atom_site_fract_y
 _atom_site_fract_z
 _atom_site_occupancy
  Yb  Yb0  1  0.625000  0.125000  0.625000  1
  Eu  Eu1  1  0.625000  0.625000  0.125000  1
  Eu  Eu2  1  0.125000  0.625000  0.625000  1
  Eu  Eu3  1  0.625000  0.625000  0.625000  1
  Sn  Sn4  1  0.125000  0.625000  0.125000  1
  Sb  Sb5  1  0.125000  0.125000  0.625000  1
  Sb  Sb6  1  0.625000  0.125000  0.125000  1
  Sb  Sb7  1  0.125000  0.125000  0.125000  1
  O  O8  1  0.748316  0.755053  0.748316  1
  O  O9  1  0.501684  0.494947  0.501684  1
  O  O10  1  0.046587  0.447594  0.046587  1
  O  O11  1  0.801108  0.193565  0.801108  1
  O  O12  1  0.045780  0.056435  0.448892  1
  O  O13  1  0.448892  0.056435  0.045780  1
  O  O14  1  0.046587  0.447594  0.459231  1
  O  O15  1  0.459231  0.447594  0.046587  1
  O  O16  1  0.448892  0.056435  0.448892  1
  O  O17  1  0.203413  0.802406  0.790769  1
  O  O18  1  0.801108  0.193565  0.204220  1
  O  O19  1  0.203413  0.802406  0.203413  1
  O  O20  1  0.790769  0.802406  0.203413  1
  O  O21  1  0.204220  0.193565  0.801108  1
