# generated using pymatgen
data_Ba6Tb(LuS4)3
_symmetry_space_group_name_H-M   'P 1'
_cell_length_a   8.48137915
_cell_length_b   8.48137783
_cell_length_c   8.48137796
_cell_angle_alpha   92.75661052
_cell_angle_beta   92.75660881
_cell_angle_gamma   92.75662201
_symmetry_Int_Tables_number   1
_chemical_formula_structural   Ba6Tb(LuS4)3
_chemical_formula_sum   'Ba6 Tb1 Lu3 S12'
_cell_volume   607.90908093
_cell_formula_units_Z   1
loop_
 _symmetry_equiv_pos_site_id
 _symmetry_equiv_pos_as_xyz
  1  'x, y, z'
loop_
 _atom_site_type_symbol
 _atom_site_label
 _atom_site_symmetry_multiplicity
 _atom_site_fract_x
 _atom_site_fract_y
 _atom_site_fract_z
 _atom_site_occupancy
  Ba  Ba0  1  0.371879  0.750000  0.128121  1
  Ba  Ba1  1  0.128121  0.371879  0.750000  1
  Ba  Ba2  1  0.750000  0.128121  0.371879  1
  Ba  Ba3  1  0.628465  0.250000  0.871535  1
  Ba  Ba4  1  0.871535  0.628465  0.250000  1
  Ba  Ba5  1  0.250000  0.871535  0.628465  1
  Tb  Tb6  1  0.250000  0.250000  0.250000  1
  Lu  Lu7  1  0.501217  0.501217  0.501217  1
  Lu  Lu8  1  0.998783  0.998783  0.998783  1
  Lu  Lu9  1  0.750000  0.750000  0.750000  1
  S  S10  1  0.538491  0.408581  0.200481  1
  S  S11  1  0.200481  0.538491  0.408581  1
  S  S12  1  0.408581  0.200481  0.538491  1
  S  S13  1  0.961509  0.299519  0.091419  1
  S  S14  1  0.091419  0.961509  0.299519  1
  S  S15  1  0.299519  0.091419  0.961509  1
  S  S16  1  0.466164  0.594549  0.800746  1
  S  S17  1  0.800746  0.466164  0.594549  1
  S  S18  1  0.594549  0.800746  0.466164  1
  S  S19  1  0.033836  0.699254  0.905451  1
  S  S20  1  0.699254  0.905451  0.033836  1
  S  S21  1  0.905451  0.033836  0.699254  1
