# generated using pymatgen
data_Li12Pr11Fe(WO6)8
_symmetry_space_group_name_H-M   'P 1'
_cell_length_a   11.00701029
_cell_length_b   10.91224556
_cell_length_c   10.91224642
_cell_angle_alpha   109.25048827
_cell_angle_beta   109.40632462
_cell_angle_gamma   109.40631114
_symmetry_Int_Tables_number   1
_chemical_formula_structural   Li12Pr11Fe(WO6)8
_chemical_formula_sum   'Li12 Pr11 Fe1 W8 O48'
_cell_volume   1013.30375318
_cell_formula_units_Z   1
loop_
 _symmetry_equiv_pos_site_id
 _symmetry_equiv_pos_as_xyz
  1  'x, y, z'
loop_
 _atom_site_type_symbol
 _atom_site_label
 _atom_site_symmetry_multiplicity
 _atom_site_fract_x
 _atom_site_fract_y
 _atom_site_fract_z
 _atom_site_occupancy
  Li  Li0  1  0.250000  0.876019  0.126019  1
  Li  Li1  1  0.366743  0.248846  0.125922  1
  Li  Li2  1  0.133258  0.374079  0.251155  1
  Li  Li3  1  0.625361  0.874966  0.247482  1
  Li  Li4  1  0.133257  0.759179  0.382101  1
  Li  Li5  1  0.750001  0.614160  0.364160  1
  Li  Li6  1  0.250000  0.373981  0.623981  1
  Li  Li7  1  0.874641  0.252519  0.625036  1
  Li  Li8  1  0.366743  0.117899  0.740821  1
  Li  Li9  1  0.874640  0.622121  0.749606  1
  Li  Li10  1  0.625359  0.750394  0.877879  1
  Li  Li11  1  0.749999  0.135841  0.885841  1
  Pr  Pr12  1  0.873925  0.745431  0.126206  1
  Pr  Pr13  1  0.378549  0.625627  0.251235  1
  Pr  Pr14  1  0.873925  0.128494  0.247720  1
  Pr  Pr15  1  0.250000  0.125000  0.375000  1
  Pr  Pr16  1  0.626075  0.252280  0.371506  1
  Pr  Pr17  1  0.750000  0.875000  0.625000  1
  Pr  Pr18  1  0.378550  0.752923  0.627317  1
  Pr  Pr19  1  0.121451  0.872683  0.747077  1
  Pr  Pr20  1  0.626076  0.373794  0.754570  1
  Pr  Pr21  1  0.250000  0.625000  0.875000  1
  Pr  Pr22  1  0.121451  0.248766  0.874374  1
  Fe  Fe23  1  0.750000  0.374999  0.124999  1
  W  W24  1  0.997701  0.998004  0.999551  1
  W  W25  1  0.495745  0.006917  0.001377  1
  W  W26  1  0.495745  0.488827  0.994369  1
  W  W27  1  0.004254  0.505631  0.011172  1
  W  W28  1  0.997701  0.999697  0.498149  1
  W  W29  1  0.502298  0.001851  0.500303  1
  W  W30  1  0.004254  0.498624  0.493084  1
  W  W31  1  0.502300  0.500450  0.501997  1
  O  O32  1  0.826767  0.908577  0.023477  1
  O  O33  1  0.696897  0.152351  0.042839  1
  O  O34  1  0.196587  0.672065  0.079886  1
  O  O35  1  0.383363  0.406125  0.080220  1
  O  O36  1  0.485305  0.669290  0.095432  1
  O  O37  1  0.116637  0.419780  0.093874  1
  O  O38  1  0.503163  0.188266  0.111682  1
  O  O39  1  0.089490  0.916865  0.113665  1
  O  O40  1  0.996838  0.608521  0.185103  1
  O  O41  1  0.696897  0.544546  0.154059  1
  O  O42  1  0.080483  0.170301  0.194413  1
  O  O43  1  0.614268  0.024261  0.192488  1
  O  O44  1  0.826769  0.918191  0.303291  1
  O  O45  1  0.996837  0.388316  0.311733  1
  O  O46  1  0.410511  0.024174  0.327375  1
  O  O47  1  0.419517  0.305587  0.329699  1
  O  O48  1  0.080484  0.910183  0.386070  1
  O  O49  1  0.803103  0.457161  0.347650  1
  O  O50  1  0.332443  0.524924  0.410017  1
  O  O51  1  0.581386  0.885651  0.407920  1
  O  O52  1  0.594884  0.613136  0.419420  1
  O  O53  1  0.332444  0.807521  0.422427  1
  O  O54  1  0.089488  0.172624  0.475825  1
  O  O55  1  0.885732  0.307510  0.475739  1
  O  O56  1  0.116637  0.696858  0.522763  1
  O  O57  1  0.905116  0.824537  0.518251  1
  O  O58  1  0.410510  0.386335  0.583135  1
  O  O59  1  0.673232  0.196709  0.581811  1
  O  O60  1  0.673231  0.476523  0.591422  1
  O  O61  1  0.419516  0.113930  0.589818  1
  O  O62  1  0.196588  0.524523  0.616701  1
  O  O63  1  0.918614  0.092080  0.614350  1
  O  O64  1  0.581386  0.695735  0.673464  1
  O  O65  1  0.594885  0.981749  0.675464  1
  O  O66  1  0.167555  0.077572  0.692479  1
  O  O67  1  0.014695  0.610127  0.683988  1
  O  O68  1  0.383362  0.977237  0.803142  1
  O  O69  1  0.918614  0.826535  0.804264  1
  O  O70  1  0.303413  0.420114  0.827935  1
  O  O71  1  0.014696  0.404568  0.830710  1
  O  O72  1  0.485304  0.816012  0.889872  1
  O  O73  1  0.905115  0.080581  0.886865  1
  O  O74  1  0.503162  0.314896  0.891479  1
  O  O75  1  0.885732  0.578221  0.909993  1
  O  O76  1  0.614269  0.590009  0.921779  1
  O  O77  1  0.803103  0.345942  0.955454  1
  O  O78  1  0.303412  0.883299  0.975476  1
  O  O79  1  0.167555  0.089981  0.975076  1
