# generated using pymatgen
data_NaErCuPt3
_symmetry_space_group_name_H-M   'P 1'
_cell_length_a   5.19255099
_cell_length_b   5.19254941
_cell_length_c   5.19255019
_cell_angle_alpha   63.09315466
_cell_angle_beta   63.09316076
_cell_angle_gamma   63.09314807
_symmetry_Int_Tables_number   1
_chemical_formula_structural   NaErCuPt3
_chemical_formula_sum   'Na1 Er1 Cu1 Pt3'
_cell_volume   105.79140927
_cell_formula_units_Z   1
loop_
 _symmetry_equiv_pos_site_id
 _symmetry_equiv_pos_as_xyz
  1  'x, y, z'
loop_
 _atom_site_type_symbol
 _atom_site_label
 _atom_site_symmetry_multiplicity
 _atom_site_fract_x
 _atom_site_fract_y
 _atom_site_fract_z
 _atom_site_occupancy
  Na  Na0  1  0.250711  0.250711  0.250711  1
  Er  Er1  1  0.001281  0.001281  0.001281  1
  Cu  Cu2  1  0.624346  0.624346  0.624346  1
  Pt  Pt3  1  0.624133  0.624133  0.125396  1
  Pt  Pt4  1  0.624133  0.125396  0.624133  1
  Pt  Pt5  1  0.125396  0.624133  0.624133  1
