# generated using pymatgen
data_Ho10OsRuRh2
_symmetry_space_group_name_H-M   'P 1'
_cell_length_a   6.36287667
_cell_length_b   7.26260147
_cell_length_c   8.46834513
_cell_angle_alpha   96.81514712
_cell_angle_beta   112.07187219
_cell_angle_gamma   89.96176828
_symmetry_Int_Tables_number   1
_chemical_formula_structural   Ho10OsRuRh2
_chemical_formula_sum   'Ho10 Os1 Ru1 Rh2'
_cell_volume   359.67870201
_cell_formula_units_Z   1
loop_
 _symmetry_equiv_pos_site_id
 _symmetry_equiv_pos_as_xyz
  1  'x, y, z'
loop_
 _atom_site_type_symbol
 _atom_site_label
 _atom_site_symmetry_multiplicity
 _atom_site_fract_x
 _atom_site_fract_y
 _atom_site_fract_z
 _atom_site_occupancy
  Ho  Ho0  1  0.981059  0.917528  0.188050  1
  Ho  Ho1  1  0.791945  0.582240  0.812061  1
  Ho  Ho2  1  0.023545  0.084851  0.814222  1
  Ho  Ho3  1  0.209205  0.414463  0.183981  1
  Ho  Ho4  1  0.641692  0.816024  0.434216  1
  Ho  Ho5  1  0.207474  0.684139  0.565241  1
  Ho  Ho6  1  0.354831  0.187467  0.563793  1
  Ho  Ho7  1  0.794590  0.313284  0.438328  1
  Ho  Ho8  1  0.419711  0.749411  0.999680  1
  Ho  Ho9  1  0.575942  0.250754  0.999100  1
  Os  Os10  1  0.178436  0.424990  0.780197  1
  Ru  Ru11  1  0.396785  0.074594  0.220693  1
  Rh  Rh12  1  0.822869  0.576708  0.221484  1
  Rh  Rh13  1  0.601916  0.923548  0.778956  1
