# generated using pymatgen
data_Y2PaIn3Ir2
_symmetry_space_group_name_H-M   'P 1'
_cell_length_a   7.87679000
_cell_length_b   7.64284523
_cell_length_c   3.64346700
_cell_angle_alpha   90.00000000
_cell_angle_beta   90.00000000
_cell_angle_gamma   121.01784065
_symmetry_Int_Tables_number   1
_chemical_formula_structural   Y2PaIn3Ir2
_chemical_formula_sum   'Y2 Pa1 In3 Ir2'
_cell_volume   187.97646776
_cell_formula_units_Z   1
loop_
 _symmetry_equiv_pos_site_id
 _symmetry_equiv_pos_as_xyz
  1  'x, y, z'
loop_
 _atom_site_type_symbol
 _atom_site_label
 _atom_site_symmetry_multiplicity
 _atom_site_fract_x
 _atom_site_fract_y
 _atom_site_fract_z
 _atom_site_occupancy
  Y  Y0  1  0.421259  0.418233  0.499999  1
  Y  Y1  1  0.003026  0.581767  0.499999  1
  Pa  Pa2  1  0.565076  0.000000  0.499999  1
  In  In3  1  0.221564  0.000000  0.000000  1
  In  In4  1  0.001669  0.235139  0.000000  1
  In  In5  1  0.766531  0.764860  0.000000  1
  Ir  Ir6  1  0.661434  0.301992  0.000000  1
  Ir  Ir7  1  0.359442  0.698009  0.000000  1
