# generated using pymatgen
data_Dy6Er6Co4BiOs
_symmetry_space_group_name_H-M   'P 1'
_cell_length_a   8.28152078
_cell_length_b   8.27972723
_cell_length_c   8.27972696
_cell_angle_alpha   110.45799397
_cell_angle_beta   111.34715961
_cell_angle_gamma   106.63779723
_symmetry_Int_Tables_number   1
_chemical_formula_structural   Dy6Er6Co4BiOs
_chemical_formula_sum   'Dy6 Er6 Co4 Bi1 Os1'
_cell_volume   436.26256371
_cell_formula_units_Z   1
loop_
 _symmetry_equiv_pos_site_id
 _symmetry_equiv_pos_as_xyz
  1  'x, y, z'
loop_
 _atom_site_type_symbol
 _atom_site_label
 _atom_site_symmetry_multiplicity
 _atom_site_fract_x
 _atom_site_fract_y
 _atom_site_fract_z
 _atom_site_occupancy
  Dy  Dy0  1  0.280940  0.181022  0.462637  1
  Dy  Dy1  1  0.719060  0.818978  0.537363  1
  Dy  Dy2  1  0.280940  0.818303  0.099918  1
  Dy  Dy3  1  0.719060  0.181697  0.900082  1
  Dy  Dy4  1  0.620160  0.311636  0.308524  1
  Dy  Dy5  1  0.379840  0.688364  0.691476  1
  Er  Er6  1  0.002896  0.311608  0.691286  1
  Er  Er7  1  0.997104  0.688392  0.308714  1
  Er  Er8  1  0.213622  0.410632  0.196396  1
  Er  Er9  1  0.786378  0.589368  0.803604  1
  Er  Er10  1  0.213622  0.017226  0.802989  1
  Er  Er11  1  0.786378  0.982774  0.197011  1
  Co  Co12  1  0.000000  0.375565  0.375565  1
  Co  Co13  1  0.000000  0.624435  0.624435  1
  Co  Co14  1  0.388812  0.889004  0.499808  1
  Co  Co15  1  0.611188  0.110996  0.500192  1
  Bi  Bi16  1  0.500000  0.500000  0.000000  1
  Os  Os17  1  0.000000  0.000000  0.000000  1
