# generated using pymatgen
data_NdY5(CBr5)2
_symmetry_space_group_name_H-M   'P 1'
_cell_length_a   7.40033661
_cell_length_b   8.92782254
_cell_length_c   9.06939397
_cell_angle_alpha   107.14944898
_cell_angle_beta   96.14717562
_cell_angle_gamma   104.83348471
_symmetry_Int_Tables_number   1
_chemical_formula_structural   NdY5(CBr5)2
_chemical_formula_sum   'Nd1 Y5 C2 Br10'
_cell_volume   542.56309512
_cell_formula_units_Z   1
loop_
 _symmetry_equiv_pos_site_id
 _symmetry_equiv_pos_as_xyz
  1  'x, y, z'
loop_
 _atom_site_type_symbol
 _atom_site_label
 _atom_site_symmetry_multiplicity
 _atom_site_fract_x
 _atom_site_fract_y
 _atom_site_fract_z
 _atom_site_occupancy
  Nd  Nd0  1  0.885594  0.955007  0.233167  1
  Y  Y1  1  0.111616  0.043867  0.772790  1
  Y  Y2  1  0.027214  0.727860  0.918897  1
  Y  Y3  1  0.972609  0.272476  0.080655  1
  Y  Y4  1  0.616522  0.857416  0.810566  1
  Y  Y5  1  0.383520  0.143220  0.190285  1
  C  C6  1  0.906794  0.968847  0.953620  1
  C  C7  1  0.095762  0.032091  0.042050  1
  Br  Br8  1  0.752746  0.917563  0.545159  1
  Br  Br9  1  0.256790  0.085881  0.462646  1
  Br  Br10  1  0.450565  0.813888  0.084697  1
  Br  Br11  1  0.541115  0.182635  0.911072  1
  Br  Br12  1  0.802536  0.270487  0.348503  1
  Br  Br13  1  0.194431  0.740212  0.651684  1
  Br  Br14  1  0.913958  0.620204  0.168088  1
  Br  Br15  1  0.088677  0.368051  0.825384  1
  Br  Br16  1  0.660017  0.545184  0.726421  1
  Br  Br17  1  0.339536  0.455110  0.274314  1
