# generated using pymatgen
data_HoTmFe9Ni3P7
_symmetry_space_group_name_H-M   'P 1'
_cell_length_a   8.97842753
_cell_length_b   8.96992304
_cell_length_c   3.62024000
_cell_angle_alpha   90.00000000
_cell_angle_beta   90.00000000
_cell_angle_gamma   119.64437626
_symmetry_Int_Tables_number   1
_chemical_formula_structural   HoTmFe9Ni3P7
_chemical_formula_sum   'Ho1 Tm1 Fe9 Ni3 P7'
_cell_volume   253.39740299
_cell_formula_units_Z   1
loop_
 _symmetry_equiv_pos_site_id
 _symmetry_equiv_pos_as_xyz
  1  'x, y, z'
loop_
 _atom_site_type_symbol
 _atom_site_label
 _atom_site_symmetry_multiplicity
 _atom_site_fract_x
 _atom_site_fract_y
 _atom_site_fract_z
 _atom_site_occupancy
  Ho  Ho0  1  0.334698  0.669354  0.000000  1
  Tm  Tm1  1  0.997568  0.994827  0.500000  1
  Fe  Fe2  1  0.033775  0.762283  0.000000  1
  Fe  Fe3  1  0.943138  0.452893  0.000000  1
  Fe  Fe4  1  0.511706  0.062539  0.000000  1
  Fe  Fe5  1  0.546561  0.487405  0.000000  1
  Fe  Fe6  1  0.280771  0.900766  0.500000  1
  Fe  Fe7  1  0.618194  0.721181  0.500000  1
  Fe  Fe8  1  0.766006  0.206603  0.500000  1
  Fe  Fe9  1  0.451104  0.236954  0.500000  1
  Fe  Fe10  1  0.789161  0.553709  0.500000  1
  Ni  Ni11  1  0.727571  0.961885  0.000000  1
  Ni  Ni12  1  0.231958  0.269632  0.000000  1
  Ni  Ni13  1  0.105028  0.384801  0.500000  1
  P  P14  1  0.960104  0.219558  0.000000  1
  P  P15  1  0.253936  0.029797  0.000000  1
  P  P16  1  0.776880  0.737424  0.000000  1
  P  P17  1  0.066756  0.627727  0.500000  1
  P  P18  1  0.546982  0.931023  0.500000  1
  P  P19  1  0.388411  0.454217  0.500000  1
  P  P20  1  0.669696  0.335416  0.000000  1
