# generated using pymatgen
data_Dy2HoPaIn2Ir3
_symmetry_space_group_name_H-M   'P 1'
_cell_length_a   7.49121806
_cell_length_b   7.35793596
_cell_length_c   4.19429700
_cell_angle_alpha   90.00000000
_cell_angle_beta   90.00000000
_cell_angle_gamma   119.41317105
_symmetry_Int_Tables_number   1
_chemical_formula_structural   Dy2HoPaIn2Ir3
_chemical_formula_sum   'Dy2 Ho1 Pa1 In2 Ir3'
_cell_volume   201.38916659
_cell_formula_units_Z   1
loop_
 _symmetry_equiv_pos_site_id
 _symmetry_equiv_pos_as_xyz
  1  'x, y, z'
loop_
 _atom_site_type_symbol
 _atom_site_label
 _atom_site_symmetry_multiplicity
 _atom_site_fract_x
 _atom_site_fract_y
 _atom_site_fract_z
 _atom_site_occupancy
  Dy  Dy0  1  0.568058  0.592773  0.000000  1
  Dy  Dy1  1  0.431942  0.024715  0.000000  1
  Ho  Ho2  1  0.000000  0.376010  0.000000  1
  Pa  Pa3  1  0.000000  0.734182  0.500000  1
  In  In4  1  0.257488  0.256330  0.500000  1
  In  In5  1  0.742512  0.998844  0.500000  1
  Ir  Ir6  1  0.000000  0.982589  0.000000  1
  Ir  Ir7  1  0.683299  0.358926  0.500000  1
  Ir  Ir8  1  0.316701  0.675628  0.500000  1
