# generated using pymatgen
data_NbFe21B6W
_symmetry_space_group_name_H-M   'P 1'
_cell_length_a   7.52982605
_cell_length_b   7.52615918
_cell_length_c   7.53393483
_cell_angle_alpha   60.06974045
_cell_angle_beta   60.08392963
_cell_angle_gamma   60.04856183
_symmetry_Int_Tables_number   1
_chemical_formula_structural   NbFe21B6W
_chemical_formula_sum   'Nb1 Fe21 B6 W1'
_cell_volume   302.36261528
_cell_formula_units_Z   1
loop_
 _symmetry_equiv_pos_site_id
 _symmetry_equiv_pos_as_xyz
  1  'x, y, z'
loop_
 _atom_site_type_symbol
 _atom_site_label
 _atom_site_symmetry_multiplicity
 _atom_site_fract_x
 _atom_site_fract_y
 _atom_site_fract_z
 _atom_site_occupancy
  Nb  Nb0  1  0.749969  0.749974  0.749867  1
  Fe  Fe1  1  0.999996  0.000089  0.999958  1
  Fe  Fe2  1  0.615196  0.615066  0.154645  1
  Fe  Fe3  1  0.615177  0.154513  0.615252  1
  Fe  Fe4  1  0.154569  0.615070  0.615267  1
  Fe  Fe5  1  0.615182  0.615069  0.615248  1
  Fe  Fe6  1  0.381737  0.381786  0.854665  1
  Fe  Fe7  1  0.381757  0.854699  0.381718  1
  Fe  Fe8  1  0.854691  0.381792  0.381709  1
  Fe  Fe9  1  0.381739  0.381805  0.381695  1
  Fe  Fe10  1  0.000590  0.000688  0.341167  1
  Fe  Fe11  1  0.657569  0.000650  0.341207  1
  Fe  Fe12  1  0.000598  0.657557  0.341225  1
  Fe  Fe13  1  0.657620  0.341208  0.000542  1
  Fe  Fe14  1  0.000636  0.341164  0.000587  1
  Fe  Fe15  1  0.000558  0.341219  0.657621  1
  Fe  Fe16  1  0.341226  0.657581  0.000565  1
  Fe  Fe17  1  0.341232  0.000629  0.657587  1
  Fe  Fe18  1  0.341164  0.000697  0.000551  1
  Fe  Fe19  1  0.000517  0.000639  0.657620  1
  Fe  Fe20  1  0.000612  0.657615  0.000564  1
  Fe  Fe21  1  0.657628  0.000668  0.000502  1
  B  B22  1  0.725663  0.725570  0.274392  1
  B  B23  1  0.274359  0.725621  0.274362  1
  B  B24  1  0.725658  0.274368  0.274369  1
  B  B25  1  0.274371  0.274361  0.725677  1
  B  B26  1  0.725628  0.274358  0.725648  1
  B  B27  1  0.274372  0.725579  0.725692  1
  W  W28  1  0.249986  0.249968  0.250099  1
