# generated using pymatgen
data_Nd3Sm5(Tm3Sn4)4
_symmetry_space_group_name_H-M   'P 1'
_cell_length_a   8.04515682
_cell_length_b   8.20177115
_cell_length_c   15.45705356
_cell_angle_alpha   89.96930571
_cell_angle_beta   89.99796382
_cell_angle_gamma   89.94808525
_symmetry_Int_Tables_number   1
_chemical_formula_structural   Nd3Sm5(Tm3Sn4)4
_chemical_formula_sum   'Nd3 Sm5 Tm12 Sn16'
_cell_volume   1019.92592650
_cell_formula_units_Z   1
loop_
 _symmetry_equiv_pos_site_id
 _symmetry_equiv_pos_as_xyz
  1  'x, y, z'
loop_
 _atom_site_type_symbol
 _atom_site_label
 _atom_site_symmetry_multiplicity
 _atom_site_fract_x
 _atom_site_fract_y
 _atom_site_fract_z
 _atom_site_occupancy
  Nd  Nd0  1  0.514686  0.321906  0.904636  1
  Nd  Nd1  1  0.014661  0.177682  0.595615  1
  Nd  Nd2  1  0.485079  0.677876  0.403705  1
  Sm  Sm3  1  0.983644  0.822212  0.096317  1
  Sm  Sm4  1  0.483543  0.678972  0.096864  1
  Sm  Sm5  1  0.984165  0.821890  0.403327  1
  Sm  Sm6  1  0.516110  0.321650  0.596675  1
  Sm  Sm7  1  0.016645  0.177868  0.903406  1
  Tm  Tm8  1  0.361851  0.837145  0.876878  1
  Tm  Tm9  1  0.860807  0.663304  0.623723  1
  Tm  Tm10  1  0.639553  0.163121  0.376160  1
  Tm  Tm11  1  0.138913  0.336679  0.123701  1
  Tm  Tm12  1  0.639105  0.162737  0.123071  1
  Tm  Tm13  1  0.139833  0.337030  0.375957  1
  Tm  Tm14  1  0.360119  0.836777  0.623448  1
  Tm  Tm15  1  0.860948  0.663279  0.876522  1
  Tm  Tm16  1  0.193749  0.503939  0.750197  1
  Tm  Tm17  1  0.693977  0.996176  0.750265  1
  Tm  Tm18  1  0.806369  0.496094  0.249742  1
  Tm  Tm19  1  0.306086  0.003486  0.249587  1
  Sn  Sn20  1  0.301009  0.040058  0.042029  1
  Sn  Sn21  1  0.804135  0.458260  0.458300  1
  Sn  Sn22  1  0.695953  0.958109  0.541403  1
  Sn  Sn23  1  0.195721  0.542678  0.958951  1
  Sn  Sn24  1  0.699866  0.958232  0.958325  1
  Sn  Sn25  1  0.196838  0.540689  0.542231  1
  Sn  Sn26  1  0.303354  0.040637  0.457451  1
  Sn  Sn27  1  0.803380  0.460994  0.042849  1
  Sn  Sn28  1  0.559156  0.623807  0.749930  1
  Sn  Sn29  1  0.059416  0.876761  0.750392  1
  Sn  Sn30  1  0.441203  0.376050  0.249457  1
  Sn  Sn31  1  0.940944  0.123156  0.250004  1
  Sn  Sn32  1  0.325252  0.144809  0.749681  1
  Sn  Sn33  1  0.825067  0.354959  0.750355  1
  Sn  Sn34  1  0.675466  0.854849  0.249257  1
  Sn  Sn35  1  0.173399  0.646129  0.249589  1
