# generated using pymatgen
data_YRe2(TcGe)2
_symmetry_space_group_name_H-M   'P 1'
_cell_length_a   7.54560515
_cell_length_b   7.54560549
_cell_length_c   4.07158600
_cell_angle_alpha   90.00000000
_cell_angle_beta   90.00000000
_cell_angle_gamma   148.19511146
_symmetry_Int_Tables_number   1
_chemical_formula_structural   YRe2(TcGe)2
_chemical_formula_sum   'Y1 Re2 Tc2 Ge2'
_cell_volume   122.17595017
_cell_formula_units_Z   1
loop_
 _symmetry_equiv_pos_site_id
 _symmetry_equiv_pos_as_xyz
  1  'x, y, z'
loop_
 _atom_site_type_symbol
 _atom_site_label
 _atom_site_symmetry_multiplicity
 _atom_site_fract_x
 _atom_site_fract_y
 _atom_site_fract_z
 _atom_site_occupancy
  Y  Y0  1  0.000000  0.000000  0.000000  1
  Re  Re1  1  0.698087  0.301911  0.000000  1
  Re  Re2  1  0.301911  0.698087  0.000000  1
  Tc  Tc3  1  0.811536  0.188462  0.500000  1
  Tc  Tc4  1  0.188462  0.811536  0.500000  1
  Ge  Ge5  1  0.586628  0.413370  0.500000  1
  Ge  Ge6  1  0.413370  0.586628  0.500000  1
