# generated using pymatgen
data_HoTm3B12RuW
_symmetry_space_group_name_H-M   'P 1'
_cell_length_a   3.60021700
_cell_length_b   9.16756908
_cell_length_c   11.55981331
_cell_angle_alpha   89.77826199
_cell_angle_beta   90.00000000
_cell_angle_gamma   90.00000000
_symmetry_Int_Tables_number   1
_chemical_formula_structural   HoTm3B12RuW
_chemical_formula_sum   'Ho2 Tm6 B24 Ru2 W2'
_cell_volume   381.53153295
_cell_formula_units_Z   2
loop_
 _symmetry_equiv_pos_site_id
 _symmetry_equiv_pos_as_xyz
  1  'x, y, z'
loop_
 _atom_site_type_symbol
 _atom_site_label
 _atom_site_symmetry_multiplicity
 _atom_site_fract_x
 _atom_site_fract_y
 _atom_site_fract_z
 _atom_site_occupancy
  Ho  Ho0  1  0.000000  0.321153  0.413923  1
  Ho  Ho1  1  0.000000  0.678847  0.586077  1
  Tm  Tm2  1  0.000000  0.821392  0.086130  1
  Tm  Tm3  1  0.000000  0.178608  0.913870  1
  Tm  Tm4  1  0.000000  0.945318  0.370954  1
  Tm  Tm5  1  0.000000  0.054682  0.629046  1
  Tm  Tm6  1  0.000000  0.441556  0.127468  1
  Tm  Tm7  1  0.000000  0.558444  0.872532  1
  B  B8  1  0.500000  0.551203  0.434524  1
  B  B9  1  0.500000  0.448797  0.565476  1
  B  B10  1  0.500000  0.053651  0.066169  1
  B  B11  1  0.500000  0.946349  0.933831  1
  B  B12  1  0.500000  0.752498  0.421205  1
  B  B13  1  0.500000  0.247502  0.578795  1
  B  B14  1  0.500000  0.248511  0.080680  1
  B  B15  1  0.500000  0.751489  0.919320  1
  B  B16  1  0.500000  0.796496  0.262108  1
  B  B17  1  0.500000  0.203504  0.737892  1
  B  B18  1  0.500000  0.289921  0.233263  1
  B  B19  1  0.500000  0.710079  0.766737  1
  B  B20  1  0.500000  0.631974  0.180497  1
  B  B21  1  0.500000  0.368026  0.819503  1
  B  B22  1  0.500000  0.130158  0.313280  1
  B  B23  1  0.500000  0.869842  0.686720  1
  B  B24  1  0.500000  0.983262  0.210949  1
  B  B25  1  0.500000  0.016738  0.789051  1
  B  B26  1  0.500000  0.477080  0.285716  1
  B  B27  1  0.500000  0.522920  0.714284  1
  B  B28  1  0.500000  0.603300  0.027664  1
  B  B29  1  0.500000  0.396700  0.972336  1
  B  B30  1  0.500000  0.102054  0.470811  1
  B  B31  1  0.500000  0.897946  0.529189  1
  Ru  Ru32  1  0.000000  0.137802  0.177722  1
  Ru  Ru33  1  0.000000  0.862198  0.822278  1
  W  W34  1  0.000000  0.639186  0.318842  1
  W  W35  1  0.000000  0.360814  0.681158  1
