# generated using pymatgen
data_La7IrRh2
_symmetry_space_group_name_H-M   'P 1'
_cell_length_a   6.51073351
_cell_length_b   10.25535710
_cell_length_c   10.25535582
_cell_angle_alpha   119.91820365
_cell_angle_beta   89.96044360
_cell_angle_gamma   90.03955797
_symmetry_Int_Tables_number   1
_chemical_formula_structural   La7IrRh2
_chemical_formula_sum   'La14 Ir2 Rh4'
_cell_volume   593.49806154
_cell_formula_units_Z   2
loop_
 _symmetry_equiv_pos_site_id
 _symmetry_equiv_pos_as_xyz
  1  'x, y, z'
loop_
 _atom_site_type_symbol
 _atom_site_label
 _atom_site_symmetry_multiplicity
 _atom_site_fract_x
 _atom_site_fract_y
 _atom_site_fract_z
 _atom_site_occupancy
  La  La0  1  0.470333  0.333644  0.666356  1
  La  La1  1  0.969918  0.666651  0.333349  1
  La  La2  1  0.250272  0.125087  0.874913  1
  La  La3  1  0.250974  0.748965  0.874454  1
  La  La4  1  0.250974  0.125546  0.251035  1
  La  La5  1  0.749565  0.875141  0.124859  1
  La  La6  1  0.749797  0.250234  0.126148  1
  La  La7  1  0.749797  0.873852  0.749766  1
  La  La8  1  0.438543  0.539680  0.460320  1
  La  La9  1  0.437973  0.920276  0.459603  1
  La  La10  1  0.437973  0.540397  0.079724  1
  La  La11  1  0.936901  0.459953  0.540047  1
  La  La12  1  0.937623  0.079794  0.539454  1
  La  La13  1  0.937623  0.460546  0.920206  1
  Ir  Ir14  1  0.688304  0.622924  0.811459  1
  Ir  Ir15  1  0.688304  0.188541  0.377076  1
  Rh  Rh16  1  0.189583  0.810549  0.189451  1
  Rh  Rh17  1  0.189431  0.378144  0.188698  1
  Rh  Rh18  1  0.189431  0.811302  0.621856  1
  Rh  Rh19  1  0.688678  0.188774  0.811226  1
