# generated using pymatgen
data_Tb6Sc4SnBi5
_symmetry_space_group_name_H-M   'P 1'
_cell_length_a   8.99834745
_cell_length_b   8.99834791
_cell_length_c   6.22499500
_cell_angle_alpha   90.00000000
_cell_angle_beta   90.00000000
_cell_angle_gamma   119.96394788
_symmetry_Int_Tables_number   1
_chemical_formula_structural   Tb6Sc4SnBi5
_chemical_formula_sum   'Tb6 Sc4 Sn1 Bi5'
_cell_volume   436.66947634
_cell_formula_units_Z   1
loop_
 _symmetry_equiv_pos_site_id
 _symmetry_equiv_pos_as_xyz
  1  'x, y, z'
loop_
 _atom_site_type_symbol
 _atom_site_label
 _atom_site_symmetry_multiplicity
 _atom_site_fract_x
 _atom_site_fract_y
 _atom_site_fract_z
 _atom_site_occupancy
  Tb  Tb0  1  0.753137  0.753137  0.750000  1
  Tb  Tb1  1  0.244234  0.005589  0.750000  1
  Tb  Tb2  1  0.005589  0.244234  0.750000  1
  Tb  Tb3  1  0.244147  0.244147  0.250000  1
  Tb  Tb4  1  0.756943  0.999088  0.250000  1
  Tb  Tb5  1  0.999088  0.756943  0.250000  1
  Sc  Sc6  1  0.664402  0.333940  0.998381  1
  Sc  Sc7  1  0.333940  0.664402  0.998381  1
  Sc  Sc8  1  0.333940  0.664402  0.501619  1
  Sc  Sc9  1  0.664402  0.333940  0.501619  1
  Sn  Sn10  1  0.396944  0.396944  0.750000  1
  Bi  Bi11  1  0.605490  0.000910  0.750000  1
  Bi  Bi12  1  0.000910  0.605490  0.750000  1
  Bi  Bi13  1  0.602814  0.602814  0.250000  1
  Bi  Bi14  1  0.395106  0.998914  0.250000  1
  Bi  Bi15  1  0.998914  0.395106  0.250000  1
