# generated using pymatgen
data_Yb6Mn3Si24Ir5
_symmetry_space_group_name_H-M   'P 1'
_cell_length_a   10.11395077
_cell_length_b   10.11395027
_cell_length_c   8.16946700
_cell_angle_alpha   89.95758596
_cell_angle_beta   89.95759162
_cell_angle_gamma   132.39309433
_symmetry_Int_Tables_number   1
_chemical_formula_structural   Yb6Mn3Si24Ir5
_chemical_formula_sum   'Yb6 Mn3 Si24 Ir5'
_cell_volume   617.17264498
_cell_formula_units_Z   1
loop_
 _symmetry_equiv_pos_site_id
 _symmetry_equiv_pos_as_xyz
  1  'x, y, z'
loop_
 _atom_site_type_symbol
 _atom_site_label
 _atom_site_symmetry_multiplicity
 _atom_site_fract_x
 _atom_site_fract_y
 _atom_site_fract_z
 _atom_site_occupancy
  Yb  Yb0  1  0.998191  0.998191  0.001003  1
  Yb  Yb1  1  0.498917  0.498917  0.502240  1
  Yb  Yb2  1  0.002068  0.500824  0.249112  1
  Yb  Yb3  1  0.997985  0.498942  0.751145  1
  Yb  Yb4  1  0.498942  0.997985  0.751145  1
  Yb  Yb5  1  0.500824  0.002068  0.249112  1
  Mn  Mn6  1  0.876779  0.876779  0.622749  1
  Mn  Mn7  1  0.379027  0.379027  0.874765  1
  Mn  Mn8  1  0.625007  0.625007  0.120961  1
  Si  Si9  1  0.704632  0.297565  0.998796  1
  Si  Si10  1  0.297565  0.704632  0.998796  1
  Si  Si11  1  0.795942  0.203297  0.500382  1
  Si  Si12  1  0.203297  0.795942  0.500382  1
  Si  Si13  1  0.340711  0.340711  0.159341  1
  Si  Si14  1  0.668081  0.668081  0.831082  1
  Si  Si15  1  0.166717  0.166717  0.676100  1
  Si  Si16  1  0.824905  0.824905  0.333388  1
  Si  Si17  1  0.841406  0.613963  0.007682  1
  Si  Si18  1  0.160071  0.387141  0.990602  1
  Si  Si19  1  0.659131  0.886128  0.508974  1
  Si  Si20  1  0.111704  0.344056  0.498922  1
  Si  Si21  1  0.344056  0.111704  0.498922  1
  Si  Si22  1  0.886128  0.659131  0.508974  1
  Si  Si23  1  0.387141  0.160071  0.990602  1
  Si  Si24  1  0.613963  0.841406  0.007682  1
  Si  Si25  1  0.886831  0.119415  0.271809  1
  Si  Si26  1  0.103112  0.876346  0.727672  1
  Si  Si27  1  0.603577  0.376650  0.772579  1
  Si  Si28  1  0.624490  0.395984  0.226468  1
  Si  Si29  1  0.395984  0.624490  0.226468  1
  Si  Si30  1  0.376650  0.603577  0.772579  1
  Si  Si31  1  0.876346  0.103112  0.727672  1
  Si  Si32  1  0.119415  0.886831  0.271809  1
  Ir  Ir33  1  0.831475  0.169754  0.999282  1
  Ir  Ir34  1  0.169754  0.831475  0.999282  1
  Ir  Ir35  1  0.670011  0.331459  0.499414  1
  Ir  Ir36  1  0.331459  0.670011  0.499414  1
  Ir  Ir37  1  0.127705  0.127705  0.372691  1
