# generated using pymatgen
data_Ho4LuCoRu
_symmetry_space_group_name_H-M   'P 1'
_cell_length_a   6.26415577
_cell_length_b   7.09379052
_cell_length_c   8.46238574
_cell_angle_alpha   96.55994277
_cell_angle_beta   112.24408945
_cell_angle_gamma   89.65035416
_symmetry_Int_Tables_number   1
_chemical_formula_structural   Ho4LuCoRu
_chemical_formula_sum   'Ho8 Lu2 Co2 Ru2'
_cell_volume   345.49369366
_cell_formula_units_Z   2
loop_
 _symmetry_equiv_pos_site_id
 _symmetry_equiv_pos_as_xyz
  1  'x, y, z'
loop_
 _atom_site_type_symbol
 _atom_site_label
 _atom_site_symmetry_multiplicity
 _atom_site_fract_x
 _atom_site_fract_y
 _atom_site_fract_z
 _atom_site_occupancy
  Ho  Ho0  1  0.526204  0.088694  0.816438  1
  Ho  Ho1  1  0.473796  0.911306  0.183562  1
  Ho  Ho2  1  0.699631  0.417756  0.188176  1
  Ho  Ho3  1  0.300369  0.582244  0.811824  1
  Ho  Ho4  1  0.287916  0.319053  0.430664  1
  Ho  Ho5  1  0.712084  0.680947  0.569336  1
  Ho  Ho6  1  0.855801  0.186869  0.566307  1
  Ho  Ho7  1  0.144199  0.813131  0.433693  1
  Lu  Lu8  1  0.075729  0.258281  0.000142  1
  Lu  Lu9  1  0.924271  0.741719  0.999858  1
  Co  Co10  1  0.324193  0.576604  0.225620  1
  Co  Co11  1  0.675807  0.423396  0.774380  1
  Ru  Ru12  1  0.104882  0.926250  0.785838  1
  Ru  Ru13  1  0.895118  0.073750  0.214162  1
