# generated using pymatgen
data_Ba6TmZn(Ir2O9)2
_symmetry_space_group_name_H-M   'P 1'
_cell_length_a   5.88799500
_cell_length_b   5.88799454
_cell_length_c   14.53706000
_cell_angle_alpha   90.00000000
_cell_angle_beta   90.00000000
_cell_angle_gamma   119.99999699
_symmetry_Int_Tables_number   1
_chemical_formula_structural   Ba6TmZn(Ir2O9)2
_chemical_formula_sum   'Ba6 Tm1 Zn1 Ir4 O18'
_cell_volume   436.45759840
_cell_formula_units_Z   1
loop_
 _symmetry_equiv_pos_site_id
 _symmetry_equiv_pos_as_xyz
  1  'x, y, z'
loop_
 _atom_site_type_symbol
 _atom_site_label
 _atom_site_symmetry_multiplicity
 _atom_site_fract_x
 _atom_site_fract_y
 _atom_site_fract_z
 _atom_site_occupancy
  Ba  Ba0  1  0.666667  0.333333  0.418515  1
  Ba  Ba1  1  0.333333  0.666667  0.581485  1
  Ba  Ba2  1  0.333333  0.666667  0.908581  1
  Ba  Ba3  1  0.000000  0.000000  0.259829  1
  Ba  Ba4  1  0.666667  0.333333  0.091419  1
  Ba  Ba5  1  0.000000  0.000000  0.740171  1
  Tm  Tm6  1  0.000000  0.000000  0.000000  1
  Zn  Zn7  1  0.000000  0.000000  0.500000  1
  Ir  Ir8  1  0.333333  0.666667  0.164496  1
  Ir  Ir9  1  0.666667  0.333333  0.835504  1
  Ir  Ir10  1  0.333333  0.666667  0.340137  1
  Ir  Ir11  1  0.666667  0.333333  0.659863  1
  O  O12  1  0.826897  0.653797  0.582967  1
  O  O13  1  0.824599  0.175401  0.914186  1
  O  O14  1  0.653797  0.826897  0.417033  1
  O  O15  1  0.509876  0.490124  0.748008  1
  O  O16  1  0.173103  0.346203  0.417033  1
  O  O17  1  0.346203  0.173103  0.582967  1
  O  O18  1  0.509876  0.019753  0.748008  1
  O  O19  1  0.175401  0.350800  0.085814  1
  O  O20  1  0.490124  0.980247  0.251992  1
  O  O21  1  0.649200  0.824599  0.085814  1
  O  O22  1  0.173103  0.826897  0.417033  1
  O  O23  1  0.350800  0.175401  0.914186  1
  O  O24  1  0.019753  0.509876  0.251992  1
  O  O25  1  0.490124  0.509876  0.251992  1
  O  O26  1  0.980247  0.490124  0.748008  1
  O  O27  1  0.824599  0.649200  0.914186  1
  O  O28  1  0.826897  0.173103  0.582967  1
  O  O29  1  0.175401  0.824599  0.085814  1
