# generated using pymatgen
data_Pr8Tm12Si15Se
_symmetry_space_group_name_H-M   'P 1'
_cell_length_a   7.48830042
_cell_length_b   7.65721563
_cell_length_c   14.57839300
_cell_angle_alpha   89.76957312
_cell_angle_beta   86.88763556
_cell_angle_gamma   89.93938732
_symmetry_Int_Tables_number   1
_chemical_formula_structural   Pr8Tm12Si15Se
_chemical_formula_sum   'Pr8 Tm12 Si15 Se1'
_cell_volume   834.67817342
_cell_formula_units_Z   1
loop_
 _symmetry_equiv_pos_site_id
 _symmetry_equiv_pos_as_xyz
  1  'x, y, z'
loop_
 _atom_site_type_symbol
 _atom_site_label
 _atom_site_symmetry_multiplicity
 _atom_site_fract_x
 _atom_site_fract_y
 _atom_site_fract_z
 _atom_site_occupancy
  Pr  Pr0  1  0.017286  0.179064  0.098998  1
  Pr  Pr1  1  0.983088  0.824002  0.900498  1
  Pr  Pr2  1  0.483603  0.678667  0.901345  1
  Pr  Pr3  1  0.003970  0.822610  0.599017  1
  Pr  Pr4  1  0.517220  0.322222  0.099193  1
  Pr  Pr5  1  0.993547  0.174918  0.399174  1
  Pr  Pr6  1  0.498443  0.314114  0.399699  1
  Pr  Pr7  1  0.509406  0.684856  0.599609  1
  Tm  Tm8  1  0.170939  0.505010  0.751974  1
  Tm  Tm9  1  0.828851  0.496489  0.254502  1
  Tm  Tm10  1  0.326903  0.002321  0.253377  1
  Tm  Tm11  1  0.673744  0.997372  0.747372  1
  Tm  Tm12  1  0.358237  0.162372  0.622104  1
  Tm  Tm13  1  0.643986  0.832476  0.378740  1
  Tm  Tm14  1  0.143977  0.665538  0.379941  1
  Tm  Tm15  1  0.669775  0.822644  0.123476  1
  Tm  Tm16  1  0.850410  0.334434  0.619094  1
  Tm  Tm17  1  0.329552  0.177764  0.875513  1
  Tm  Tm18  1  0.829544  0.323466  0.875609  1
  Tm  Tm19  1  0.169992  0.676906  0.123486  1
  Si  Si20  1  0.047382  0.119652  0.748806  1
  Si  Si21  1  0.952300  0.881794  0.248923  1
  Si  Si22  1  0.451552  0.615957  0.249667  1
  Si  Si23  1  0.546374  0.384598  0.749141  1
  Si  Si24  1  0.291502  0.876969  0.751067  1
  Si  Si25  1  0.709695  0.120744  0.247855  1
  Si  Si26  1  0.209844  0.378482  0.248925  1
  Si  Si27  1  0.792289  0.622781  0.750515  1
  Si  Si28  1  0.798343  0.537433  0.455283  1
  Si  Si29  1  0.303222  0.959597  0.457891  1
  Si  Si30  1  0.852072  0.532909  0.039544  1
  Si  Si31  1  0.694725  0.039360  0.543774  1
  Si  Si32  1  0.146483  0.469321  0.959206  1
  Si  Si33  1  0.646306  0.033316  0.959442  1
  Si  Si34  1  0.352191  0.968473  0.040175  1
  Se  Se35  1  0.203250  0.461372  0.547065  1
