# generated using pymatgen
data_Ta10Al4Cu
_symmetry_space_group_name_H-M   'P 1'
_cell_length_a   9.87569300
_cell_length_b   9.87569300
_cell_length_c   5.21173800
_cell_angle_alpha   90.00000000
_cell_angle_beta   90.00000000
_cell_angle_gamma   90.00000000
_symmetry_Int_Tables_number   1
_chemical_formula_structural   Ta10Al4Cu
_chemical_formula_sum   'Ta20 Al8 Cu2'
_cell_volume   508.29722266
_cell_formula_units_Z   2
loop_
 _symmetry_equiv_pos_site_id
 _symmetry_equiv_pos_as_xyz
  1  'x, y, z'
loop_
 _atom_site_type_symbol
 _atom_site_label
 _atom_site_symmetry_multiplicity
 _atom_site_fract_x
 _atom_site_fract_y
 _atom_site_fract_z
 _atom_site_occupancy
  Ta  Ta0  1  0.399630  0.399630  0.000000  1
  Ta  Ta1  1  0.899630  0.100370  0.500000  1
  Ta  Ta2  1  0.100370  0.899630  0.500000  1
  Ta  Ta3  1  0.600370  0.600370  0.000000  1
  Ta  Ta4  1  0.129814  0.464216  0.000000  1
  Ta  Ta5  1  0.964216  0.370186  0.500000  1
  Ta  Ta6  1  0.035784  0.629814  0.500000  1
  Ta  Ta7  1  0.870186  0.535784  0.000000  1
  Ta  Ta8  1  0.370186  0.964216  0.500000  1
  Ta  Ta9  1  0.629814  0.035784  0.500000  1
  Ta  Ta10  1  0.464216  0.129814  0.000000  1
  Ta  Ta11  1  0.535784  0.870186  0.000000  1
  Ta  Ta12  1  0.181358  0.181358  0.251992  1
  Ta  Ta13  1  0.681358  0.318642  0.751992  1
  Ta  Ta14  1  0.318642  0.681358  0.751992  1
  Ta  Ta15  1  0.818642  0.818642  0.251992  1
  Ta  Ta16  1  0.318642  0.681358  0.248008  1
  Ta  Ta17  1  0.681358  0.318642  0.248008  1
  Ta  Ta18  1  0.181358  0.181358  0.748008  1
  Ta  Ta19  1  0.818642  0.818642  0.748008  1
  Al  Al20  1  0.256569  0.935205  0.000000  1
  Al  Al21  1  0.435205  0.243431  0.500000  1
  Al  Al22  1  0.564795  0.756569  0.500000  1
  Al  Al23  1  0.743431  0.064795  0.000000  1
  Al  Al24  1  0.243431  0.435205  0.500000  1
  Al  Al25  1  0.756569  0.564795  0.500000  1
  Al  Al26  1  0.935205  0.256569  0.000000  1
  Al  Al27  1  0.064795  0.743431  0.000000  1
  Cu  Cu28  1  0.000000  0.000000  0.000000  1
  Cu  Cu29  1  0.500000  0.500000  0.500000  1
