# generated using pymatgen
data_Sc(Tc2P)2
_symmetry_space_group_name_H-M   'P 1'
_cell_length_a   7.31014500
_cell_length_b   7.30893100
_cell_length_c   3.93974100
_cell_angle_alpha   90.00000000
_cell_angle_beta   90.00000000
_cell_angle_gamma   90.00000000
_symmetry_Int_Tables_number   1
_chemical_formula_structural   Sc(Tc2P)2
_chemical_formula_sum   'Sc2 Tc8 P4'
_cell_volume   210.49778270
_cell_formula_units_Z   2
loop_
 _symmetry_equiv_pos_site_id
 _symmetry_equiv_pos_as_xyz
  1  'x, y, z'
loop_
 _atom_site_type_symbol
 _atom_site_label
 _atom_site_symmetry_multiplicity
 _atom_site_fract_x
 _atom_site_fract_y
 _atom_site_fract_z
 _atom_site_occupancy
  Sc  Sc0  1  0.500000  0.499999  0.000000  1
  Sc  Sc1  1  0.000000  0.000000  0.500001  1
  Tc  Tc2  1  0.337396  0.083770  0.000000  1
  Tc  Tc3  1  0.083758  0.337357  0.000000  1
  Tc  Tc4  1  0.916242  0.662643  0.000000  1
  Tc  Tc5  1  0.662604  0.916230  0.000000  1
  Tc  Tc6  1  0.583758  0.162642  0.500001  1
  Tc  Tc7  1  0.837396  0.416230  0.500001  1
  Tc  Tc8  1  0.162603  0.583770  0.500001  1
  Tc  Tc9  1  0.416243  0.837358  0.500001  1
  P  P10  1  0.789606  0.210403  0.000000  1
  P  P11  1  0.210395  0.789597  0.000000  1
  P  P12  1  0.289606  0.289598  0.500001  1
  P  P13  1  0.710394  0.710402  0.500001  1
