# generated using pymatgen
data_Yb4Cu4Ni9Pt
_symmetry_space_group_name_H-M   'P 1'
_cell_length_a   4.91346873
_cell_length_b   4.91346802
_cell_length_c   12.49647800
_cell_angle_alpha   78.66213515
_cell_angle_beta   78.66213946
_cell_angle_gamma   60.00000298
_symmetry_Int_Tables_number   1
_chemical_formula_structural   Yb4Cu4Ni9Pt
_chemical_formula_sum   'Yb4 Cu4 Ni9 Pt1'
_cell_volume   254.45200046
_cell_formula_units_Z   1
loop_
 _symmetry_equiv_pos_site_id
 _symmetry_equiv_pos_as_xyz
  1  'x, y, z'
loop_
 _atom_site_type_symbol
 _atom_site_label
 _atom_site_symmetry_multiplicity
 _atom_site_fract_x
 _atom_site_fract_y
 _atom_site_fract_z
 _atom_site_occupancy
  Yb  Yb0  1  0.949520  0.949520  0.151440  1
  Yb  Yb1  1  0.050480  0.050480  0.848560  1
  Yb  Yb2  1  0.853353  0.853353  0.439939  1
  Yb  Yb3  1  0.146647  0.146647  0.560061  1
  Cu  Cu4  1  0.721135  0.721135  0.836592  1
  Cu  Cu5  1  0.278865  0.278865  0.163408  1
  Cu  Cu6  1  0.612041  0.612041  0.163875  1
  Cu  Cu7  1  0.387959  0.387959  0.836125  1
  Ni  Ni8  1  0.000000  0.500000  0.000000  1
  Ni  Ni9  1  0.500000  0.000000  0.000000  1
  Ni  Ni10  1  0.500000  0.500000  0.000000  1
  Ni  Ni11  1  0.388537  0.388537  0.327252  1
  Ni  Ni12  1  0.895673  0.388537  0.327252  1
  Ni  Ni13  1  0.388537  0.895673  0.327252  1
  Ni  Ni14  1  0.611463  0.611463  0.672748  1
  Ni  Ni15  1  0.104327  0.611463  0.672748  1
  Ni  Ni16  1  0.611463  0.104327  0.672748  1
  Pt  Pt17  1  0.500000  0.500000  0.500000  1
