# generated using pymatgen
data_Tb11CeOsPt3
_symmetry_space_group_name_H-M   'P 1'
_cell_length_a   6.51275145
_cell_length_b   7.12248206
_cell_length_c   9.55805900
_cell_angle_alpha   90.00000000
_cell_angle_beta   90.00000000
_cell_angle_gamma   88.92068488
_symmetry_Int_Tables_number   1
_chemical_formula_structural   Tb11CeOsPt3
_chemical_formula_sum   'Tb11 Ce1 Os1 Pt3'
_cell_volume   443.29059255
_cell_formula_units_Z   1
loop_
 _symmetry_equiv_pos_site_id
 _symmetry_equiv_pos_as_xyz
  1  'x, y, z'
loop_
 _atom_site_type_symbol
 _atom_site_label
 _atom_site_symmetry_multiplicity
 _atom_site_fract_x
 _atom_site_fract_y
 _atom_site_fract_z
 _atom_site_occupancy
  Tb  Tb0  1  0.359433  0.967105  0.750000  1
  Tb  Tb1  1  0.135085  0.470267  0.750000  1
  Tb  Tb2  1  0.869652  0.529325  0.250000  1
  Tb  Tb3  1  0.175444  0.179467  0.061566  1
  Tb  Tb4  1  0.824475  0.822405  0.938442  1
  Tb  Tb5  1  0.669617  0.322649  0.942921  1
  Tb  Tb6  1  0.824475  0.822405  0.561558  1
  Tb  Tb7  1  0.328130  0.676014  0.065762  1
  Tb  Tb8  1  0.175444  0.179467  0.438434  1
  Tb  Tb9  1  0.328130  0.676014  0.434238  1
  Tb  Tb10  1  0.669617  0.322649  0.557079  1
  Ce  Ce11  1  0.628413  0.047173  0.250000  1
  Os  Os12  1  0.463316  0.370071  0.250000  1
  Pt  Pt13  1  0.555025  0.613839  0.750000  1
  Pt  Pt14  1  0.944394  0.115294  0.750000  1
  Pt  Pt15  1  0.049352  0.885855  0.250000  1
