# generated using pymatgen
data_Er4Al24CoPt8
_symmetry_space_group_name_H-M   'P 1'
_cell_length_a   7.48530580
_cell_length_b   7.48580807
_cell_length_c   13.10564066
_cell_angle_alpha   84.52940362
_cell_angle_beta   100.87377100
_cell_angle_gamma   119.69165436
_symmetry_Int_Tables_number   1
_chemical_formula_structural   Er4Al24CoPt8
_chemical_formula_sum   'Er4 Al24 Co1 Pt8'
_cell_volume   626.48192635
_cell_formula_units_Z   1
loop_
 _symmetry_equiv_pos_site_id
 _symmetry_equiv_pos_as_xyz
  1  'x, y, z'
loop_
 _atom_site_type_symbol
 _atom_site_label
 _atom_site_symmetry_multiplicity
 _atom_site_fract_x
 _atom_site_fract_y
 _atom_site_fract_z
 _atom_site_occupancy
  Er  Er0  1  0.736002  0.000805  0.190585  1
  Er  Er1  1  0.268125  0.004052  0.809314  1
  Er  Er2  1  0.059314  0.668299  0.190773  1
  Er  Er3  1  0.935852  0.327651  0.809268  1
  Al  Al4  1  0.805220  0.866052  0.816944  1
  Al  Al5  1  0.195013  0.133531  0.183038  1
  Al  Al6  1  0.995611  0.666059  0.945503  1
  Al  Al7  1  0.025810  0.343339  0.053308  1
  Al  Al8  1  0.390650  0.662677  0.823487  1
  Al  Al9  1  0.600369  0.336503  0.181887  1
  Al  Al10  1  0.883438  0.665077  0.672939  1
  Al  Al11  1  0.118204  0.335562  0.326761  1
  Al  Al12  1  0.602937  0.459258  0.817866  1
  Al  Al13  1  0.396119  0.551433  0.176831  1
  Al  Al14  1  0.231372  0.341073  0.671172  1
  Al  Al15  1  0.768061  0.659526  0.328745  1
  Al  Al16  1  0.853643  0.333491  0.559167  1
  Al  Al17  1  0.186734  0.999882  0.559171  1
  Al  Al18  1  0.813797  0.999929  0.440844  1
  Al  Al19  1  0.351951  0.985759  0.054525  1
  Al  Al20  1  0.638970  0.992233  0.946711  1
  Al  Al21  1  0.556111  0.991847  0.673152  1
  Al  Al22  1  0.443392  0.006445  0.327055  1
  Al  Al23  1  0.521421  0.667949  0.561469  1
  Al  Al24  1  0.478806  0.331841  0.438283  1
  Al  Al25  1  0.675047  0.668734  0.041608  1
  Al  Al26  1  0.317104  0.338796  0.958347  1
  Al  Al27  1  0.146485  0.665983  0.441090  1
  Co  Co28  1  0.330324  0.669754  0.000047  1
  Pt  Pt29  1  0.546423  0.324823  0.638035  1
  Pt  Pt30  1  0.453484  0.674854  0.361280  1
  Pt  Pt31  1  0.888267  0.008240  0.639292  1
  Pt  Pt32  1  0.111993  0.991425  0.360757  1
  Pt  Pt33  1  0.672648  0.327757  0.000043  1
  Pt  Pt34  1  0.205200  0.667112  0.640005  1
  Pt  Pt35  1  0.795744  0.332766  0.360638  1
  Pt  Pt36  1  0.000359  0.999479  0.000059  1
