# generated using pymatgen
data_SmHo3Mn2(Co2B)6
_symmetry_space_group_name_H-M   'P 1'
_cell_length_a   5.08480415
_cell_length_b   5.08460913
_cell_length_c   12.64501500
_cell_angle_alpha   89.99997413
_cell_angle_beta   90.00214391
_cell_angle_gamma   119.98339463
_symmetry_Int_Tables_number   1
_chemical_formula_structural   SmHo3Mn2(Co2B)6
_chemical_formula_sum   'Sm1 Ho3 Mn2 Co12 B6'
_cell_volume   283.17468641
_cell_formula_units_Z   1
loop_
 _symmetry_equiv_pos_site_id
 _symmetry_equiv_pos_as_xyz
  1  'x, y, z'
loop_
 _atom_site_type_symbol
 _atom_site_label
 _atom_site_symmetry_multiplicity
 _atom_site_fract_x
 _atom_site_fract_y
 _atom_site_fract_z
 _atom_site_occupancy
  Sm  Sm0  1  0.999125  0.999858  0.999649  1
  Ho  Ho1  1  0.000209  0.000026  0.500065  1
  Ho  Ho2  1  0.000243  0.000016  0.261705  1
  Ho  Ho3  1  0.000300  0.000056  0.738172  1
  Mn  Mn4  1  0.333033  0.666730  0.000135  1
  Mn  Mn5  1  0.665120  0.332938  0.999890  1
  Co  Co6  1  0.500186  0.000000  0.386808  1
  Co  Co7  1  0.000147  0.499991  0.386776  1
  Co  Co8  1  0.500160  0.500047  0.386777  1
  Co  Co9  1  0.500213  0.000041  0.613235  1
  Co  Co10  1  0.500184  0.500051  0.613261  1
  Co  Co11  1  0.000134  0.499999  0.613260  1
  Co  Co12  1  0.500101  0.000064  0.160502  1
  Co  Co13  1  0.999918  0.499937  0.160359  1
  Co  Co14  1  0.500067  0.500013  0.160442  1
  Co  Co15  1  0.500101  0.999958  0.839549  1
  Co  Co16  1  0.500077  0.500135  0.839587  1
  Co  Co17  1  0.000121  0.500049  0.839682  1
  B  B18  1  0.333394  0.666723  0.270493  1
  B  B19  1  0.666690  0.333282  0.270541  1
  B  B20  1  0.666743  0.333356  0.729551  1
  B  B21  1  0.333394  0.666695  0.729487  1
  B  B22  1  0.333403  0.666647  0.500039  1
  B  B23  1  0.666837  0.333389  0.500034  1
