# generated using pymatgen
data_Pr11In9(PdRu)2
_symmetry_space_group_name_H-M   'P 1'
_cell_length_a   13.48078694
_cell_length_b   13.57231936
_cell_length_c   3.89656800
_cell_angle_alpha   90.00000000
_cell_angle_beta   90.00000000
_cell_angle_gamma   111.98153839
_symmetry_Int_Tables_number   1
_chemical_formula_structural   Pr11In9(PdRu)2
_chemical_formula_sum   'Pr11 In9 Pd2 Ru2'
_cell_volume   661.11033549
_cell_formula_units_Z   1
loop_
 _symmetry_equiv_pos_site_id
 _symmetry_equiv_pos_as_xyz
  1  'x, y, z'
loop_
 _atom_site_type_symbol
 _atom_site_label
 _atom_site_symmetry_multiplicity
 _atom_site_fract_x
 _atom_site_fract_y
 _atom_site_fract_z
 _atom_site_occupancy
  Pr  Pr0  1  0.500000  0.500000  0.500000  1
  Pr  Pr1  1  0.816645  0.807614  0.500000  1
  Pr  Pr2  1  0.183355  0.192386  0.500000  1
  Pr  Pr3  1  0.572037  0.917421  0.500000  1
  Pr  Pr4  1  0.427963  0.082579  0.500000  1
  Pr  Pr5  1  0.919202  0.579106  0.500000  1
  Pr  Pr6  1  0.080798  0.420894  0.500000  1
  Pr  Pr7  1  0.121724  0.868371  0.500000  1
  Pr  Pr8  1  0.878276  0.131629  0.500000  1
  Pr  Pr9  1  0.338894  0.660535  0.500000  1
  Pr  Pr10  1  0.661106  0.339465  0.500000  1
  In  In11  1  0.338301  0.867312  0.000000  1
  In  In12  1  0.661699  0.132688  0.000000  1
  In  In13  1  0.866200  0.335451  0.000000  1
  In  In14  1  0.133800  0.664549  0.000000  1
  In  In15  1  0.575444  0.718558  0.000000  1
  In  In16  1  0.424556  0.281442  0.000000  1
  In  In17  1  0.721304  0.579839  0.000000  1
  In  In18  1  0.278696  0.420161  0.000000  1
  In  In19  1  0.000000  0.000000  0.000000  1
  Pd  Pd20  1  0.749146  0.952653  0.000000  1
  Pd  Pd21  1  0.250854  0.047347  0.000000  1
  Ru  Ru22  1  0.948675  0.742993  0.000000  1
  Ru  Ru23  1  0.051325  0.257007  0.000000  1
