# generated using pymatgen
data_LaGaTeO6
_symmetry_space_group_name_H-M   'P 1'
_cell_length_a   5.21865607
_cell_length_b   5.21862798
_cell_length_c   10.51046506
_cell_angle_alpha   90.00335848
_cell_angle_beta   90.00256876
_cell_angle_gamma   120.00317841
_symmetry_Int_Tables_number   1
_chemical_formula_structural   LaGaTeO6
_chemical_formula_sum   'La2 Ga2 Te2 O12'
_cell_volume   247.88695148
_cell_formula_units_Z   2
loop_
 _symmetry_equiv_pos_site_id
 _symmetry_equiv_pos_as_xyz
  1  'x, y, z'
loop_
 _atom_site_type_symbol
 _atom_site_label
 _atom_site_symmetry_multiplicity
 _atom_site_fract_x
 _atom_site_fract_y
 _atom_site_fract_z
 _atom_site_occupancy
  La  La0  1  0.999997  0.000005  0.000003  1
  La  La1  1  0.000002  0.000000  0.499999  1
  Ga  Ga2  1  0.666635  0.333369  0.749999  1
  Ga  Ga3  1  0.333366  0.666632  0.250000  1
  Te  Te4  1  0.666683  0.333315  0.249995  1
  Te  Te5  1  0.333318  0.666685  0.750004  1
  O  O6  1  0.623026  0.991573  0.855508  1
  O  O7  1  0.368499  0.377032  0.855515  1
  O  O8  1  0.008490  0.631545  0.855511  1
  O  O9  1  0.376976  0.008425  0.144491  1
  O  O10  1  0.631500  0.622966  0.144487  1
  O  O11  1  0.991508  0.368451  0.144489  1
  O  O12  1  0.368458  0.991511  0.644487  1
  O  O13  1  0.622969  0.631499  0.644484  1
  O  O14  1  0.008426  0.376975  0.644489  1
  O  O15  1  0.631547  0.008490  0.355513  1
  O  O16  1  0.377029  0.368499  0.355515  1
  O  O17  1  0.991576  0.623026  0.355511  1
