# generated using pymatgen
data_Sc6MnSi6Tc5
_symmetry_space_group_name_H-M   'P 1'
_cell_length_a   7.76248523
_cell_length_b   7.76328438
_cell_length_c   7.76328314
_cell_angle_alpha   127.01328275
_cell_angle_beta   127.35228873
_cell_angle_gamma   77.95537132
_symmetry_Int_Tables_number   1
_chemical_formula_structural   Sc6MnSi6Tc5
_chemical_formula_sum   'Sc6 Mn1 Si6 Tc5'
_cell_volume   287.77750767
_cell_formula_units_Z   1
loop_
 _symmetry_equiv_pos_site_id
 _symmetry_equiv_pos_as_xyz
  1  'x, y, z'
loop_
 _atom_site_type_symbol
 _atom_site_label
 _atom_site_symmetry_multiplicity
 _atom_site_fract_x
 _atom_site_fract_y
 _atom_site_fract_z
 _atom_site_occupancy
  Sc  Sc0  1  0.548123  0.101733  0.048780  1
  Sc  Sc1  1  0.451877  0.500657  0.553610  1
  Sc  Sc2  1  0.947783  0.500422  0.048014  1
  Sc  Sc3  1  0.052217  0.100231  0.552639  1
  Sc  Sc4  1  0.747324  0.889609  0.635906  1
  Sc  Sc5  1  0.252676  0.888581  0.142286  1
  Mn  Mn6  1  0.000000  0.240197  0.240197  1
  Si  Si7  1  0.333895  0.830495  0.498386  1
  Si  Si8  1  0.666105  0.164489  0.496599  1
  Si  Si9  1  0.833305  0.831841  0.996990  1
  Si  Si10  1  0.166695  0.163684  0.998536  1
  Si  Si11  1  0.746438  0.497248  0.242787  1
  Si  Si12  1  0.253562  0.496350  0.750811  1
  Tc  Tc13  1  0.127893  0.747872  0.620745  1
  Tc  Tc14  1  0.872107  0.492852  0.619979  1
  Tc  Tc15  1  0.629030  0.757691  0.127532  1
  Tc  Tc16  1  0.370970  0.498501  0.128661  1
  Tc  Tc17  1  0.500000  0.239544  0.739544  1
