# generated using pymatgen
data_Ac4In2Si3Ge
_symmetry_space_group_name_H-M   'P 1'
_cell_length_a   7.93645500
_cell_length_b   7.93645455
_cell_length_c   4.57400500
_cell_angle_alpha   90.00000000
_cell_angle_beta   90.00000000
_cell_angle_gamma   90.20651622
_symmetry_Int_Tables_number   1
_chemical_formula_structural   Ac4In2Si3Ge
_chemical_formula_sum   'Ac4 In2 Si3 Ge1'
_cell_volume   288.10241965
_cell_formula_units_Z   1
loop_
 _symmetry_equiv_pos_site_id
 _symmetry_equiv_pos_as_xyz
  1  'x, y, z'
loop_
 _atom_site_type_symbol
 _atom_site_label
 _atom_site_symmetry_multiplicity
 _atom_site_fract_x
 _atom_site_fract_y
 _atom_site_fract_z
 _atom_site_occupancy
  Ac  Ac0  1  0.315765  0.817995  0.500000  1
  Ac  Ac1  1  0.819668  0.680332  0.500000  1
  Ac  Ac2  1  0.181038  0.318962  0.500000  1
  Ac  Ac3  1  0.682005  0.184235  0.500000  1
  In  In4  1  0.003228  0.001528  0.000000  1
  In  In5  1  0.498472  0.496772  0.000000  1
  Si  Si6  1  0.388132  0.111868  0.000000  1
  Si  Si7  1  0.892310  0.391746  0.000000  1
  Si  Si8  1  0.108254  0.607690  0.000000  1
  Ge  Ge9  1  0.611128  0.888872  0.000000  1
