# generated using pymatgen
data_La2CoCu2Ni5B2
_symmetry_space_group_name_H-M   'P 1'
_cell_length_a   5.14182300
_cell_length_b   5.16977135
_cell_length_c   6.96193600
_cell_angle_alpha   90.00000000
_cell_angle_beta   90.00000000
_cell_angle_gamma   119.82133429
_symmetry_Int_Tables_number   1
_chemical_formula_structural   La2CoCu2Ni5B2
_chemical_formula_sum   'La2 Co1 Cu2 Ni5 B2'
_cell_volume   160.55660931
_cell_formula_units_Z   1
loop_
 _symmetry_equiv_pos_site_id
 _symmetry_equiv_pos_as_xyz
  1  'x, y, z'
loop_
 _atom_site_type_symbol
 _atom_site_label
 _atom_site_symmetry_multiplicity
 _atom_site_fract_x
 _atom_site_fract_y
 _atom_site_fract_z
 _atom_site_occupancy
  La  La0  1  0.000000  0.000000  0.497765  1
  La  La1  1  0.000000  0.000000  0.003223  1
  Co  Co2  1  0.500000  0.000000  0.302132  1
  Cu  Cu3  1  0.334314  0.668629  0.000216  1
  Cu  Cu4  1  0.665686  0.331371  0.000216  1
  Ni  Ni5  1  0.500000  0.500000  0.296640  1
  Ni  Ni6  1  0.000000  0.500000  0.296640  1
  Ni  Ni7  1  0.500000  0.000000  0.704121  1
  Ni  Ni8  1  0.500000  0.500000  0.701494  1
  Ni  Ni9  1  0.000000  0.500000  0.701494  1
  B  B10  1  0.664291  0.328581  0.498030  1
  B  B11  1  0.335709  0.671419  0.498030  1
