# generated using pymatgen
data_TbDy5(Sb4Au3)2
_symmetry_space_group_name_H-M   'P 1'
_cell_length_a   8.61124363
_cell_length_b   8.61124403
_cell_length_c   8.61124324
_cell_angle_alpha   109.45769345
_cell_angle_beta   109.45769153
_cell_angle_gamma   109.49828106
_symmetry_Int_Tables_number   1
_chemical_formula_structural   TbDy5(Sb4Au3)2
_chemical_formula_sum   'Tb1 Dy5 Sb8 Au6'
_cell_volume   491.55901249
_cell_formula_units_Z   1
loop_
 _symmetry_equiv_pos_site_id
 _symmetry_equiv_pos_as_xyz
  1  'x, y, z'
loop_
 _atom_site_type_symbol
 _atom_site_label
 _atom_site_symmetry_multiplicity
 _atom_site_fract_x
 _atom_site_fract_y
 _atom_site_fract_z
 _atom_site_occupancy
  Tb  Tb0  1  0.375000  0.625000  0.750000  1
  Dy  Dy1  1  0.125000  0.875000  0.250000  1
  Dy  Dy2  1  0.625033  0.750023  0.375021  1
  Dy  Dy3  1  0.249977  0.124998  0.875009  1
  Dy  Dy4  1  0.875002  0.250011  0.124979  1
  Dy  Dy5  1  0.749989  0.374967  0.624991  1
  Sb  Sb6  1  0.178806  0.499940  0.000037  1
  Sb  Sb7  1  0.321060  0.321024  0.320985  1
  Sb  Sb8  1  0.999903  0.178769  0.499963  1
  Sb  Sb9  1  0.500039  0.000075  0.179015  1
  Sb  Sb10  1  0.678976  0.499961  0.000036  1
  Sb  Sb11  1  0.821231  0.821194  0.821134  1
  Sb  Sb12  1  0.500060  0.000097  0.678866  1
  Sb  Sb13  1  0.999925  0.678940  0.499964  1
  Au  Au14  1  0.875000  0.125000  0.750000  1
  Au  Au15  1  0.625000  0.375000  0.250000  1
  Au  Au16  1  0.124707  0.750174  0.875204  1
  Au  Au17  1  0.249826  0.625030  0.374534  1
  Au  Au18  1  0.374970  0.249504  0.624796  1
  Au  Au19  1  0.750496  0.875293  0.125466  1
