# generated using pymatgen
data_Y2Si5IrRh2
_symmetry_space_group_name_H-M   'P 1'
_cell_length_a   8.10242575
_cell_length_b   8.10242595
_cell_length_c   5.71786372
_cell_angle_alpha   71.36158636
_cell_angle_beta   71.36158818
_cell_angle_gamma   93.39970107
_symmetry_Int_Tables_number   1
_chemical_formula_structural   Y2Si5IrRh2
_chemical_formula_sum   'Y4 Si10 Ir2 Rh4'
_cell_volume   331.53979432
_cell_formula_units_Z   2
loop_
 _symmetry_equiv_pos_site_id
 _symmetry_equiv_pos_as_xyz
  1  'x, y, z'
loop_
 _atom_site_type_symbol
 _atom_site_label
 _atom_site_symmetry_multiplicity
 _atom_site_fract_x
 _atom_site_fract_y
 _atom_site_fract_z
 _atom_site_occupancy
  Y  Y0  1  0.866884  0.598629  0.760146  1
  Y  Y1  1  0.133931  0.402360  0.237949  1
  Y  Y2  1  0.401371  0.133116  0.739854  1
  Y  Y3  1  0.597640  0.866069  0.262051  1
  Si  Si4  1  0.773873  0.226127  0.750000  1
  Si  Si5  1  0.224655  0.775345  0.250000  1
  Si  Si6  1  0.513883  0.486117  0.750000  1
  Si  Si7  1  0.486117  0.513883  0.250000  1
  Si  Si8  1  0.209947  0.790053  0.750000  1
  Si  Si9  1  0.791869  0.208131  0.250000  1
  Si  Si10  1  0.265409  0.055843  0.340924  1
  Si  Si11  1  0.732838  0.940636  0.663636  1
  Si  Si12  1  0.944157  0.734591  0.159076  1
  Si  Si13  1  0.059364  0.267162  0.836364  1
  Ir  Ir14  1  0.538502  0.258382  0.130403  1
  Ir  Ir15  1  0.741618  0.461498  0.369597  1
  Rh  Rh16  1  0.460128  0.739579  0.873252  1
  Rh  Rh17  1  0.260421  0.539872  0.626748  1
  Rh  Rh18  1  0.996652  0.003348  0.250000  1
  Rh  Rh19  1  0.000743  0.999257  0.750000  1
