# generated using pymatgen
data_Hf3SiMo2P2Ru
_symmetry_space_group_name_H-M   'P 1'
_cell_length_a   6.81082000
_cell_length_b   6.87658046
_cell_length_c   3.49447200
_cell_angle_alpha   90.00000000
_cell_angle_beta   90.00000000
_cell_angle_gamma   119.68418001
_symmetry_Int_Tables_number   1
_chemical_formula_structural   Hf3SiMo2P2Ru
_chemical_formula_sum   'Hf3 Si1 Mo2 P2 Ru1'
_cell_volume   142.18620204
_cell_formula_units_Z   1
loop_
 _symmetry_equiv_pos_site_id
 _symmetry_equiv_pos_as_xyz
  1  'x, y, z'
loop_
 _atom_site_type_symbol
 _atom_site_label
 _atom_site_symmetry_multiplicity
 _atom_site_fract_x
 _atom_site_fract_y
 _atom_site_fract_z
 _atom_site_occupancy
  Hf  Hf0  1  0.994618  0.588682  0.500000  1
  Hf  Hf1  1  0.405935  0.411318  0.500000  1
  Hf  Hf2  1  0.594613  0.000000  0.500000  1
  Si  Si3  1  0.007655  0.000000  0.500000  1
  Mo  Mo4  1  0.746325  0.746034  0.000000  1
  Mo  Mo5  1  0.000292  0.253966  0.000000  1
  P  P6  1  0.662909  0.331171  0.000000  1
  P  P7  1  0.331737  0.668829  0.000000  1
  Ru  Ru8  1  0.255915  0.000000  0.000000  1
