# generated using pymatgen
data_Nb5Co19P12
_symmetry_space_group_name_H-M   'P 1'
_cell_length_a   11.70204000
_cell_length_b   11.70204007
_cell_length_c   3.55818100
_cell_angle_alpha   90.00000000
_cell_angle_beta   90.00000000
_cell_angle_gamma   119.99999979
_symmetry_Int_Tables_number   1
_chemical_formula_structural   Nb5Co19P12
_chemical_formula_sum   'Nb5 Co19 P12'
_cell_volume   421.97024515
_cell_formula_units_Z   1
loop_
 _symmetry_equiv_pos_site_id
 _symmetry_equiv_pos_as_xyz
  1  'x, y, z'
loop_
 _atom_site_type_symbol
 _atom_site_label
 _atom_site_symmetry_multiplicity
 _atom_site_fract_x
 _atom_site_fract_y
 _atom_site_fract_z
 _atom_site_occupancy
  Nb  Nb0  1  0.333333  0.666667  0.500000  1
  Nb  Nb1  1  0.666667  0.333333  0.500000  1
  Nb  Nb2  1  0.818744  0.000000  0.000000  1
  Nb  Nb3  1  0.000000  0.818744  0.000000  1
  Nb  Nb4  1  0.181256  0.181256  0.000000  1
  Co  Co5  1  0.622657  0.803623  0.500000  1
  Co  Co6  1  0.196377  0.819034  0.500000  1
  Co  Co7  1  0.180966  0.377343  0.500000  1
  Co  Co8  1  0.377343  0.180966  0.500000  1
  Co  Co9  1  0.803623  0.622657  0.500000  1
  Co  Co10  1  0.819034  0.196377  0.500000  1
  Co  Co11  1  0.282257  0.000000  0.000000  1
  Co  Co12  1  0.000000  0.282257  0.000000  1
  Co  Co13  1  0.717743  0.717743  0.000000  1
  Co  Co14  1  0.452740  0.000000  0.500000  1
  Co  Co15  1  0.000000  0.452740  0.500000  1
  Co  Co16  1  0.547260  0.547260  0.500000  1
  Co  Co17  1  0.516782  0.872376  0.000000  1
  Co  Co18  1  0.127624  0.644406  0.000000  1
  Co  Co19  1  0.355594  0.483218  0.000000  1
  Co  Co20  1  0.483218  0.355594  0.000000  1
  Co  Co21  1  0.872376  0.516782  0.000000  1
  Co  Co22  1  0.644406  0.127624  0.000000  1
  Co  Co23  1  0.000000  0.000000  0.500000  1
  P  P24  1  0.176997  0.000000  0.500000  1
  P  P25  1  0.000000  0.176997  0.500000  1
  P  P26  1  0.823003  0.823003  0.500000  1
  P  P27  1  0.515996  0.682146  0.000000  1
  P  P28  1  0.317854  0.833850  0.000000  1
  P  P29  1  0.166150  0.484004  0.000000  1
  P  P30  1  0.484004  0.166150  0.000000  1
  P  P31  1  0.682146  0.515996  0.000000  1
  P  P32  1  0.833850  0.317854  0.000000  1
  P  P33  1  0.640347  0.000000  0.500000  1
  P  P34  1  0.000000  0.640347  0.500000  1
  P  P35  1  0.359653  0.359653  0.500000  1
