# generated using pymatgen
data_Sc5Si12Ni16Mo3
_symmetry_space_group_name_H-M   'P 1'
_cell_length_a   12.20130400
_cell_length_b   12.20130431
_cell_length_c   3.66606000
_cell_angle_alpha   90.00000000
_cell_angle_beta   90.00000000
_cell_angle_gamma   120.00000459
_symmetry_Int_Tables_number   1
_chemical_formula_structural   Sc5Si12Ni16Mo3
_chemical_formula_sum   'Sc5 Si12 Ni16 Mo3'
_cell_volume   472.65329165
_cell_formula_units_Z   1
loop_
 _symmetry_equiv_pos_site_id
 _symmetry_equiv_pos_as_xyz
  1  'x, y, z'
loop_
 _atom_site_type_symbol
 _atom_site_label
 _atom_site_symmetry_multiplicity
 _atom_site_fract_x
 _atom_site_fract_y
 _atom_site_fract_z
 _atom_site_occupancy
  Sc  Sc0  1  0.181267  0.181267  0.500000  1
  Sc  Sc1  1  0.818733  0.000000  0.500000  1
  Sc  Sc2  1  0.000000  0.818733  0.500000  1
  Sc  Sc3  1  0.333333  0.666667  0.000000  1
  Sc  Sc4  1  0.666667  0.333333  0.000000  1
  Si  Si5  1  0.822480  0.822480  0.000000  1
  Si  Si6  1  0.177520  0.000000  0.000000  1
  Si  Si7  1  0.000000  0.177520  0.000000  1
  Si  Si8  1  0.166415  0.484113  0.500000  1
  Si  Si9  1  0.515887  0.682301  0.500000  1
  Si  Si10  1  0.317699  0.833585  0.500000  1
  Si  Si11  1  0.682301  0.515887  0.500000  1
  Si  Si12  1  0.833585  0.317699  0.500000  1
  Si  Si13  1  0.484113  0.166415  0.500000  1
  Si  Si14  1  0.356614  0.356614  0.000000  1
  Si  Si15  1  0.643386  0.000000  0.000000  1
  Si  Si16  1  0.000000  0.643386  0.000000  1
  Ni  Ni17  1  0.721402  0.721402  0.500000  1
  Ni  Ni18  1  0.278598  0.000000  0.500000  1
  Ni  Ni19  1  0.000000  0.278598  0.500000  1
  Ni  Ni20  1  0.178779  0.373839  0.000000  1
  Ni  Ni21  1  0.626161  0.804939  0.000000  1
  Ni  Ni22  1  0.195061  0.821221  0.000000  1
  Ni  Ni23  1  0.804939  0.626161  0.000000  1
  Ni  Ni24  1  0.821221  0.195061  0.000000  1
  Ni  Ni25  1  0.373839  0.178779  0.000000  1
  Ni  Ni26  1  0.351577  0.476898  0.500000  1
  Ni  Ni27  1  0.523102  0.874680  0.500000  1
  Ni  Ni28  1  0.125320  0.648423  0.500000  1
  Ni  Ni29  1  0.874680  0.523102  0.500000  1
  Ni  Ni30  1  0.648423  0.125320  0.500000  1
  Ni  Ni31  1  0.476898  0.351577  0.500000  1
  Ni  Ni32  1  0.000000  0.000000  0.000000  1
  Mo  Mo33  1  0.556615  0.556615  0.000000  1
  Mo  Mo34  1  0.443385  0.000000  0.000000  1
  Mo  Mo35  1  0.000000  0.443385  0.000000  1
