# generated using pymatgen
data_SrCa4Te3O14
_symmetry_space_group_name_H-M   'P 1'
_cell_length_a   7.45791500
_cell_length_b   7.45791479
_cell_length_c   10.60172700
_cell_angle_alpha   90.00000000
_cell_angle_beta   90.00000000
_cell_angle_gamma   90.22943219
_symmetry_Int_Tables_number   1
_chemical_formula_structural   SrCa4Te3O14
_chemical_formula_sum   'Sr2 Ca8 Te6 O28'
_cell_volume   589.66857175
_cell_formula_units_Z   2
loop_
 _symmetry_equiv_pos_site_id
 _symmetry_equiv_pos_as_xyz
  1  'x, y, z'
loop_
 _atom_site_type_symbol
 _atom_site_label
 _atom_site_symmetry_multiplicity
 _atom_site_fract_x
 _atom_site_fract_y
 _atom_site_fract_z
 _atom_site_occupancy
  Sr  Sr0  1  0.500000  0.500000  0.000000  1
  Sr  Sr1  1  0.000000  0.000000  0.500000  1
  Ca  Ca2  1  0.753501  0.753501  0.270974  1
  Ca  Ca3  1  0.768033  0.268033  0.250000  1
  Ca  Ca4  1  0.253501  0.253501  0.229026  1
  Ca  Ca5  1  0.731967  0.231967  0.750000  1
  Ca  Ca6  1  0.268033  0.768033  0.250000  1
  Ca  Ca7  1  0.231967  0.731967  0.750000  1
  Ca  Ca8  1  0.746499  0.746499  0.770974  1
  Ca  Ca9  1  0.246499  0.246499  0.729026  1
  Te  Te10  1  0.500000  0.000000  0.500000  1
  Te  Te11  1  0.500000  0.500000  0.500000  1
  Te  Te12  1  0.500000  0.000000  0.000000  1
  Te  Te13  1  0.000000  0.500000  0.000000  1
  Te  Te14  1  0.000000  0.000000  0.000000  1
  Te  Te15  1  0.000000  0.500000  0.500000  1
  O  O16  1  0.444661  0.444661  0.329822  1
  O  O17  1  0.252712  0.506813  0.564870  1
  O  O18  1  0.465276  0.181664  0.872542  1
  O  O19  1  0.318336  0.034724  0.372542  1
  O  O20  1  0.804461  0.466444  0.882759  1
  O  O21  1  0.965276  0.681664  0.627458  1
  O  O22  1  0.752712  0.006813  0.935130  1
  O  O23  1  0.993187  0.247288  0.064870  1
  O  O24  1  0.534724  0.818336  0.127458  1
  O  O25  1  0.304461  0.966444  0.617241  1
  O  O26  1  0.506813  0.252712  0.564870  1
  O  O27  1  0.493187  0.747288  0.435130  1
  O  O28  1  0.966444  0.304461  0.617241  1
  O  O29  1  0.006813  0.752712  0.935130  1
  O  O30  1  0.181664  0.465276  0.872542  1
  O  O31  1  0.055339  0.055339  0.829822  1
  O  O32  1  0.944661  0.944661  0.170178  1
  O  O33  1  0.466444  0.804461  0.882759  1
  O  O34  1  0.033556  0.695539  0.382759  1
  O  O35  1  0.695539  0.033556  0.382759  1
  O  O36  1  0.818336  0.534724  0.127458  1
  O  O37  1  0.195539  0.533556  0.117241  1
  O  O38  1  0.247288  0.993187  0.064870  1
  O  O39  1  0.747288  0.493187  0.435130  1
  O  O40  1  0.681664  0.965276  0.627458  1
  O  O41  1  0.533556  0.195539  0.117241  1
  O  O42  1  0.034724  0.318336  0.372542  1
  O  O43  1  0.555339  0.555339  0.670178  1
