# generated using pymatgen
data_Y5Er3(InPd)2
_symmetry_space_group_name_H-M   'P 1'
_cell_length_a   9.73058683
_cell_length_b   9.74566568
_cell_length_c   9.74541813
_cell_angle_alpha   59.89661328
_cell_angle_beta   60.05035961
_cell_angle_gamma   60.04990968
_symmetry_Int_Tables_number   1
_chemical_formula_structural   Y5Er3(InPd)2
_chemical_formula_sum   'Y10 Er6 In4 Pd4'
_cell_volume   653.46707735
_cell_formula_units_Z   2
loop_
 _symmetry_equiv_pos_site_id
 _symmetry_equiv_pos_as_xyz
  1  'x, y, z'
loop_
 _atom_site_type_symbol
 _atom_site_label
 _atom_site_symmetry_multiplicity
 _atom_site_fract_x
 _atom_site_fract_y
 _atom_site_fract_z
 _atom_site_occupancy
  Y  Y0  1  0.190063  0.809946  0.190037  1
  Y  Y1  1  0.809952  0.190049  0.809953  1
  Y  Y2  1  0.190068  0.190047  0.809940  1
  Y  Y3  1  0.809976  0.809959  0.190032  1
  Y  Y4  1  0.936771  0.563235  0.563232  1
  Y  Y5  1  0.563238  0.936776  0.936765  1
  Y  Y6  1  0.562875  0.937124  0.562896  1
  Y  Y7  1  0.937097  0.562884  0.937128  1
  Y  Y8  1  0.562897  0.562872  0.937114  1
  Y  Y9  1  0.937089  0.937118  0.562905  1
  Er  Er10  1  0.352575  0.352693  0.352688  1
  Er  Er11  1  0.352675  0.352563  0.942057  1
  Er  Er12  1  0.352664  0.942056  0.352575  1
  Er  Er13  1  0.942057  0.352680  0.352675  1
  Er  Er14  1  0.810039  0.189986  0.189996  1
  Er  Er15  1  0.189984  0.810014  0.810008  1
  In  In16  1  0.583559  0.583258  0.583285  1
  In  In17  1  0.583289  0.583559  0.249868  1
  In  In18  1  0.583278  0.249868  0.583557  1
  In  In19  1  0.249848  0.583297  0.583302  1
  Pd  Pd20  1  0.142305  0.146399  0.146392  1
  Pd  Pd21  1  0.146399  0.142295  0.564912  1
  Pd  Pd22  1  0.146390  0.564920  0.142296  1
  Pd  Pd23  1  0.564911  0.146397  0.146388  1
