# generated using pymatgen
data_Pa8FeS17
_symmetry_space_group_name_H-M   'P 1'
_cell_length_a   7.84093418
_cell_length_b   7.84093388
_cell_length_c   10.32018939
_cell_angle_alpha   80.56663909
_cell_angle_beta   80.56663866
_cell_angle_gamma   64.82373453
_symmetry_Int_Tables_number   1
_chemical_formula_structural   Pa8FeS17
_chemical_formula_sum   'Pa8 Fe1 S17'
_cell_volume   563.28793827
_cell_formula_units_Z   1
loop_
 _symmetry_equiv_pos_site_id
 _symmetry_equiv_pos_as_xyz
  1  'x, y, z'
loop_
 _atom_site_type_symbol
 _atom_site_label
 _atom_site_symmetry_multiplicity
 _atom_site_fract_x
 _atom_site_fract_y
 _atom_site_fract_z
 _atom_site_occupancy
  Pa  Pa0  1  0.797890  0.797890  0.453760  1
  Pa  Pa1  1  0.819348  0.299569  0.293306  1
  Pa  Pa2  1  0.684097  0.684097  0.981972  1
  Pa  Pa3  1  0.202110  0.202110  0.546240  1
  Pa  Pa4  1  0.180652  0.700431  0.706694  1
  Pa  Pa5  1  0.315903  0.315903  0.018028  1
  Pa  Pa6  1  0.700431  0.180652  0.706694  1
  Pa  Pa7  1  0.299569  0.819348  0.293306  1
  Fe  Fe8  1  0.000000  0.000000  0.000000  1
  S  S9  1  0.520600  0.520600  0.831378  1
  S  S10  1  0.942247  0.320429  0.025316  1
  S  S11  1  0.213102  0.213102  0.277506  1
  S  S12  1  0.433238  0.819972  0.534961  1
  S  S13  1  0.786898  0.786898  0.722494  1
  S  S14  1  0.057753  0.679571  0.974684  1
  S  S15  1  0.819972  0.433238  0.534961  1
  S  S16  1  0.698592  0.698592  0.243166  1
  S  S17  1  0.057021  0.057021  0.778585  1
  S  S18  1  0.679571  0.057753  0.974684  1
  S  S19  1  0.942979  0.942979  0.221415  1
  S  S20  1  0.320429  0.942247  0.025316  1
  S  S21  1  0.479400  0.479400  0.168622  1
  S  S22  1  0.566762  0.180028  0.465039  1
  S  S23  1  0.000000  0.000000  0.500000  1
  S  S24  1  0.180028  0.566762  0.465039  1
  S  S25  1  0.301408  0.301408  0.756834  1
