# generated using pymatgen
data_RbCr4(SbO6)2
_symmetry_space_group_name_H-M   'P 1'
_cell_length_a   8.63827193
_cell_length_b   8.63827168
_cell_length_c   8.63827115
_cell_angle_alpha   106.41468809
_cell_angle_beta   106.41468167
_cell_angle_gamma   115.77418180
_symmetry_Int_Tables_number   1
_chemical_formula_structural   RbCr4(SbO6)2
_chemical_formula_sum   'Rb2 Cr8 Sb4 O24'
_cell_volume   491.64988516
_cell_formula_units_Z   2
loop_
 _symmetry_equiv_pos_site_id
 _symmetry_equiv_pos_as_xyz
  1  'x, y, z'
loop_
 _atom_site_type_symbol
 _atom_site_label
 _atom_site_symmetry_multiplicity
 _atom_site_fract_x
 _atom_site_fract_y
 _atom_site_fract_z
 _atom_site_occupancy
  Rb  Rb0  1  0.210566  0.210566  0.000000  1
  Rb  Rb1  1  0.789434  0.789434  0.000000  1
  Cr  Cr2  1  0.985926  0.499840  0.816780  1
  Cr  Cr3  1  0.683061  0.169147  0.183220  1
  Cr  Cr4  1  0.169147  0.985926  0.486086  1
  Cr  Cr5  1  0.499840  0.683061  0.513914  1
  Cr  Cr6  1  0.014074  0.500160  0.183220  1
  Cr  Cr7  1  0.316939  0.830853  0.816780  1
  Cr  Cr8  1  0.830853  0.014074  0.513914  1
  Cr  Cr9  1  0.500160  0.316939  0.486086  1
  Sb  Sb10  1  0.651541  0.164924  0.816466  1
  Sb  Sb11  1  0.348459  0.835076  0.183534  1
  Sb  Sb12  1  0.835076  0.651541  0.486618  1
  Sb  Sb13  1  0.164924  0.348459  0.513382  1
  O  O14  1  0.845360  0.205214  0.050574  1
  O  O15  1  0.154640  0.794786  0.949426  1
  O  O16  1  0.794786  0.845360  0.640144  1
  O  O17  1  0.205214  0.154640  0.359856  1
  O  O18  1  0.176037  0.539593  0.050650  1
  O  O19  1  0.488944  0.125388  0.949350  1
  O  O20  1  0.125388  0.176037  0.636444  1
  O  O21  1  0.539593  0.488944  0.363556  1
  O  O22  1  0.823963  0.460407  0.949350  1
  O  O23  1  0.511056  0.874612  0.050650  1
  O  O24  1  0.874612  0.823963  0.363556  1
  O  O25  1  0.460407  0.511056  0.636444  1
  O  O26  1  0.457861  0.164336  0.622197  1
  O  O27  1  0.542139  0.835664  0.377803  1
  O  O28  1  0.835664  0.457861  0.293525  1
  O  O29  1  0.164336  0.542139  0.706475  1
  O  O30  1  0.793469  0.497191  0.623417  1
  O  O31  1  0.873773  0.170052  0.376583  1
  O  O32  1  0.170052  0.793469  0.296279  1
  O  O33  1  0.497191  0.873773  0.703721  1
  O  O34  1  0.206531  0.502809  0.376583  1
  O  O35  1  0.126227  0.829948  0.623417  1
  O  O36  1  0.829948  0.206531  0.703721  1
  O  O37  1  0.502809  0.126227  0.296279  1
