# generated using pymatgen
data_Tb8YEr(SiB4)4
_symmetry_space_group_name_H-M   'P 1'
_cell_length_a   7.24744700
_cell_length_b   7.24744700
_cell_length_c   8.12540100
_cell_angle_alpha   90.00000000
_cell_angle_beta   90.00000000
_cell_angle_gamma   90.00000000
_symmetry_Int_Tables_number   1
_chemical_formula_structural   Tb8YEr(SiB4)4
_chemical_formula_sum   'Tb8 Y1 Er1 Si4 B16'
_cell_volume   426.79065287
_cell_formula_units_Z   1
loop_
 _symmetry_equiv_pos_site_id
 _symmetry_equiv_pos_as_xyz
  1  'x, y, z'
loop_
 _atom_site_type_symbol
 _atom_site_label
 _atom_site_symmetry_multiplicity
 _atom_site_fract_x
 _atom_site_fract_y
 _atom_site_fract_z
 _atom_site_occupancy
  Tb  Tb0  1  0.680064  0.180385  0.224592  1
  Tb  Tb1  1  0.319936  0.819615  0.775408  1
  Tb  Tb2  1  0.319936  0.819615  0.224592  1
  Tb  Tb3  1  0.819615  0.680064  0.224592  1
  Tb  Tb4  1  0.819615  0.680064  0.775408  1
  Tb  Tb5  1  0.680064  0.180385  0.775408  1
  Tb  Tb6  1  0.180385  0.319936  0.775408  1
  Tb  Tb7  1  0.180385  0.319936  0.224592  1
  Y  Y8  1  0.000000  0.000000  0.500000  1
  Er  Er9  1  0.500000  0.500000  0.500000  1
  Si  Si10  1  0.115520  0.614385  0.500000  1
  Si  Si11  1  0.884480  0.385615  0.500000  1
  Si  Si12  1  0.385615  0.115520  0.500000  1
  Si  Si13  1  0.614385  0.884480  0.500000  1
  B  B14  1  0.172362  0.039091  0.000000  1
  B  B15  1  0.827638  0.960909  0.000000  1
  B  B16  1  0.960909  0.172362  0.000000  1
  B  B17  1  0.327664  0.539095  0.000000  1
  B  B18  1  0.039091  0.827638  0.000000  1
  B  B19  1  0.672336  0.460905  0.000000  1
  B  B20  1  0.539095  0.672336  0.000000  1
  B  B21  1  0.460905  0.327664  0.000000  1
  B  B22  1  0.089877  0.589932  0.000000  1
  B  B23  1  0.910123  0.410068  0.000000  1
  B  B24  1  0.410068  0.089877  0.000000  1
  B  B25  1  0.589932  0.910123  0.000000  1
  B  B26  1  0.000000  0.000000  0.161119  1
  B  B27  1  0.000000  0.000000  0.838881  1
  B  B28  1  0.500000  0.500000  0.838369  1
  B  B29  1  0.500000  0.500000  0.161631  1
