# generated using pymatgen
data_Nd3Hg3Pd2
_symmetry_space_group_name_H-M   'P 1'
_cell_length_a   7.74420700
_cell_length_b   7.74420676
_cell_length_c   3.89858200
_cell_angle_alpha   90.00000000
_cell_angle_beta   90.00000000
_cell_angle_gamma   119.99999677
_symmetry_Int_Tables_number   1
_chemical_formula_structural   Nd3Hg3Pd2
_chemical_formula_sum   'Nd3 Hg3 Pd2'
_cell_volume   202.48423302
_cell_formula_units_Z   1
loop_
 _symmetry_equiv_pos_site_id
 _symmetry_equiv_pos_as_xyz
  1  'x, y, z'
loop_
 _atom_site_type_symbol
 _atom_site_label
 _atom_site_symmetry_multiplicity
 _atom_site_fract_x
 _atom_site_fract_y
 _atom_site_fract_z
 _atom_site_occupancy
  Nd  Nd0  1  0.586691  0.000000  0.500000  1
  Nd  Nd1  1  0.413308  0.413308  0.500000  1
  Nd  Nd2  1  0.000000  0.586692  0.500000  1
  Hg  Hg3  1  0.235996  0.000000  0.000000  1
  Hg  Hg4  1  0.000000  0.235996  0.000000  1
  Hg  Hg5  1  0.764004  0.764004  0.000000  1
  Pd  Pd6  1  0.666666  0.333333  0.000000  1
  Pd  Pd7  1  0.333334  0.666667  0.000000  1
