# generated using pymatgen
data_Tb6Ho2In2RuRh
_symmetry_space_group_name_H-M   'P 1'
_cell_length_a   9.66764335
_cell_length_b   9.69996195
_cell_length_c   9.66007814
_cell_angle_alpha   59.96243239
_cell_angle_beta   59.82548990
_cell_angle_gamma   59.88553073
_symmetry_Int_Tables_number   1
_chemical_formula_structural   Tb6Ho2In2RuRh
_chemical_formula_sum   'Tb12 Ho4 In4 Ru2 Rh2'
_cell_volume   638.97107181
_cell_formula_units_Z   2
loop_
 _symmetry_equiv_pos_site_id
 _symmetry_equiv_pos_as_xyz
  1  'x, y, z'
loop_
 _atom_site_type_symbol
 _atom_site_label
 _atom_site_symmetry_multiplicity
 _atom_site_fract_x
 _atom_site_fract_y
 _atom_site_fract_z
 _atom_site_occupancy
  Tb  Tb0  1  0.060573  0.059748  0.442532  1
  Tb  Tb1  1  0.442284  0.436535  0.061124  1
  Tb  Tb2  1  0.652042  0.650819  0.651516  1
  Tb  Tb3  1  0.810778  0.192100  0.188845  1
  Tb  Tb4  1  0.188506  0.808539  0.811010  1
  Tb  Tb5  1  0.044008  0.651390  0.652321  1
  Tb  Tb6  1  0.442662  0.059696  0.060470  1
  Tb  Tb7  1  0.437746  0.062320  0.437712  1
  Tb  Tb8  1  0.058403  0.441368  0.058404  1
  Tb  Tb9  1  0.652313  0.652230  0.044006  1
  Tb  Tb10  1  0.191906  0.808086  0.191922  1
  Tb  Tb11  1  0.061061  0.436525  0.442404  1
  Ho  Ho12  1  0.810222  0.807900  0.189506  1
  Ho  Ho13  1  0.809435  0.190267  0.809438  1
  Ho  Ho14  1  0.189853  0.192561  0.809954  1
  Ho  Ho15  1  0.651471  0.045441  0.651999  1
  In  In16  1  0.418569  0.417048  0.418564  1
  In  In17  1  0.418077  0.416933  0.747658  1
  In  In18  1  0.418460  0.745698  0.418480  1
  In  In19  1  0.747652  0.417090  0.418018  1
  Ru  Ru20  1  0.858944  0.420214  0.857902  1
  Ru  Ru21  1  0.856949  0.863734  0.858075  1
  Rh  Rh22  1  0.856669  0.861119  0.421453  1
  Rh  Rh23  1  0.421415  0.862638  0.856685  1
