# generated using pymatgen
data_Th3Mg3Ga2Au
_symmetry_space_group_name_H-M   'P 1'
_cell_length_a   7.39739600
_cell_length_b   7.39739612
_cell_length_c   4.58225300
_cell_angle_alpha   90.00000000
_cell_angle_beta   90.00000000
_cell_angle_gamma   119.99999945
_symmetry_Int_Tables_number   1
_chemical_formula_structural   Th3Mg3Ga2Au
_chemical_formula_sum   'Th3 Mg3 Ga2 Au1'
_cell_volume   217.15380414
_cell_formula_units_Z   1
loop_
 _symmetry_equiv_pos_site_id
 _symmetry_equiv_pos_as_xyz
  1  'x, y, z'
loop_
 _atom_site_type_symbol
 _atom_site_label
 _atom_site_symmetry_multiplicity
 _atom_site_fract_x
 _atom_site_fract_y
 _atom_site_fract_z
 _atom_site_occupancy
  Th  Th0  1  0.000000  0.420389  0.000000  1
  Th  Th1  1  0.579611  0.579611  0.000000  1
  Th  Th2  1  0.420389  0.000000  0.000000  1
  Mg  Mg3  1  0.000000  0.761147  0.500000  1
  Mg  Mg4  1  0.238853  0.238853  0.500000  1
  Mg  Mg5  1  0.761147  0.000000  0.500000  1
  Ga  Ga6  1  0.333333  0.666667  0.500000  1
  Ga  Ga7  1  0.666667  0.333333  0.500000  1
  Au  Au8  1  0.000000  0.000000  0.000000  1
