# generated using pymatgen
data_La3Pr(B10Ir)2
_symmetry_space_group_name_H-M   'P 1'
_cell_length_a   4.24558000
_cell_length_b   5.78418306
_cell_length_c   11.52579112
_cell_angle_alpha   90.01680109
_cell_angle_beta   90.00000000
_cell_angle_gamma   90.00000000
_symmetry_Int_Tables_number   1
_chemical_formula_structural   La3Pr(B10Ir)2
_chemical_formula_sum   'La3 Pr1 B20 Ir2'
_cell_volume   283.04128306
_cell_formula_units_Z   1
loop_
 _symmetry_equiv_pos_site_id
 _symmetry_equiv_pos_as_xyz
  1  'x, y, z'
loop_
 _atom_site_type_symbol
 _atom_site_label
 _atom_site_symmetry_multiplicity
 _atom_site_fract_x
 _atom_site_fract_y
 _atom_site_fract_z
 _atom_site_occupancy
  La  La0  1  0.500000  0.206279  0.365877  1
  La  La1  1  0.500000  0.793438  0.633969  1
  La  La2  1  0.500000  0.293526  0.866171  1
  Pr  Pr3  1  0.500000  0.705787  0.133974  1
  B  B4  1  0.000000  0.380351  0.043381  1
  B  B5  1  0.000000  0.619734  0.956661  1
  B  B6  1  0.000000  0.119812  0.543403  1
  B  B7  1  0.000000  0.880262  0.456429  1
  B  B8  1  0.000000  0.360053  0.197073  1
  B  B9  1  0.000000  0.639501  0.803309  1
  B  B10  1  0.000000  0.139730  0.696945  1
  B  B11  1  0.000000  0.860619  0.303017  1
  B  B12  1  0.000000  0.055060  0.192715  1
  B  B13  1  0.000000  0.944990  0.807350  1
  B  B14  1  0.000000  0.444920  0.692709  1
  B  B15  1  0.000000  0.554881  0.307335  1
  B  B16  1  0.299642  0.217564  0.118184  1
  B  B17  1  0.700380  0.783178  0.881722  1
  B  B18  1  0.299620  0.783178  0.881722  1
  B  B19  1  0.700529  0.282916  0.618173  1
  B  B20  1  0.700358  0.217564  0.118184  1
  B  B21  1  0.299519  0.717138  0.381610  1
  B  B22  1  0.700481  0.717138  0.381610  1
  B  B23  1  0.299471  0.282916  0.618173  1
  Ir  Ir24  1  0.000000  0.999469  0.000426  1
  Ir  Ir25  1  0.000000  0.499995  0.499879  1
