# generated using pymatgen
data_MoRh3F24
_symmetry_space_group_name_H-M   'P 1'
_cell_length_a   5.21627201
_cell_length_b   9.02183900
_cell_length_c   10.08930501
_cell_angle_alpha   90.00000000
_cell_angle_beta   89.99442173
_cell_angle_gamma   90.00000000
_symmetry_Int_Tables_number   1
_chemical_formula_structural   MoRh3F24
_chemical_formula_sum   'Mo1 Rh3 F24'
_cell_volume   474.80638652
_cell_formula_units_Z   1
loop_
 _symmetry_equiv_pos_site_id
 _symmetry_equiv_pos_as_xyz
  1  'x, y, z'
loop_
 _atom_site_type_symbol
 _atom_site_label
 _atom_site_symmetry_multiplicity
 _atom_site_fract_x
 _atom_site_fract_y
 _atom_site_fract_z
 _atom_site_occupancy
  Mo  Mo0  1  0.431818  0.250000  0.366090  1
  Rh  Rh1  1  0.068107  0.250000  0.866091  1
  Rh  Rh2  1  0.568144  0.750000  0.633887  1
  Rh  Rh3  1  0.931767  0.750000  0.133967  1
  F  F4  1  0.200157  0.750000  0.010754  1
  F  F5  1  0.399306  0.897015  0.731459  1
  F  F6  1  0.100705  0.602989  0.231491  1
  F  F7  1  0.299913  0.750000  0.510735  1
  F  F8  1  0.664722  0.750000  0.258092  1
  F  F9  1  0.899322  0.396978  0.768506  1
  F  F10  1  0.165163  0.250000  0.242143  1
  F  F11  1  0.399306  0.602985  0.731459  1
  F  F12  1  0.835260  0.750000  0.758048  1
  F  F13  1  0.262142  0.103924  0.463820  1
  F  F14  1  0.600406  0.396742  0.268738  1
  F  F15  1  0.738131  0.896377  0.535973  1
  F  F16  1  0.335260  0.250000  0.741933  1
  F  F17  1  0.100705  0.897011  0.231491  1
  F  F18  1  0.262142  0.396076  0.463820  1
  F  F19  1  0.238143  0.103653  0.964030  1
  F  F20  1  0.699803  0.250000  0.488990  1
  F  F21  1  0.799846  0.250000  0.989273  1
  F  F22  1  0.899322  0.103022  0.768506  1
  F  F23  1  0.238143  0.396347  0.964030  1
  F  F24  1  0.761866  0.603625  0.035982  1
  F  F25  1  0.761866  0.896375  0.035982  1
  F  F26  1  0.738131  0.603623  0.535973  1
  F  F27  1  0.600406  0.103258  0.268738  1
