# generated using pymatgen
data_Hf6SnBiPt
_symmetry_space_group_name_H-M   'P 1'
_cell_length_a   3.65909500
_cell_length_b   7.89659126
_cell_length_c   7.89659300
_cell_angle_alpha   119.99999472
_cell_angle_beta   90.00000000
_cell_angle_gamma   90.00000000
_symmetry_Int_Tables_number   1
_chemical_formula_structural   Hf6SnBiPt
_chemical_formula_sum   'Hf6 Sn1 Bi1 Pt1'
_cell_volume   197.59855000
_cell_formula_units_Z   1
loop_
 _symmetry_equiv_pos_site_id
 _symmetry_equiv_pos_as_xyz
  1  'x, y, z'
loop_
 _atom_site_type_symbol
 _atom_site_label
 _atom_site_symmetry_multiplicity
 _atom_site_fract_x
 _atom_site_fract_y
 _atom_site_fract_z
 _atom_site_occupancy
  Hf  Hf0  1  0.500000  0.751346  0.747599  1
  Hf  Hf1  1  0.500000  0.996252  0.248654  1
  Hf  Hf2  1  0.500000  0.252401  0.003748  1
  Hf  Hf3  1  0.000000  0.398728  0.391903  1
  Hf  Hf4  1  0.000000  0.993175  0.601272  1
  Hf  Hf5  1  0.000000  0.608097  0.006825  1
  Sn  Sn6  1  0.500000  0.666667  0.333333  1
  Bi  Bi7  1  0.500000  0.333333  0.666667  1
  Pt  Pt8  1  0.000000  0.000000  0.000000  1
