# generated using pymatgen
data_Nd6Zn4PdPt12
_symmetry_space_group_name_H-M   'P 1'
_cell_length_a   8.39172840
_cell_length_b   8.39063472
_cell_length_c   8.39063449
_cell_angle_alpha   109.40301420
_cell_angle_beta   109.50268850
_cell_angle_gamma   109.50269068
_symmetry_Int_Tables_number   1
_chemical_formula_structural   Nd6Zn4PdPt12
_chemical_formula_sum   'Nd6 Zn4 Pd1 Pt12'
_cell_volume   454.82785318
_cell_formula_units_Z   1
loop_
 _symmetry_equiv_pos_site_id
 _symmetry_equiv_pos_as_xyz
  1  'x, y, z'
loop_
 _atom_site_type_symbol
 _atom_site_label
 _atom_site_symmetry_multiplicity
 _atom_site_fract_x
 _atom_site_fract_y
 _atom_site_fract_z
 _atom_site_occupancy
  Nd  Nd0  1  0.699772  0.699105  0.000667  1
  Nd  Nd1  1  0.300594  0.999933  0.300662  1
  Nd  Nd2  1  0.999963  0.300240  0.300240  1
  Nd  Nd3  1  0.300594  0.300662  0.999933  1
  Nd  Nd4  1  0.699772  0.000667  0.699105  1
  Nd  Nd5  1  0.999963  0.699723  0.699723  1
  Zn  Zn6  1  0.999902  0.999951  0.499951  1
  Zn  Zn7  1  0.999902  0.499951  0.999951  1
  Zn  Zn8  1  0.499693  0.999644  0.999644  1
  Zn  Zn9  1  0.499693  0.500050  0.500050  1
  Pd  Pd10  1  0.338058  0.669029  0.669029  1
  Pt  Pt11  1  0.330317  0.330575  0.660205  1
  Pt  Pt12  1  0.669812  0.000113  0.329940  1
  Pt  Pt13  1  0.000677  0.669892  0.330785  1
  Pt  Pt14  1  0.669812  0.329940  0.000113  1
  Pt  Pt15  1  0.330317  0.660205  0.330575  1
  Pt  Pt16  1  0.000677  0.330785  0.669892  1
  Pt  Pt17  1  0.330317  0.670112  0.999742  1
  Pt  Pt18  1  0.330317  0.999742  0.670112  1
  Pt  Pt19  1  0.660557  0.330279  0.330279  1
  Pt  Pt20  1  0.669812  0.669699  0.339872  1
  Pt  Pt21  1  0.669812  0.339872  0.669699  1
  Pt  Pt22  1  0.999665  0.999833  0.999833  1
