# generated using pymatgen
data_Ho7Lu3(TlSb2)2
_symmetry_space_group_name_H-M   'P 1'
_cell_length_a   8.89260133
_cell_length_b   8.89626690
_cell_length_c   6.37067700
_cell_angle_alpha   89.93738613
_cell_angle_beta   90.03132628
_cell_angle_gamma   120.01363401
_symmetry_Int_Tables_number   1
_chemical_formula_structural   Ho7Lu3(TlSb2)2
_chemical_formula_sum   'Ho7 Lu3 Tl2 Sb4'
_cell_volume   436.40820105
_cell_formula_units_Z   1
loop_
 _symmetry_equiv_pos_site_id
 _symmetry_equiv_pos_as_xyz
  1  'x, y, z'
loop_
 _atom_site_type_symbol
 _atom_site_label
 _atom_site_symmetry_multiplicity
 _atom_site_fract_x
 _atom_site_fract_y
 _atom_site_fract_z
 _atom_site_occupancy
  Ho  Ho0  1  0.334934  0.667467  0.500000  1
  Ho  Ho1  1  0.758417  0.997971  0.749901  1
  Ho  Ho2  1  0.758417  0.760446  0.250099  1
  Ho  Ho3  1  0.002235  0.242506  0.249859  1
  Ho  Ho4  1  0.002235  0.759730  0.750141  1
  Ho  Ho5  1  0.240614  0.236774  0.750226  1
  Ho  Ho6  1  0.240614  0.003839  0.249774  1
  Lu  Lu7  1  0.334727  0.667363  0.000000  1
  Lu  Lu8  1  0.662982  0.331490  0.500000  1
  Lu  Lu9  1  0.663570  0.331785  0.000000  1
  Tl  Tl10  1  0.395994  0.999518  0.751500  1
  Tl  Tl11  1  0.395994  0.396475  0.248500  1
  Sb  Sb12  1  0.998349  0.606113  0.249002  1
  Sb  Sb13  1  0.998349  0.392236  0.750998  1
  Sb  Sb14  1  0.606284  0.604835  0.750947  1
  Sb  Sb15  1  0.606284  0.001449  0.249053  1
