# generated using pymatgen
data_Tb4CCl6
_symmetry_space_group_name_H-M   'P 1'
_cell_length_a   3.80588500
_cell_length_b   12.50329400
_cell_length_c   13.03320800
_cell_angle_alpha   90.00000000
_cell_angle_beta   90.00000000
_cell_angle_gamma   90.00000000
_symmetry_Int_Tables_number   1
_chemical_formula_structural   Tb4CCl6
_chemical_formula_sum   'Tb8 C2 Cl12'
_cell_volume   620.19952729
_cell_formula_units_Z   2
loop_
 _symmetry_equiv_pos_site_id
 _symmetry_equiv_pos_as_xyz
  1  'x, y, z'
loop_
 _atom_site_type_symbol
 _atom_site_label
 _atom_site_symmetry_multiplicity
 _atom_site_fract_x
 _atom_site_fract_y
 _atom_site_fract_z
 _atom_site_occupancy
  Tb  Tb0  1  0.000000  0.105095  0.080491  1
  Tb  Tb1  1  0.000000  0.894905  0.919509  1
  Tb  Tb2  1  0.000000  0.605095  0.419509  1
  Tb  Tb3  1  0.000000  0.394905  0.580491  1
  Tb  Tb4  1  0.500000  0.123121  0.852084  1
  Tb  Tb5  1  0.500000  0.876879  0.147916  1
  Tb  Tb6  1  0.500000  0.623121  0.647916  1
  Tb  Tb7  1  0.500000  0.376879  0.352084  1
  C  C8  1  0.500000  0.000000  0.000000  1
  C  C9  1  0.500000  0.500000  0.500000  1
  Cl  Cl10  1  0.500000  0.264142  0.678393  1
  Cl  Cl11  1  0.500000  0.735858  0.321607  1
  Cl  Cl12  1  0.500000  0.764142  0.821607  1
  Cl  Cl13  1  0.500000  0.235858  0.178393  1
  Cl  Cl14  1  0.000000  0.258474  0.928320  1
  Cl  Cl15  1  0.000000  0.741526  0.071680  1
  Cl  Cl16  1  0.000000  0.484249  0.242409  1
  Cl  Cl17  1  0.000000  0.515751  0.757591  1
  Cl  Cl18  1  0.000000  0.984249  0.257591  1
  Cl  Cl19  1  0.000000  0.015751  0.742409  1
  Cl  Cl20  1  0.000000  0.241526  0.428320  1
  Cl  Cl21  1  0.000000  0.758474  0.571680  1
