# generated using pymatgen
data_InOs3F18
_symmetry_space_group_name_H-M   'P 1'
_cell_length_a   8.81770900
_cell_length_b   8.81770875
_cell_length_c   9.56125900
_cell_angle_alpha   90.00000000
_cell_angle_beta   90.00000000
_cell_angle_gamma   119.99999718
_symmetry_Int_Tables_number   1
_chemical_formula_structural   InOs3F18
_chemical_formula_sum   'In2 Os6 F36'
_cell_volume   643.80928988
_cell_formula_units_Z   2
loop_
 _symmetry_equiv_pos_site_id
 _symmetry_equiv_pos_as_xyz
  1  'x, y, z'
loop_
 _atom_site_type_symbol
 _atom_site_label
 _atom_site_symmetry_multiplicity
 _atom_site_fract_x
 _atom_site_fract_y
 _atom_site_fract_z
 _atom_site_occupancy
  In  In0  1  0.000000  0.000000  0.000000  1
  In  In1  1  0.000000  0.000000  0.500000  1
  Os  Os2  1  0.656317  0.000000  0.750000  1
  Os  Os3  1  0.343683  0.343683  0.750000  1
  Os  Os4  1  0.000000  0.656317  0.750000  1
  Os  Os5  1  0.656317  0.656317  0.250000  1
  Os  Os6  1  0.000000  0.343683  0.250000  1
  Os  Os7  1  0.343683  0.000000  0.250000  1
  F  F8  1  0.465479  0.903854  0.870511  1
  F  F9  1  0.438375  0.534521  0.870511  1
  F  F10  1  0.096146  0.561625  0.870511  1
  F  F11  1  0.465479  0.561625  0.370511  1
  F  F12  1  0.096146  0.534521  0.370511  1
  F  F13  1  0.438375  0.903854  0.370511  1
  F  F14  1  0.534521  0.096146  0.129489  1
  F  F15  1  0.561625  0.465479  0.129489  1
  F  F16  1  0.903854  0.438375  0.129489  1
  F  F17  1  0.534521  0.438375  0.629489  1
  F  F18  1  0.903854  0.465479  0.629489  1
  F  F19  1  0.561625  0.096146  0.629489  1
  F  F20  1  0.776877  0.903048  0.870944  1
  F  F21  1  0.126172  0.223123  0.870944  1
  F  F22  1  0.096952  0.873828  0.870944  1
  F  F23  1  0.776877  0.873828  0.370944  1
  F  F24  1  0.096952  0.223123  0.370944  1
  F  F25  1  0.126172  0.903048  0.370944  1
  F  F26  1  0.223123  0.096952  0.129056  1
  F  F27  1  0.873828  0.776877  0.129056  1
  F  F28  1  0.903048  0.126172  0.129056  1
  F  F29  1  0.223123  0.126172  0.629056  1
  F  F30  1  0.903048  0.776877  0.629056  1
  F  F31  1  0.873828  0.096952  0.629056  1
  F  F32  1  0.774623  0.206338  0.858842  1
  F  F33  1  0.431715  0.225377  0.858842  1
  F  F34  1  0.793662  0.568285  0.858842  1
  F  F35  1  0.774623  0.568285  0.358842  1
  F  F36  1  0.793662  0.225377  0.358842  1
  F  F37  1  0.431715  0.206338  0.358842  1
  F  F38  1  0.225377  0.793662  0.141158  1
  F  F39  1  0.568285  0.774623  0.141158  1
  F  F40  1  0.206338  0.431715  0.141158  1
  F  F41  1  0.225377  0.431715  0.641158  1
  F  F42  1  0.206338  0.774623  0.641158  1
  F  F43  1  0.568285  0.793662  0.641158  1
