# generated using pymatgen
data_Pr5DyNb2O14
_symmetry_space_group_name_H-M   'P 1'
_cell_length_a   6.71707356
_cell_length_b   6.67668095
_cell_length_c   7.75190200
_cell_angle_alpha   90.00000000
_cell_angle_beta   90.00000000
_cell_angle_gamma   108.67796741
_symmetry_Int_Tables_number   1
_chemical_formula_structural   Pr5DyNb2O14
_chemical_formula_sum   'Pr5 Dy1 Nb2 O14'
_cell_volume   329.34562252
_cell_formula_units_Z   1
loop_
 _symmetry_equiv_pos_site_id
 _symmetry_equiv_pos_as_xyz
  1  'x, y, z'
loop_
 _atom_site_type_symbol
 _atom_site_label
 _atom_site_symmetry_multiplicity
 _atom_site_fract_x
 _atom_site_fract_y
 _atom_site_fract_z
 _atom_site_occupancy
  Pr  Pr0  1  0.536899  0.529550  0.498619  1
  Pr  Pr1  1  0.536899  0.529550  0.001381  1
  Pr  Pr2  1  0.007175  0.462076  0.750000  1
  Pr  Pr3  1  0.535018  0.003061  0.750000  1
  Pr  Pr4  1  0.462300  0.003713  0.250000  1
  Dy  Dy5  1  0.003385  0.533920  0.250000  1
  Nb  Nb6  1  0.002467  0.002814  0.497408  1
  Nb  Nb7  1  0.002467  0.002814  0.002592  1
  O  O8  1  0.944100  0.058071  0.750000  1
  O  O9  1  0.060599  0.932505  0.250000  1
  O  O10  1  0.351764  0.632709  0.250000  1
  O  O11  1  0.642529  0.369714  0.750000  1
  O  O12  1  0.372408  0.630738  0.750000  1
  O  O13  1  0.646533  0.378604  0.250000  1
  O  O14  1  0.307778  0.071267  0.969105  1
  O  O15  1  0.676774  0.917380  0.473280  1
  O  O16  1  0.307778  0.071267  0.530895  1
  O  O17  1  0.676774  0.917380  0.026720  1
  O  O18  1  0.033028  0.298030  0.455856  1
  O  O19  1  0.930148  0.678403  0.978087  1
  O  O20  1  0.930148  0.678403  0.521913  1
  O  O21  1  0.033028  0.298030  0.044144  1
