# generated using pymatgen
data_Dy2Er7TmBi6
_symmetry_space_group_name_H-M   'P 1'
_cell_length_a   8.21459600
_cell_length_b   9.47099300
_cell_length_c   11.96074700
_cell_angle_alpha   90.00000000
_cell_angle_beta   90.00000000
_cell_angle_gamma   90.00000000
_symmetry_Int_Tables_number   1
_chemical_formula_structural   Dy2Er7TmBi6
_chemical_formula_sum   'Dy4 Er14 Tm2 Bi12'
_cell_volume   930.55067620
_cell_formula_units_Z   2
loop_
 _symmetry_equiv_pos_site_id
 _symmetry_equiv_pos_as_xyz
  1  'x, y, z'
loop_
 _atom_site_type_symbol
 _atom_site_label
 _atom_site_symmetry_multiplicity
 _atom_site_fract_x
 _atom_site_fract_y
 _atom_site_fract_z
 _atom_site_occupancy
  Dy  Dy0  1  0.312363  0.250000  0.218422  1
  Dy  Dy1  1  0.812363  0.250000  0.281578  1
  Dy  Dy2  1  0.687669  0.750000  0.781610  1
  Dy  Dy3  1  0.187669  0.750000  0.718390  1
  Er  Er4  1  0.352576  0.750000  0.216868  1
  Er  Er5  1  0.852576  0.750000  0.283132  1
  Er  Er6  1  0.647422  0.250000  0.783216  1
  Er  Er7  1  0.147422  0.250000  0.716784  1
  Er  Er8  1  0.692722  0.565355  0.059178  1
  Er  Er9  1  0.192722  0.934645  0.440822  1
  Er  Er10  1  0.307360  0.065327  0.940834  1
  Er  Er11  1  0.807360  0.434673  0.559166  1
  Er  Er12  1  0.307360  0.434673  0.940834  1
  Er  Er13  1  0.807360  0.065327  0.559166  1
  Er  Er14  1  0.692722  0.934645  0.059178  1
  Er  Er15  1  0.192722  0.565355  0.440822  1
  Er  Er16  1  0.475891  0.250000  0.488860  1
  Er  Er17  1  0.975891  0.250000  0.011140  1
  Tm  Tm18  1  0.523974  0.750000  0.511072  1
  Tm  Tm19  1  0.023974  0.750000  0.988928  1
  Bi  Bi20  1  0.405292  0.750000  0.958161  1
  Bi  Bi21  1  0.905292  0.750000  0.541839  1
  Bi  Bi22  1  0.594458  0.250000  0.041849  1
  Bi  Bi23  1  0.094458  0.250000  0.458151  1
  Bi  Bi24  1  0.565268  0.994714  0.325878  1
  Bi  Bi25  1  0.065268  0.505286  0.174122  1
  Bi  Bi26  1  0.434828  0.494979  0.674123  1
  Bi  Bi27  1  0.934828  0.005021  0.825877  1
  Bi  Bi28  1  0.434828  0.005021  0.674123  1
  Bi  Bi29  1  0.934828  0.494979  0.825877  1
  Bi  Bi30  1  0.565268  0.505286  0.325878  1
  Bi  Bi31  1  0.065268  0.994714  0.174122  1
