# generated using pymatgen
data_Sc22OsPdRu6
_symmetry_space_group_name_H-M   'P 1'
_cell_length_a   9.48515690
_cell_length_b   9.48515667
_cell_length_c   9.43795500
_cell_angle_alpha   60.16448445
_cell_angle_beta   60.16448525
_cell_angle_gamma   60.20832734
_symmetry_Int_Tables_number   1
_chemical_formula_structural   Sc22OsPdRu6
_chemical_formula_sum   'Sc22 Os1 Pd1 Ru6'
_cell_volume   602.85061006
_cell_formula_units_Z   1
loop_
 _symmetry_equiv_pos_site_id
 _symmetry_equiv_pos_as_xyz
  1  'x, y, z'
loop_
 _atom_site_type_symbol
 _atom_site_label
 _atom_site_symmetry_multiplicity
 _atom_site_fract_x
 _atom_site_fract_y
 _atom_site_fract_z
 _atom_site_occupancy
  Sc  Sc0  1  0.843100  0.843100  0.842855  1
  Sc  Sc1  1  0.531224  0.150983  0.158896  1
  Sc  Sc2  1  0.156900  0.156900  0.529053  1
  Sc  Sc3  1  0.150983  0.531224  0.158896  1
  Sc  Sc4  1  0.843100  0.843100  0.470947  1
  Sc  Sc5  1  0.849017  0.468776  0.841104  1
  Sc  Sc6  1  0.468776  0.849017  0.841104  1
  Sc  Sc7  1  0.156900  0.156900  0.157145  1
  Sc  Sc8  1  0.195727  0.804273  0.199172  1
  Sc  Sc9  1  0.195727  0.804273  0.800828  1
  Sc  Sc10  1  0.804273  0.195727  0.199172  1
  Sc  Sc11  1  0.802183  0.802183  0.197817  1
  Sc  Sc12  1  0.197817  0.197817  0.802183  1
  Sc  Sc13  1  0.804273  0.195727  0.800828  1
  Sc  Sc14  1  0.381396  0.381396  0.388080  1
  Sc  Sc15  1  0.150624  0.616608  0.616384  1
  Sc  Sc16  1  0.616608  0.150624  0.616384  1
  Sc  Sc17  1  0.618604  0.618604  0.150873  1
  Sc  Sc18  1  0.383392  0.849376  0.383616  1
  Sc  Sc19  1  0.381396  0.381396  0.849127  1
  Sc  Sc20  1  0.849376  0.383392  0.383616  1
  Sc  Sc21  1  0.618604  0.618604  0.611920  1
  Os  Os22  1  0.500000  0.500000  0.500000  1
  Pd  Pd23  1  0.500000  0.500000  0.000000  1
  Ru  Ru24  1  0.000000  0.000000  0.500000  1
  Ru  Ru25  1  0.500000  0.000000  0.500000  1
  Ru  Ru26  1  0.000000  0.500000  0.500000  1
  Ru  Ru27  1  0.500000  0.000000  0.000000  1
  Ru  Ru28  1  0.000000  0.500000  0.000000  1
  Ru  Ru29  1  0.000000  0.000000  0.000000  1
