# generated using pymatgen
data_SrLa3(PPd)4
_symmetry_space_group_name_H-M   'P 1'
_cell_length_a   8.18515101
_cell_length_b   4.26227800
_cell_length_c   7.37535701
_cell_angle_alpha   90.00000000
_cell_angle_beta   90.00666085
_cell_angle_gamma   90.00000000
_symmetry_Int_Tables_number   1
_chemical_formula_structural   SrLa3(PPd)4
_chemical_formula_sum   'Sr1 La3 P4 Pd4'
_cell_volume   257.30694805
_cell_formula_units_Z   1
loop_
 _symmetry_equiv_pos_site_id
 _symmetry_equiv_pos_as_xyz
  1  'x, y, z'
loop_
 _atom_site_type_symbol
 _atom_site_label
 _atom_site_symmetry_multiplicity
 _atom_site_fract_x
 _atom_site_fract_y
 _atom_site_fract_z
 _atom_site_occupancy
  Sr  Sr0  1  0.999838  0.750000  0.248576  1
  La  La1  1  0.500026  0.750000  0.251062  1
  La  La2  1  0.500133  0.249999  0.748750  1
  La  La3  1  0.999969  0.249999  0.751274  1
  P  P4  1  0.737410  0.249999  0.082078  1
  P  P5  1  0.259762  0.249999  0.418066  1
  P  P6  1  0.748312  0.750000  0.583667  1
  P  P7  1  0.254882  0.750000  0.916417  1
  Pd  Pd8  1  0.252452  0.249999  0.080774  1
  Pd  Pd9  1  0.749585  0.249999  0.419284  1
  Pd  Pd10  1  0.249437  0.750000  0.584352  1
  Pd  Pd11  1  0.748195  0.750000  0.915699  1
