# generated using pymatgen
data_Tb8Tm2Ru3Rh
_symmetry_space_group_name_H-M   'P 1'
_cell_length_a   6.37072801
_cell_length_b   7.28142509
_cell_length_c   8.50748795
_cell_angle_alpha   96.69133263
_cell_angle_beta   111.84453807
_cell_angle_gamma   90.08128661
_symmetry_Int_Tables_number   1
_chemical_formula_structural   Tb8Tm2Ru3Rh
_chemical_formula_sum   'Tb8 Tm2 Ru3 Rh1'
_cell_volume   363.38385733
_cell_formula_units_Z   1
loop_
 _symmetry_equiv_pos_site_id
 _symmetry_equiv_pos_as_xyz
  1  'x, y, z'
loop_
 _atom_site_type_symbol
 _atom_site_label
 _atom_site_symmetry_multiplicity
 _atom_site_fract_x
 _atom_site_fract_y
 _atom_site_fract_z
 _atom_site_occupancy
  Tb  Tb0  1  0.793831  0.081568  0.815709  1
  Tb  Tb1  1  0.979365  0.415354  0.187515  1
  Tb  Tb2  1  0.207816  0.915767  0.185035  1
  Tb  Tb3  1  0.025236  0.585746  0.815722  1
  Tb  Tb4  1  0.204603  0.184086  0.565689  1
  Tb  Tb5  1  0.641551  0.314026  0.430197  1
  Tb  Tb6  1  0.791914  0.814015  0.432747  1
  Tb  Tb7  1  0.357655  0.687525  0.565403  1
  Tm  Tm8  1  0.422462  0.249135  0.000817  1
  Tm  Tm9  1  0.577005  0.752279  0.001603  1
  Ru  Ru10  1  0.821050  0.075824  0.217394  1
  Ru  Ru11  1  0.396332  0.573993  0.218321  1
  Ru  Ru12  1  0.180046  0.925220  0.781995  1
  Rh  Rh13  1  0.601134  0.425463  0.781853  1
