# generated using pymatgen
data_Ho5Er(TmIn2)4
_symmetry_space_group_name_H-M   'P 1'
_cell_length_a   9.21350013
_cell_length_b   9.21350022
_cell_length_c   6.64300600
_cell_angle_alpha   90.00000000
_cell_angle_beta   90.00000000
_cell_angle_gamma   119.98100367
_symmetry_Int_Tables_number   1
_chemical_formula_structural   Ho5Er(TmIn2)4
_chemical_formula_sum   'Ho5 Er1 Tm4 In8'
_cell_volume   488.45850259
_cell_formula_units_Z   1
loop_
 _symmetry_equiv_pos_site_id
 _symmetry_equiv_pos_as_xyz
  1  'x, y, z'
loop_
 _atom_site_type_symbol
 _atom_site_label
 _atom_site_symmetry_multiplicity
 _atom_site_fract_x
 _atom_site_fract_y
 _atom_site_fract_z
 _atom_site_occupancy
  Ho  Ho0  1  0.289179  0.999968  0.750000  1
  Ho  Ho1  1  0.710797  0.999974  0.250000  1
  Ho  Ho2  1  0.999968  0.289179  0.750000  1
  Ho  Ho3  1  0.999974  0.710797  0.250000  1
  Ho  Ho4  1  0.710864  0.710864  0.750000  1
  Er  Er5  1  0.289200  0.289200  0.250000  1
  Tm  Tm6  1  0.333360  0.666585  0.499956  1
  Tm  Tm7  1  0.666585  0.333360  0.499956  1
  Tm  Tm8  1  0.666585  0.333360  0.000044  1
  Tm  Tm9  1  0.333360  0.666585  0.000044  1
  In  In10  1  0.000101  0.000101  0.499901  1
  In  In11  1  0.000101  0.000101  0.000099  1
  In  In12  1  0.627918  0.999983  0.750000  1
  In  In13  1  0.372056  0.000154  0.250000  1
  In  In14  1  0.999983  0.627918  0.750000  1
  In  In15  1  0.000154  0.372056  0.250000  1
  In  In16  1  0.372144  0.372144  0.750000  1
  In  In17  1  0.627671  0.627671  0.250000  1
