# generated using pymatgen
data_La12Pt3RhBr12
_symmetry_space_group_name_H-M   'P 1'
_cell_length_a   10.65672281
_cell_length_b   10.65672238
_cell_length_c   10.76390200
_cell_angle_alpha   109.67508265
_cell_angle_beta   109.67508182
_cell_angle_gamma   109.26658779
_symmetry_Int_Tables_number   1
_chemical_formula_structural   La12Pt3RhBr12
_chemical_formula_sum   'La12 Pt3 Rh1 Br12'
_cell_volume   938.63413737
_cell_formula_units_Z   1
loop_
 _symmetry_equiv_pos_site_id
 _symmetry_equiv_pos_as_xyz
  1  'x, y, z'
loop_
 _atom_site_type_symbol
 _atom_site_label
 _atom_site_symmetry_multiplicity
 _atom_site_fract_x
 _atom_site_fract_y
 _atom_site_fract_z
 _atom_site_occupancy
  La  La0  1  0.265758  0.753306  0.237338  1
  La  La1  1  0.487548  0.753306  0.015968  1
  La  La2  1  0.236256  0.472511  0.486256  1
  La  La3  1  0.013525  0.027050  0.263525  1
  La  La4  1  0.236256  0.263744  0.750000  1
  La  La5  1  0.013525  0.486475  0.750000  1
  La  La6  1  0.487548  0.234242  0.471579  1
  La  La7  1  0.265758  0.012452  0.028421  1
  La  La8  1  0.746694  0.234242  0.262662  1
  La  La9  1  0.746694  0.012452  0.484032  1
  La  La10  1  0.472950  0.486475  0.236475  1
  La  La11  1  0.027489  0.263744  0.013744  1
  Pt  Pt12  1  0.250301  0.500601  0.000301  1
  Pt  Pt13  1  0.999399  0.249699  0.499699  1
  Pt  Pt14  1  0.250301  0.249699  0.250000  1
  Rh  Rh15  1  0.500000  0.000000  0.250000  1
  Br  Br16  1  0.250074  0.995500  0.505360  1
  Br  Br17  1  0.510493  0.505245  0.755245  1
  Br  Br18  1  0.250074  0.754573  0.744713  1
  Br  Br19  1  0.989816  0.744909  0.994909  1
  Br  Br20  1  0.994755  0.505245  0.250000  1
  Br  Br21  1  0.745427  0.995500  0.990139  1
  Br  Br22  1  0.755091  0.744909  0.250000  1
  Br  Br23  1  0.504500  0.754573  0.509861  1
  Br  Br24  1  0.504500  0.249926  0.994640  1
  Br  Br25  1  0.755091  0.510184  0.505091  1
  Br  Br26  1  0.745427  0.249926  0.755287  1
  Br  Br27  1  0.994755  0.989507  0.744755  1
