# generated using pymatgen
data_Sc2Ni10Mo2P7
_symmetry_space_group_name_H-M   'P 1'
_cell_length_a   9.08075082
_cell_length_b   9.10826405
_cell_length_c   3.62386700
_cell_angle_alpha   90.00000000
_cell_angle_beta   90.00000000
_cell_angle_gamma   119.95508731
_symmetry_Int_Tables_number   1
_chemical_formula_structural   Sc2Ni10Mo2P7
_chemical_formula_sum   'Sc2 Ni10 Mo2 P7'
_cell_volume   259.69083555
_cell_formula_units_Z   1
loop_
 _symmetry_equiv_pos_site_id
 _symmetry_equiv_pos_as_xyz
  1  'x, y, z'
loop_
 _atom_site_type_symbol
 _atom_site_label
 _atom_site_symmetry_multiplicity
 _atom_site_fract_x
 _atom_site_fract_y
 _atom_site_fract_z
 _atom_site_occupancy
  Sc  Sc0  1  0.330011  0.668205  0.000000  1
  Sc  Sc1  1  0.666517  0.332868  0.499998  1
  Ni  Ni2  1  0.126557  0.290401  0.000000  1
  Ni  Ni3  1  0.715876  0.835868  0.000000  1
  Ni  Ni4  1  0.156630  0.873585  0.000000  1
  Ni  Ni5  1  0.903308  0.775996  0.499998  1
  Ni  Ni6  1  0.054720  0.442437  0.499998  1
  Ni  Ni7  1  0.564507  0.614911  0.499998  1
  Ni  Ni8  1  0.385544  0.942667  0.499998  1
  Ni  Ni9  1  0.438029  0.376043  0.000000  1
  Ni  Ni10  1  0.626234  0.063012  0.000000  1
  Ni  Ni11  1  0.934926  0.562196  0.000000  1
  Mo  Mo12  1  0.219672  0.123850  0.499998  1
  Mo  Mo13  1  0.878746  0.096614  0.499998  1
  P  P14  1  0.292793  0.416084  0.499998  1
  P  P15  1  0.585773  0.876228  0.499998  1
  P  P16  1  0.119495  0.710628  0.499998  1
  P  P17  1  0.415744  0.119344  0.000000  1
  P  P18  1  0.881063  0.297656  0.000000  1
  P  P19  1  0.706818  0.586689  0.000000  1
  P  P20  1  0.997036  0.994715  0.000000  1
