# generated using pymatgen
data_K2RbCuSe13
_symmetry_space_group_name_H-M   'P 1'
_cell_length_a   5.12393700
_cell_length_b   13.83086842
_cell_length_c   15.43942806
_cell_angle_alpha   85.45985177
_cell_angle_beta   90.00000000
_cell_angle_gamma   90.00000000
_symmetry_Int_Tables_number   1
_chemical_formula_structural   K2RbCuSe13
_chemical_formula_sum   'K4 Rb2 Cu2 Se26'
_cell_volume   1090.73570263
_cell_formula_units_Z   2
loop_
 _symmetry_equiv_pos_site_id
 _symmetry_equiv_pos_as_xyz
  1  'x, y, z'
loop_
 _atom_site_type_symbol
 _atom_site_label
 _atom_site_symmetry_multiplicity
 _atom_site_fract_x
 _atom_site_fract_y
 _atom_site_fract_z
 _atom_site_occupancy
  K  K0  1  0.209120  0.163406  0.711824  1
  K  K1  1  0.209120  0.336594  0.288176  1
  K  K2  1  0.790880  0.836594  0.288176  1
  K  K3  1  0.790880  0.663406  0.711824  1
  Rb  Rb4  1  0.159606  0.250000  0.000000  1
  Rb  Rb5  1  0.840394  0.750000  0.000000  1
  Cu  Cu6  1  0.000000  0.500000  0.500000  1
  Cu  Cu7  1  0.000000  0.000000  0.500000  1
  Se  Se8  1  0.278598  0.549609  0.611320  1
  Se  Se9  1  0.657579  0.577643  0.276858  1
  Se  Se10  1  0.342421  0.077643  0.276858  1
  Se  Se11  1  0.342421  0.422357  0.723142  1
  Se  Se12  1  0.934409  0.534969  0.159602  1
  Se  Se13  1  0.934409  0.965031  0.840398  1
  Se  Se14  1  0.065591  0.465031  0.840398  1
  Se  Se15  1  0.065591  0.034969  0.159602  1
  Se  Se16  1  0.683105  0.421719  0.085132  1
  Se  Se17  1  0.657579  0.922357  0.723142  1
  Se  Se18  1  0.316895  0.578281  0.914868  1
  Se  Se19  1  0.316895  0.921719  0.085132  1
  Se  Se20  1  0.690777  0.266448  0.161597  1
  Se  Se21  1  0.690777  0.233552  0.838403  1
  Se  Se22  1  0.309223  0.733552  0.838403  1
  Se  Se23  1  0.309223  0.766448  0.161597  1
  Se  Se24  1  0.073596  0.650877  0.419441  1
  Se  Se25  1  0.073596  0.849123  0.580559  1
  Se  Se26  1  0.926404  0.349123  0.580559  1
  Se  Se27  1  0.926404  0.150877  0.419441  1
  Se  Se28  1  0.648043  0.250000  0.500000  1
  Se  Se29  1  0.351957  0.750000  0.500000  1
  Se  Se30  1  0.721402  0.450391  0.388680  1
  Se  Se31  1  0.721402  0.049609  0.611320  1
  Se  Se32  1  0.683105  0.078281  0.914868  1
  Se  Se33  1  0.278598  0.950391  0.388680  1
