# generated using pymatgen
data_Sr2ScMnO6
_symmetry_space_group_name_H-M   'P 1'
_cell_length_a   5.63343500
_cell_length_b   5.63343555
_cell_length_c   9.75896902
_cell_angle_alpha   73.22413709
_cell_angle_beta   90.00000000
_cell_angle_gamma   120.00000263
_symmetry_Int_Tables_number   1
_chemical_formula_structural   Sr2ScMnO6
_chemical_formula_sum   'Sr4 Sc2 Mn2 O12'
_cell_volume   252.87953679
_cell_formula_units_Z   2
loop_
 _symmetry_equiv_pos_site_id
 _symmetry_equiv_pos_as_xyz
  1  'x, y, z'
loop_
 _atom_site_type_symbol
 _atom_site_label
 _atom_site_symmetry_multiplicity
 _atom_site_fract_x
 _atom_site_fract_y
 _atom_site_fract_z
 _atom_site_occupancy
  Sr  Sr0  1  0.625004  0.250009  0.124987  1
  Sr  Sr1  1  0.125004  0.250009  0.624987  1
  Sr  Sr2  1  0.874996  0.749991  0.375013  1
  Sr  Sr3  1  0.374996  0.749991  0.875013  1
  Sc  Sc4  1  0.000000  0.000000  0.000000  1
  Sc  Sc5  1  0.500000  0.000000  0.500000  1
  Mn  Mn6  1  0.750000  0.500000  0.750000  1
  Mn  Mn7  1  0.250000  0.500000  0.250000  1
  O  O8  1  0.130128  0.260257  0.130111  1
  O  O9  1  0.630128  0.260257  0.630111  1
  O  O10  1  0.369872  0.260240  0.369889  1
  O  O11  1  0.869872  0.260240  0.869889  1
  O  O12  1  0.609632  0.739760  0.130111  1
  O  O13  1  0.109632  0.739760  0.630111  1
  O  O14  1  0.369872  0.739743  0.369889  1
  O  O15  1  0.869872  0.739743  0.869889  1
  O  O16  1  0.130128  0.739760  0.130111  1
  O  O17  1  0.630128  0.739760  0.630111  1
  O  O18  1  0.890368  0.260240  0.369889  1
  O  O19  1  0.390368  0.260240  0.869889  1
