# generated using pymatgen
data_TbY3(ErBi)6
_symmetry_space_group_name_H-M   'P 1'
_cell_length_a   8.23752200
_cell_length_b   9.45752500
_cell_length_c   12.05163200
_cell_angle_alpha   90.00000000
_cell_angle_beta   90.00000000
_cell_angle_gamma   90.00000000
_symmetry_Int_Tables_number   1
_chemical_formula_structural   TbY3(ErBi)6
_chemical_formula_sum   'Tb2 Y6 Er12 Bi12'
_cell_volume   938.90131507
_cell_formula_units_Z   2
loop_
 _symmetry_equiv_pos_site_id
 _symmetry_equiv_pos_as_xyz
  1  'x, y, z'
loop_
 _atom_site_type_symbol
 _atom_site_label
 _atom_site_symmetry_multiplicity
 _atom_site_fract_x
 _atom_site_fract_y
 _atom_site_fract_z
 _atom_site_occupancy
  Tb  Tb0  1  0.186394  0.750000  0.718877  1
  Tb  Tb1  1  0.686394  0.750000  0.781123  1
  Y  Y2  1  0.813591  0.250000  0.281191  1
  Y  Y3  1  0.313591  0.250000  0.218809  1
  Y  Y4  1  0.353843  0.750000  0.215612  1
  Y  Y5  1  0.853843  0.750000  0.284388  1
  Y  Y6  1  0.646222  0.250000  0.784389  1
  Y  Y7  1  0.146222  0.250000  0.715611  1
  Er  Er8  1  0.025662  0.750000  0.988761  1
  Er  Er9  1  0.525662  0.750000  0.511239  1
  Er  Er10  1  0.974254  0.250000  0.011073  1
  Er  Er11  1  0.474254  0.250000  0.488927  1
  Er  Er12  1  0.306445  0.435655  0.940179  1
  Er  Er13  1  0.806445  0.064345  0.559821  1
  Er  Er14  1  0.693671  0.935555  0.059796  1
  Er  Er15  1  0.193671  0.564445  0.440204  1
  Er  Er16  1  0.693671  0.564445  0.059796  1
  Er  Er17  1  0.193671  0.935555  0.440204  1
  Er  Er18  1  0.306445  0.064345  0.940179  1
  Er  Er19  1  0.806445  0.435655  0.559821  1
  Bi  Bi20  1  0.433849  0.004074  0.673211  1
  Bi  Bi21  1  0.933849  0.495926  0.826789  1
  Bi  Bi22  1  0.566140  0.503779  0.326804  1
  Bi  Bi23  1  0.066140  0.996221  0.173196  1
  Bi  Bi24  1  0.566140  0.996221  0.326804  1
  Bi  Bi25  1  0.066140  0.503779  0.173196  1
  Bi  Bi26  1  0.433849  0.495926  0.673211  1
  Bi  Bi27  1  0.933849  0.004074  0.826789  1
  Bi  Bi28  1  0.408455  0.750000  0.958172  1
  Bi  Bi29  1  0.908455  0.750000  0.541828  1
  Bi  Bi30  1  0.591366  0.250000  0.041918  1
  Bi  Bi31  1  0.091366  0.250000  0.458082  1
