# generated using pymatgen
data_Sm4Ga18(OsPt)3
_symmetry_space_group_name_H-M   'P 1'
_cell_length_a   7.66315033
_cell_length_b   7.66315105
_cell_length_c   9.61971008
_cell_angle_alpha   89.97030760
_cell_angle_beta   89.97030480
_cell_angle_gamma   119.50983906
_symmetry_Int_Tables_number   1
_chemical_formula_structural   Sm4Ga18(OsPt)3
_chemical_formula_sum   'Sm4 Ga18 Os3 Pt3'
_cell_volume   491.62171485
_cell_formula_units_Z   1
loop_
 _symmetry_equiv_pos_site_id
 _symmetry_equiv_pos_as_xyz
  1  'x, y, z'
loop_
 _atom_site_type_symbol
 _atom_site_label
 _atom_site_symmetry_multiplicity
 _atom_site_fract_x
 _atom_site_fract_y
 _atom_site_fract_z
 _atom_site_occupancy
  Sm  Sm0  1  0.999055  0.670264  0.250824  1
  Sm  Sm1  1  0.003080  0.331941  0.749223  1
  Sm  Sm2  1  0.668059  0.996920  0.250777  1
  Sm  Sm3  1  0.329736  0.000945  0.749176  1
  Ga  Ga4  1  0.123327  0.125096  0.250390  1
  Ga  Ga5  1  0.874904  0.876673  0.749610  1
  Ga  Ga6  1  0.001355  0.330427  0.080183  1
  Ga  Ga7  1  0.997942  0.670131  0.918835  1
  Ga  Ga8  1  0.992689  0.664576  0.578674  1
  Ga  Ga9  1  0.335424  0.007312  0.421326  1
  Ga  Ga10  1  0.997148  0.331188  0.421135  1
  Ga  Ga11  1  0.668812  0.002852  0.578865  1
  Ga  Ga12  1  0.669573  0.998645  0.919817  1
  Ga  Ga13  1  0.329869  0.002059  0.081165  1
  Ga  Ga14  1  0.331374  0.325384  0.559378  1
  Ga  Ga15  1  0.674616  0.668626  0.440622  1
  Ga  Ga16  1  0.672717  0.672668  0.063445  1
  Ga  Ga17  1  0.327332  0.327283  0.936555  1
  Ga  Ga18  1  0.341591  0.542144  0.250525  1
  Ga  Ga19  1  0.656926  0.451777  0.746108  1
  Ga  Ga20  1  0.548223  0.343074  0.253892  1
  Ga  Ga21  1  0.457856  0.658409  0.749475  1
  Os  Os22  1  0.671493  0.328507  0.500000  1
  Os  Os23  1  0.999818  0.000182  0.000000  1
  Os  Os24  1  0.999290  0.000710  0.500000  1
  Pt  Pt25  1  0.670573  0.329427  0.000000  1
  Pt  Pt26  1  0.329110  0.670890  0.000000  1
  Pt  Pt27  1  0.328108  0.671892  0.500000  1
