# generated using pymatgen
data_Tb2PrEr5(CdPt)2
_symmetry_space_group_name_H-M   'P 1'
_cell_length_a   9.66806397
_cell_length_b   9.68369575
_cell_length_c   9.68369760
_cell_angle_alpha   59.89322652
_cell_angle_beta   60.05338562
_cell_angle_gamma   60.05338679
_symmetry_Int_Tables_number   1
_chemical_formula_structural   Tb2PrEr5(CdPt)2
_chemical_formula_sum   'Tb4 Pr2 Er10 Cd4 Pt4'
_cell_volume   641.06875297
_cell_formula_units_Z   2
loop_
 _symmetry_equiv_pos_site_id
 _symmetry_equiv_pos_as_xyz
  1  'x, y, z'
loop_
 _atom_site_type_symbol
 _atom_site_label
 _atom_site_symmetry_multiplicity
 _atom_site_fract_x
 _atom_site_fract_y
 _atom_site_fract_z
 _atom_site_occupancy
  Tb  Tb0  1  0.561946  0.938054  0.561946  1
  Tb  Tb1  1  0.938054  0.561946  0.938054  1
  Tb  Tb2  1  0.561946  0.561946  0.938054  1
  Tb  Tb3  1  0.938054  0.938054  0.561946  1
  Pr  Pr4  1  0.934729  0.565271  0.565271  1
  Pr  Pr5  1  0.565271  0.934729  0.934729  1
  Er  Er6  1  0.352113  0.350860  0.350860  1
  Er  Er7  1  0.350860  0.352113  0.946167  1
  Er  Er8  1  0.350860  0.946167  0.352113  1
  Er  Er9  1  0.946167  0.350860  0.350860  1
  Er  Er10  1  0.811109  0.188891  0.188891  1
  Er  Er11  1  0.188891  0.811109  0.811109  1
  Er  Er12  1  0.188784  0.811216  0.188784  1
  Er  Er13  1  0.811216  0.188784  0.811216  1
  Er  Er14  1  0.188784  0.188784  0.811216  1
  Er  Er15  1  0.811216  0.811216  0.188784  1
  Cd  Cd16  1  0.578969  0.581700  0.581700  1
  Cd  Cd17  1  0.581700  0.578969  0.257630  1
  Cd  Cd18  1  0.581700  0.257630  0.578969  1
  Cd  Cd19  1  0.257630  0.581700  0.581700  1
  Pt  Pt20  1  0.141312  0.143742  0.143742  1
  Pt  Pt21  1  0.143742  0.141312  0.571203  1
  Pt  Pt22  1  0.143742  0.571203  0.141312  1
  Pt  Pt23  1  0.571203  0.143742  0.143742  1
