# generated using pymatgen
data_HoSc7Ti10(Si8Mo)2
_symmetry_space_group_name_H-M   'P 1'
_cell_length_a   6.86906458
_cell_length_b   6.87241527
_cell_length_c   12.59047491
_cell_angle_alpha   89.94768922
_cell_angle_beta   90.07652702
_cell_angle_gamma   89.94943504
_symmetry_Int_Tables_number   1
_chemical_formula_structural   HoSc7Ti10(Si8Mo)2
_chemical_formula_sum   'Ho1 Sc7 Ti10 Si16 Mo2'
_cell_volume   594.35834864
_cell_formula_units_Z   1
loop_
 _symmetry_equiv_pos_site_id
 _symmetry_equiv_pos_as_xyz
  1  'x, y, z'
loop_
 _atom_site_type_symbol
 _atom_site_label
 _atom_site_symmetry_multiplicity
 _atom_site_fract_x
 _atom_site_fract_y
 _atom_site_fract_z
 _atom_site_occupancy
  Ho  Ho0  1  0.997611  0.659440  0.033115  1
  Sc  Sc1  1  0.341339  0.000411  0.466648  1
  Sc  Sc2  1  0.498414  0.841267  0.716885  1
  Sc  Sc3  1  0.497578  0.158125  0.217890  1
  Sc  Sc4  1  0.842890  0.500733  0.282660  1
  Sc  Sc5  1  0.158785  0.499605  0.783547  1
  Sc  Sc6  1  0.655640  0.001294  0.966959  1
  Sc  Sc7  1  0.001462  0.341567  0.532011  1
  Ti  Ti8  1  0.827371  0.172655  0.749320  1
  Ti  Ti9  1  0.672430  0.673147  0.499563  1
  Ti  Ti10  1  0.152168  0.005348  0.873965  1
  Ti  Ti11  1  0.493762  0.650054  0.124410  1
  Ti  Ti12  1  0.505915  0.351562  0.624635  1
  Ti  Ti13  1  0.649259  0.490556  0.875008  1
  Ti  Ti14  1  0.350471  0.506741  0.375737  1
  Ti  Ti15  1  0.851375  0.993881  0.374850  1
  Ti  Ti16  1  0.007952  0.150541  0.126612  1
  Ti  Ti17  1  0.993925  0.851948  0.624320  1
  Si  Si18  1  0.204706  0.136804  0.679088  1
  Si  Si19  1  0.369147  0.705401  0.928216  1
  Si  Si20  1  0.637153  0.295006  0.429402  1
  Si  Si21  1  0.701081  0.360196  0.070029  1
  Si  Si22  1  0.294880  0.636842  0.570476  1
  Si  Si23  1  0.791469  0.869440  0.183004  1
  Si  Si24  1  0.135793  0.204808  0.321798  1
  Si  Si25  1  0.861994  0.796098  0.818003  1
  Si  Si26  1  0.299688  0.955908  0.065092  1
  Si  Si27  1  0.544615  0.797166  0.315743  1
  Si  Si28  1  0.452881  0.201922  0.814588  1
  Si  Si29  1  0.798424  0.546366  0.684256  1
  Si  Si30  1  0.206399  0.451633  0.187487  1
  Si  Si31  1  0.701465  0.046716  0.564883  1
  Si  Si32  1  0.953208  0.290198  0.934067  1
  Si  Si33  1  0.046939  0.702336  0.434636  1
  Mo  Mo34  1  0.327576  0.325643  0.000396  1
  Mo  Mo35  1  0.174233  0.828635  0.250699  1
