# generated using pymatgen
data_Sc10CoHg3
_symmetry_space_group_name_H-M   'P 1'
_cell_length_a   8.98462200
_cell_length_b   8.98462209
_cell_length_c   8.92513800
_cell_angle_alpha   90.00000000
_cell_angle_beta   90.00000000
_cell_angle_gamma   119.99999967
_symmetry_Int_Tables_number   1
_chemical_formula_structural   Sc10CoHg3
_chemical_formula_sum   'Sc20 Co2 Hg6'
_cell_volume   623.94340392
_cell_formula_units_Z   2
loop_
 _symmetry_equiv_pos_site_id
 _symmetry_equiv_pos_as_xyz
  1  'x, y, z'
loop_
 _atom_site_type_symbol
 _atom_site_label
 _atom_site_symmetry_multiplicity
 _atom_site_fract_x
 _atom_site_fract_y
 _atom_site_fract_z
 _atom_site_occupancy
  Sc  Sc0  1  0.000000  0.000000  0.500000  1
  Sc  Sc1  1  0.000000  0.000000  0.000000  1
  Sc  Sc2  1  0.541940  0.458060  0.250000  1
  Sc  Sc3  1  0.541940  0.083881  0.250000  1
  Sc  Sc4  1  0.916119  0.458060  0.250000  1
  Sc  Sc5  1  0.458060  0.541940  0.750000  1
  Sc  Sc6  1  0.458060  0.916119  0.750000  1
  Sc  Sc7  1  0.083881  0.541940  0.750000  1
  Sc  Sc8  1  0.211268  0.788732  0.435375  1
  Sc  Sc9  1  0.211268  0.422538  0.435375  1
  Sc  Sc10  1  0.577462  0.788732  0.435375  1
  Sc  Sc11  1  0.788732  0.211268  0.564625  1
  Sc  Sc12  1  0.788732  0.577462  0.564625  1
  Sc  Sc13  1  0.422538  0.211268  0.564625  1
  Sc  Sc14  1  0.788732  0.211268  0.935375  1
  Sc  Sc15  1  0.788732  0.577462  0.935375  1
  Sc  Sc16  1  0.422538  0.211268  0.935375  1
  Sc  Sc17  1  0.211268  0.788732  0.064625  1
  Sc  Sc18  1  0.211268  0.422538  0.064625  1
  Sc  Sc19  1  0.577462  0.788732  0.064625  1
  Co  Co20  1  0.333333  0.666667  0.250000  1
  Co  Co21  1  0.666667  0.333333  0.750000  1
  Hg  Hg22  1  0.880655  0.119345  0.250000  1
  Hg  Hg23  1  0.880655  0.761309  0.250000  1
  Hg  Hg24  1  0.238691  0.119345  0.250000  1
  Hg  Hg25  1  0.119345  0.880655  0.750000  1
  Hg  Hg26  1  0.119345  0.238691  0.750000  1
  Hg  Hg27  1  0.761309  0.880655  0.750000  1
