# generated using pymatgen
data_Ho10Er2Os3Ru
_symmetry_space_group_name_H-M   'P 1'
_cell_length_a   6.28371173
_cell_length_b   7.34332191
_cell_length_c   9.03342743
_cell_angle_alpha   90.00128142
_cell_angle_beta   89.91573400
_cell_angle_gamma   89.94619469
_symmetry_Int_Tables_number   1
_chemical_formula_structural   Ho10Er2Os3Ru
_chemical_formula_sum   'Ho10 Er2 Os3 Ru1'
_cell_volume   416.83168020
_cell_formula_units_Z   1
loop_
 _symmetry_equiv_pos_site_id
 _symmetry_equiv_pos_as_xyz
  1  'x, y, z'
loop_
 _atom_site_type_symbol
 _atom_site_label
 _atom_site_symmetry_multiplicity
 _atom_site_fract_x
 _atom_site_fract_y
 _atom_site_fract_z
 _atom_site_occupancy
  Ho  Ho0  1  0.668375  0.324215  0.562917  1
  Ho  Ho1  1  0.832358  0.825135  0.937803  1
  Ho  Ho2  1  0.668296  0.324442  0.937071  1
  Ho  Ho3  1  0.832465  0.825361  0.562199  1
  Ho  Ho4  1  0.329817  0.675984  0.435612  1
  Ho  Ho5  1  0.169294  0.175588  0.062974  1
  Ho  Ho6  1  0.868703  0.538680  0.249939  1
  Ho  Ho7  1  0.631005  0.039174  0.250067  1
  Ho  Ho8  1  0.133322  0.460509  0.750038  1
  Ho  Ho9  1  0.368532  0.959159  0.749968  1
  Er  Er10  1  0.329815  0.675823  0.064409  1
  Er  Er11  1  0.169268  0.175360  0.437141  1
  Os  Os12  1  0.039062  0.883777  0.249958  1
  Os  Os13  1  0.460713  0.383970  0.250004  1
  Os  Os14  1  0.961474  0.116565  0.749647  1
  Ru  Ru15  1  0.537498  0.616259  0.750253  1
