# generated using pymatgen
data_Zr20C17O
_symmetry_space_group_name_H-M   'P 1'
_cell_length_a   6.68982474
_cell_length_b   8.83250234
_cell_length_c   10.56537170
_cell_angle_alpha   68.92206833
_cell_angle_beta   71.52408333
_cell_angle_gamma   67.75376198
_symmetry_Int_Tables_number   1
_chemical_formula_structural   Zr20C17O
_chemical_formula_sum   'Zr20 C17 O1'
_cell_volume   527.21607864
_cell_formula_units_Z   1
loop_
 _symmetry_equiv_pos_site_id
 _symmetry_equiv_pos_as_xyz
  1  'x, y, z'
loop_
 _atom_site_type_symbol
 _atom_site_label
 _atom_site_symmetry_multiplicity
 _atom_site_fract_x
 _atom_site_fract_y
 _atom_site_fract_z
 _atom_site_occupancy
  Zr  Zr0  1  0.994019  0.001355  0.006574  1
  Zr  Zr1  1  0.507470  0.994936  0.994128  1
  Zr  Zr2  1  0.144372  0.893801  0.301577  1
  Zr  Zr3  1  0.806205  0.805604  0.598492  1
  Zr  Zr4  1  0.445509  0.701884  0.908746  1
  Zr  Zr5  1  0.661069  0.890875  0.304924  1
  Zr  Zr6  1  0.102287  0.596621  0.200057  1
  Zr  Zr7  1  0.291996  0.807632  0.591190  1
  Zr  Zr8  1  0.754544  0.495484  0.493094  1
  Zr  Zr9  1  0.949929  0.695766  0.899552  1
  Zr  Zr10  1  0.598146  0.603084  0.201351  1
  Zr  Zr11  1  0.392734  0.392166  0.805027  1
  Zr  Zr12  1  0.250681  0.499884  0.501837  1
  Zr  Zr13  1  0.039055  0.306856  0.099131  1
  Zr  Zr14  1  0.699028  0.201042  0.396532  1
  Zr  Zr15  1  0.911081  0.392454  0.801445  1
  Zr  Zr16  1  0.355624  0.099746  0.697182  1
  Zr  Zr17  1  0.555426  0.309000  0.095799  1
  Zr  Zr18  1  0.196300  0.204835  0.405716  1
  Zr  Zr19  1  0.841330  0.107787  0.698192  1
  C  C20  1  0.797931  0.803358  0.098603  1
  C  C21  1  0.647634  0.900237  0.802639  1
  C  C22  1  0.448994  0.702520  0.400745  1
  C  C23  1  0.302170  0.799800  0.095635  1
  C  C24  1  0.099265  0.601458  0.700766  1
  C  C25  1  0.946786  0.704210  0.399185  1
  C  C26  1  0.749628  0.499029  0.999304  1
  C  C27  1  0.400004  0.397186  0.300045  1
  C  C28  1  0.050573  0.298624  0.598413  1
  C  C29  1  0.251367  0.500291  0.998617  1
  C  C30  1  0.899337  0.399958  0.302630  1
  C  C31  1  0.701696  0.200173  0.898965  1
  C  C32  1  0.550963  0.299537  0.601740  1
  C  C33  1  0.004233  0.994675  0.502314  1
  C  C34  1  0.198986  0.203629  0.898378  1
  C  C35  1  0.851935  0.099503  0.198866  1
  C  C36  1  0.497665  0.997745  0.502586  1
  O  O37  1  0.154025  0.897257  0.800020  1
