# generated using pymatgen
data_NdSn6IrRu3
_symmetry_space_group_name_H-M   'P 1'
_cell_length_a   6.96651077
_cell_length_b   6.96651121
_cell_length_c   6.97231825
_cell_angle_alpha   119.89806306
_cell_angle_beta   119.89806175
_cell_angle_gamma   90.09288695
_symmetry_Int_Tables_number   1
_chemical_formula_structural   NdSn6IrRu3
_chemical_formula_sum   'Nd1 Sn6 Ir1 Ru3'
_cell_volume   239.81511350
_cell_formula_units_Z   1
loop_
 _symmetry_equiv_pos_site_id
 _symmetry_equiv_pos_as_xyz
  1  'x, y, z'
loop_
 _atom_site_type_symbol
 _atom_site_label
 _atom_site_symmetry_multiplicity
 _atom_site_fract_x
 _atom_site_fract_y
 _atom_site_fract_z
 _atom_site_occupancy
  Nd  Nd0  1  0.000533  0.000533  0.001145  1
  Sn  Sn1  1  0.470709  0.470709  0.592837  1
  Sn  Sn2  1  0.118214  0.118214  0.586419  1
  Sn  Sn3  1  0.884822  0.530506  0.410992  1
  Sn  Sn4  1  0.530506  0.884822  0.410992  1
  Sn  Sn5  1  0.996434  0.500447  0.995806  1
  Sn  Sn6  1  0.500447  0.996434  0.995806  1
  Ir  Ir7  1  0.404051  0.404051  0.158633  1
  Ru  Ru8  1  0.751090  0.751090  0.157888  1
  Ru  Ru9  1  0.250030  0.593164  0.844741  1
  Ru  Ru10  1  0.593164  0.250030  0.844741  1
