# generated using pymatgen
data_SrLa6Os4C9
_symmetry_space_group_name_H-M   'P 1'
_cell_length_a   6.60945639
_cell_length_b   6.60945560
_cell_length_c   12.01283418
_cell_angle_alpha   70.82927564
_cell_angle_beta   109.17072043
_cell_angle_gamma   131.25855199
_symmetry_Int_Tables_number   1
_chemical_formula_structural   SrLa6Os4C9
_chemical_formula_sum   'Sr1 La6 Os4 C9'
_cell_volume   367.97103258
_cell_formula_units_Z   1
loop_
 _symmetry_equiv_pos_site_id
 _symmetry_equiv_pos_as_xyz
  1  'x, y, z'
loop_
 _atom_site_type_symbol
 _atom_site_label
 _atom_site_symmetry_multiplicity
 _atom_site_fract_x
 _atom_site_fract_y
 _atom_site_fract_z
 _atom_site_occupancy
  Sr  Sr0  1  0.000000  0.000000  0.000000  1
  La  La1  1  0.136220  0.863777  0.617416  1
  La  La2  1  0.863776  0.136220  0.382583  1
  La  La3  1  0.144952  0.855045  0.318988  1
  La  La4  1  0.373463  0.626534  0.155509  1
  La  La5  1  0.626534  0.373463  0.844491  1
  La  La6  1  0.855045  0.144952  0.681012  1
  Os  Os7  1  0.641612  0.358385  0.142628  1
  Os  Os8  1  0.358386  0.641611  0.857372  1
  Os  Os9  1  0.565469  0.434528  0.429078  1
  Os  Os10  1  0.434528  0.565469  0.570923  1
  C  C11  1  0.385504  0.614493  0.709042  1
  C  C12  1  0.614494  0.385503  0.290959  1
  C  C13  1  0.391268  0.608729  0.387369  1
  C  C14  1  0.608728  0.391269  0.612632  1
  C  C15  1  0.078681  0.921316  0.814592  1
  C  C16  1  0.921317  0.078680  0.185408  1
  C  C17  1  0.499998  0.499998  0.000000  1
  C  C18  1  0.803406  0.196590  0.144939  1
  C  C19  1  0.196590  0.803407  0.855061  1
