# generated using pymatgen
data_Pr5EuDyFeBr12
_symmetry_space_group_name_H-M   'P 1'
_cell_length_a   9.59015594
_cell_length_b   9.48130422
_cell_length_c   9.48351234
_cell_angle_alpha   106.59054256
_cell_angle_beta   105.94830033
_cell_angle_gamma   106.70535821
_symmetry_Int_Tables_number   1
_chemical_formula_structural   Pr5EuDyFeBr12
_chemical_formula_sum   'Pr5 Eu1 Dy1 Fe1 Br12'
_cell_volume   729.27220523
_cell_formula_units_Z   1
loop_
 _symmetry_equiv_pos_site_id
 _symmetry_equiv_pos_as_xyz
  1  'x, y, z'
loop_
 _atom_site_type_symbol
 _atom_site_label
 _atom_site_symmetry_multiplicity
 _atom_site_fract_x
 _atom_site_fract_y
 _atom_site_fract_z
 _atom_site_occupancy
  Pr  Pr0  1  0.518386  0.601048  0.801782  1
  Pr  Pr1  1  0.181598  0.478237  0.394765  1
  Pr  Pr2  1  0.478853  0.400910  0.198709  1
  Pr  Pr3  1  0.603140  0.805176  0.523040  1
  Pr  Pr4  1  0.401996  0.197947  0.479323  1
  Eu  Eu5  1  0.002452  0.996727  0.999230  1
  Dy  Dy6  1  0.805681  0.522800  0.602367  1
  Fe  Fe7  1  0.499142  0.501777  0.500365  1
  Br  Br8  1  0.728101  0.194857  0.575856  1
  Br  Br9  1  0.952091  0.859536  0.649899  1
  Br  Br10  1  0.575787  0.723787  0.182514  1
  Br  Br11  1  0.129482  0.346542  0.046522  1
  Br  Br12  1  0.659784  0.956663  0.874219  1
  Br  Br13  1  0.867418  0.642935  0.939728  1
  Br  Br14  1  0.048728  0.125593  0.346123  1
  Br  Br15  1  0.817889  0.429959  0.291681  1
  Br  Br16  1  0.346678  0.045464  0.127750  1
  Br  Br17  1  0.282838  0.821434  0.428894  1
  Br  Br18  1  0.172796  0.570150  0.718468  1
  Br  Br19  1  0.427157  0.278459  0.818766  1
