# generated using pymatgen
data_Tb8Tl3Co
_symmetry_space_group_name_H-M   'P 1'
_cell_length_a   10.40164900
_cell_length_b   10.40164851
_cell_length_c   7.13474400
_cell_angle_alpha   90.00000000
_cell_angle_beta   90.00000000
_cell_angle_gamma   119.99999837
_symmetry_Int_Tables_number   1
_chemical_formula_structural   Tb8Tl3Co
_chemical_formula_sum   'Tb16 Tl6 Co2'
_cell_volume   668.51845756
_cell_formula_units_Z   2
loop_
 _symmetry_equiv_pos_site_id
 _symmetry_equiv_pos_as_xyz
  1  'x, y, z'
loop_
 _atom_site_type_symbol
 _atom_site_label
 _atom_site_symmetry_multiplicity
 _atom_site_fract_x
 _atom_site_fract_y
 _atom_site_fract_z
 _atom_site_occupancy
  Tb  Tb0  1  0.823072  0.646144  0.491115  1
  Tb  Tb1  1  0.353856  0.176928  0.491115  1
  Tb  Tb2  1  0.823072  0.176928  0.491115  1
  Tb  Tb3  1  0.176928  0.353856  0.991115  1
  Tb  Tb4  1  0.646144  0.823072  0.991115  1
  Tb  Tb5  1  0.176928  0.823072  0.991115  1
  Tb  Tb6  1  0.666667  0.333333  0.180227  1
  Tb  Tb7  1  0.333333  0.666667  0.680227  1
  Tb  Tb8  1  0.537955  0.075910  0.787407  1
  Tb  Tb9  1  0.924090  0.462045  0.787407  1
  Tb  Tb10  1  0.537955  0.462045  0.787407  1
  Tb  Tb11  1  0.462045  0.924090  0.287407  1
  Tb  Tb12  1  0.075910  0.537955  0.287407  1
  Tb  Tb13  1  0.462045  0.537955  0.287407  1
  Tb  Tb14  1  0.000000  0.000000  0.772228  1
  Tb  Tb15  1  0.000000  0.000000  0.272228  1
  Tl  Tl16  1  0.836274  0.672549  0.038856  1
  Tl  Tl17  1  0.327451  0.163726  0.038856  1
  Tl  Tl18  1  0.836274  0.163726  0.038856  1
  Tl  Tl19  1  0.163726  0.327451  0.538856  1
  Tl  Tl20  1  0.672549  0.836274  0.538856  1
  Tl  Tl21  1  0.163726  0.836274  0.538856  1
  Co  Co22  1  0.666667  0.333333  0.558450  1
  Co  Co23  1  0.333333  0.666667  0.058450  1
