# generated using pymatgen
data_Pr8Cd2IrPd
_symmetry_space_group_name_H-M   'P 1'
_cell_length_a   10.07960629
_cell_length_b   10.07960578
_cell_length_c   10.06363500
_cell_angle_alpha   60.05240311
_cell_angle_beta   60.05240481
_cell_angle_gamma   60.25456415
_symmetry_Int_Tables_number   1
_chemical_formula_structural   Pr8Cd2IrPd
_chemical_formula_sum   'Pr16 Cd4 Ir2 Pd2'
_cell_volume   724.93727698
_cell_formula_units_Z   2
loop_
 _symmetry_equiv_pos_site_id
 _symmetry_equiv_pos_as_xyz
  1  'x, y, z'
loop_
 _atom_site_type_symbol
 _atom_site_label
 _atom_site_symmetry_multiplicity
 _atom_site_fract_x
 _atom_site_fract_y
 _atom_site_fract_z
 _atom_site_occupancy
  Pr  Pr0  1  0.350645  0.350645  0.345229  1
  Pr  Pr1  1  0.350645  0.350645  0.953480  1
  Pr  Pr2  1  0.356942  0.944396  0.349330  1
  Pr  Pr3  1  0.944396  0.356942  0.349330  1
  Pr  Pr4  1  0.804760  0.190776  0.190484  1
  Pr  Pr5  1  0.190776  0.804760  0.813979  1
  Pr  Pr6  1  0.190776  0.804760  0.190484  1
  Pr  Pr7  1  0.804760  0.190776  0.813979  1
  Pr  Pr8  1  0.191864  0.191864  0.808136  1
  Pr  Pr9  1  0.810239  0.810239  0.189761  1
  Pr  Pr10  1  0.939539  0.564064  0.560782  1
  Pr  Pr11  1  0.564064  0.939539  0.935615  1
  Pr  Pr12  1  0.564064  0.939539  0.560782  1
  Pr  Pr13  1  0.939539  0.564064  0.935615  1
  Pr  Pr14  1  0.562597  0.562597  0.937403  1
  Pr  Pr15  1  0.938142  0.938142  0.561858  1
  Cd  Cd16  1  0.580435  0.580435  0.580508  1
  Cd  Cd17  1  0.580435  0.580435  0.258622  1
  Cd  Cd18  1  0.579453  0.259337  0.580605  1
  Cd  Cd19  1  0.259337  0.579453  0.580605  1
  Ir  Ir20  1  0.141114  0.571723  0.143582  1
  Ir  Ir21  1  0.571723  0.141114  0.143582  1
  Pd  Pd22  1  0.141877  0.141877  0.146522  1
  Pd  Pd23  1  0.141877  0.141877  0.569724  1
