# generated using pymatgen
data_Cs2(CuSe)5
_symmetry_space_group_name_H-M   'P 1'
_cell_length_a   8.17040485
_cell_length_b   8.17040537
_cell_length_c   18.89934900
_cell_angle_alpha   90.00000000
_cell_angle_beta   90.00000000
_cell_angle_gamma   151.97975072
_symmetry_Int_Tables_number   1
_chemical_formula_structural   Cs2(CuSe)5
_chemical_formula_sum   'Cs4 Cu10 Se10'
_cell_volume   592.69581515
_cell_formula_units_Z   2
loop_
 _symmetry_equiv_pos_site_id
 _symmetry_equiv_pos_as_xyz
  1  'x, y, z'
loop_
 _atom_site_type_symbol
 _atom_site_label
 _atom_site_symmetry_multiplicity
 _atom_site_fract_x
 _atom_site_fract_y
 _atom_site_fract_z
 _atom_site_occupancy
  Cs  Cs0  1  0.524344  0.475656  0.117683  1
  Cs  Cs1  1  0.475656  0.524344  0.882317  1
  Cs  Cs2  1  0.475656  0.524344  0.617683  1
  Cs  Cs3  1  0.524344  0.475656  0.382317  1
  Cu  Cu4  1  0.681822  0.318178  0.750000  1
  Cu  Cu5  1  0.318178  0.681822  0.250000  1
  Cu  Cu6  1  0.727583  0.272417  0.954672  1
  Cu  Cu7  1  0.272417  0.727583  0.045328  1
  Cu  Cu8  1  0.272417  0.727583  0.454672  1
  Cu  Cu9  1  0.727583  0.272417  0.545328  1
  Cu  Cu10  1  0.798072  0.201928  0.352138  1
  Cu  Cu11  1  0.201928  0.798072  0.647862  1
  Cu  Cu12  1  0.201928  0.798072  0.852138  1
  Cu  Cu13  1  0.798072  0.201928  0.147862  1
  Se  Se14  1  0.094266  0.905734  0.750000  1
  Se  Se15  1  0.905734  0.094266  0.250000  1
  Se  Se16  1  0.206799  0.793201  0.162613  1
  Se  Se17  1  0.793201  0.206799  0.837387  1
  Se  Se18  1  0.793201  0.206799  0.662613  1
  Se  Se19  1  0.206799  0.793201  0.337387  1
  Se  Se20  1  0.860545  0.139455  0.027484  1
  Se  Se21  1  0.139455  0.860545  0.972516  1
  Se  Se22  1  0.139455  0.860545  0.527484  1
  Se  Se23  1  0.860545  0.139455  0.472516  1
