# generated using pymatgen
data_CsRb(Pa2Br9)2
_symmetry_space_group_name_H-M   'P 1'
_cell_length_a   7.31913000
_cell_length_b   11.08888250
_cell_length_c   13.67207000
_cell_angle_alpha   67.67811640
_cell_angle_beta   90.00000000
_cell_angle_gamma   90.00000000
_symmetry_Int_Tables_number   1
_chemical_formula_structural   CsRb(Pa2Br9)2
_chemical_formula_sum   'Cs1 Rb1 Pa4 Br18'
_cell_volume   1026.48742821
_cell_formula_units_Z   1
loop_
 _symmetry_equiv_pos_site_id
 _symmetry_equiv_pos_as_xyz
  1  'x, y, z'
loop_
 _atom_site_type_symbol
 _atom_site_label
 _atom_site_symmetry_multiplicity
 _atom_site_fract_x
 _atom_site_fract_y
 _atom_site_fract_z
 _atom_site_occupancy
  Cs  Cs0  1  0.591992  0.500000  0.750000  1
  Rb  Rb1  1  0.406194  0.500000  0.250000  1
  Pa  Pa2  1  0.264702  0.828020  0.861594  1
  Pa  Pa3  1  0.734958  0.172266  0.139682  1
  Pa  Pa4  1  0.264702  0.171980  0.638406  1
  Pa  Pa5  1  0.734958  0.827734  0.360318  1
  Br  Br6  1  0.127128  0.767704  0.059751  1
  Br  Br7  1  0.878077  0.227597  0.943601  1
  Br  Br8  1  0.127128  0.232296  0.440249  1
  Br  Br9  1  0.878077  0.772403  0.556399  1
  Br  Br10  1  0.123656  0.614871  0.835236  1
  Br  Br11  1  0.873694  0.386417  0.165815  1
  Br  Br12  1  0.123656  0.385129  0.664764  1
  Br  Br13  1  0.873694  0.613583  0.334185  1
  Br  Br14  1  0.968574  0.000000  0.750000  1
  Br  Br15  1  0.031198  0.000000  0.250000  1
  Br  Br16  1  0.411362  0.075764  0.851940  1
  Br  Br17  1  0.588036  0.925346  0.147206  1
  Br  Br18  1  0.411362  0.924236  0.648060  1
  Br  Br19  1  0.588036  0.074654  0.352794  1
  Br  Br20  1  0.586396  0.701319  0.937023  1
  Br  Br21  1  0.413013  0.299879  0.064650  1
  Br  Br22  1  0.586396  0.298681  0.562977  1
  Br  Br23  1  0.413013  0.700121  0.435350  1
