# generated using pymatgen
data_SmHfZr(SnRh)3
_symmetry_space_group_name_H-M   'P 1'
_cell_length_a   7.50848923
_cell_length_b   7.48533495
_cell_length_c   7.47244700
_cell_angle_alpha   90.00000000
_cell_angle_beta   90.00000000
_cell_angle_gamma   119.91637083
_symmetry_Int_Tables_number   1
_chemical_formula_structural   SmHfZr(SnRh)3
_chemical_formula_sum   'Sm2 Hf2 Zr2 Sn6 Rh6'
_cell_volume   364.01781698
_cell_formula_units_Z   2
loop_
 _symmetry_equiv_pos_site_id
 _symmetry_equiv_pos_as_xyz
  1  'x, y, z'
loop_
 _atom_site_type_symbol
 _atom_site_label
 _atom_site_symmetry_multiplicity
 _atom_site_fract_x
 _atom_site_fract_y
 _atom_site_fract_z
 _atom_site_occupancy
  Sm  Sm0  1  0.002591  0.407527  0.250000  1
  Sm  Sm1  1  0.595494  0.591314  0.250000  1
  Hf  Hf2  1  0.605101  0.612235  0.750000  1
  Hf  Hf3  1  0.396508  0.999433  0.750000  1
  Zr  Zr4  1  0.994452  0.388628  0.750000  1
  Zr  Zr5  1  0.399328  0.996322  0.250000  1
  Sn  Sn6  1  0.267474  0.265368  0.511587  1
  Sn  Sn7  1  0.000836  0.733795  0.511530  1
  Sn  Sn8  1  0.000836  0.733795  0.988470  1
  Sn  Sn9  1  0.731912  0.000782  0.495556  1
  Sn  Sn10  1  0.731912  0.000782  0.004444  1
  Sn  Sn11  1  0.267474  0.265368  0.988413  1
  Rh  Rh12  1  0.337131  0.675195  0.535700  1
  Rh  Rh13  1  0.660450  0.328009  0.537274  1
  Rh  Rh14  1  0.337131  0.675195  0.964300  1
  Rh  Rh15  1  0.993065  0.998867  0.750000  1
  Rh  Rh16  1  0.017858  0.999374  0.250000  1
  Rh  Rh17  1  0.660450  0.328009  0.962726  1
