# generated using pymatgen
data_Hf5Zr3Nb2(SiSn3)2
_symmetry_space_group_name_H-M   'P 1'
_cell_length_a   8.58789200
_cell_length_b   8.58789058
_cell_length_c   5.77951500
_cell_angle_alpha   90.00000000
_cell_angle_beta   90.00000000
_cell_angle_gamma   120.00000546
_symmetry_Int_Tables_number   1
_chemical_formula_structural   Hf5Zr3Nb2(SiSn3)2
_chemical_formula_sum   'Hf5 Zr3 Nb2 Si2 Sn6'
_cell_volume   369.14337596
_cell_formula_units_Z   1
loop_
 _symmetry_equiv_pos_site_id
 _symmetry_equiv_pos_as_xyz
  1  'x, y, z'
loop_
 _atom_site_type_symbol
 _atom_site_label
 _atom_site_symmetry_multiplicity
 _atom_site_fract_x
 _atom_site_fract_y
 _atom_site_fract_z
 _atom_site_occupancy
  Hf  Hf0  1  0.333333  0.666667  0.500110  1
  Hf  Hf1  1  0.666667  0.333333  0.500110  1
  Hf  Hf2  1  0.737627  0.737627  0.748690  1
  Hf  Hf3  1  0.262373  0.000000  0.748690  1
  Hf  Hf4  1  0.000000  0.262373  0.748690  1
  Zr  Zr5  1  0.257506  0.257506  0.251445  1
  Zr  Zr6  1  0.742494  0.000000  0.251445  1
  Zr  Zr7  1  0.000000  0.742494  0.251445  1
  Nb  Nb8  1  0.666667  0.333333  0.999497  1
  Nb  Nb9  1  0.333333  0.666667  0.999497  1
  Si  Si10  1  0.000000  0.000000  0.992180  1
  Si  Si11  1  0.000000  0.000000  0.507853  1
  Sn  Sn12  1  0.394958  0.394958  0.755106  1
  Sn  Sn13  1  0.605042  0.000000  0.755106  1
  Sn  Sn14  1  0.000000  0.605042  0.755106  1
  Sn  Sn15  1  0.603808  0.603808  0.245010  1
  Sn  Sn16  1  0.396192  0.000000  0.245010  1
  Sn  Sn17  1  0.000000  0.396192  0.245010  1
