# generated using pymatgen
data_PrEr2Ga9Pd2
_symmetry_space_group_name_H-M   'P 1'
_cell_length_a   8.20643135
_cell_length_b   8.20643205
_cell_length_c   8.20643268
_cell_angle_alpha   149.35099068
_cell_angle_beta   109.58164339
_cell_angle_gamma   78.72863808
_symmetry_Int_Tables_number   1
_chemical_formula_structural   PrEr2Ga9Pd2
_chemical_formula_sum   'Pr1 Er2 Ga9 Pd2'
_cell_volume   260.43255358
_cell_formula_units_Z   1
loop_
 _symmetry_equiv_pos_site_id
 _symmetry_equiv_pos_as_xyz
  1  'x, y, z'
loop_
 _atom_site_type_symbol
 _atom_site_label
 _atom_site_symmetry_multiplicity
 _atom_site_fract_x
 _atom_site_fract_y
 _atom_site_fract_z
 _atom_site_occupancy
  Pr  Pr0  1  0.500000  0.500000  0.000000  1
  Er  Er1  1  0.197433  0.197433  0.000000  1
  Er  Er2  1  0.802567  0.802567  0.000000  1
  Ga  Ga3  1  0.643837  0.359534  0.284302  1
  Ga  Ga4  1  0.356163  0.640466  0.715698  1
  Ga  Ga5  1  0.075233  0.359534  0.715698  1
  Ga  Ga6  1  0.924767  0.640466  0.284302  1
  Ga  Ga7  1  0.524064  0.159363  0.364700  1
  Ga  Ga8  1  0.475936  0.840637  0.635300  1
  Ga  Ga9  1  0.794663  0.159363  0.635300  1
  Ga  Ga10  1  0.205337  0.840637  0.364700  1
  Ga  Ga11  1  0.000000  0.500000  0.500000  1
  Pd  Pd12  1  0.183950  0.000000  0.183950  1
  Pd  Pd13  1  0.816050  0.000000  0.816050  1
