# generated using pymatgen
data_NdEr2MoO7
_symmetry_space_group_name_H-M   'P 1'
_cell_length_a   6.45047907
_cell_length_b   6.45047823
_cell_length_c   7.57870600
_cell_angle_alpha   90.00000000
_cell_angle_beta   90.00000000
_cell_angle_gamma   109.21763033
_symmetry_Int_Tables_number   1
_chemical_formula_structural   NdEr2MoO7
_chemical_formula_sum   'Nd2 Er4 Mo2 O14'
_cell_volume   297.76763808
_cell_formula_units_Z   2
loop_
 _symmetry_equiv_pos_site_id
 _symmetry_equiv_pos_as_xyz
  1  'x, y, z'
loop_
 _atom_site_type_symbol
 _atom_site_label
 _atom_site_symmetry_multiplicity
 _atom_site_fract_x
 _atom_site_fract_y
 _atom_site_fract_z
 _atom_site_occupancy
  Nd  Nd0  1  0.500000  0.500000  0.500000  1
  Nd  Nd1  1  0.500000  0.500000  0.000000  1
  Er  Er2  1  0.534233  0.001304  0.750000  1
  Er  Er3  1  0.001304  0.534233  0.250000  1
  Er  Er4  1  0.465767  0.998696  0.250000  1
  Er  Er5  1  0.998696  0.465767  0.750000  1
  Mo  Mo6  1  0.000000  0.000000  0.500000  1
  Mo  Mo7  1  0.000000  0.000000  0.000000  1
  O  O8  1  0.677843  0.928633  0.469919  1
  O  O9  1  0.928633  0.677843  0.530081  1
  O  O10  1  0.677843  0.928633  0.030081  1
  O  O11  1  0.928633  0.677843  0.969919  1
  O  O12  1  0.322157  0.071367  0.530081  1
  O  O13  1  0.071367  0.322157  0.469919  1
  O  O14  1  0.322157  0.071367  0.969919  1
  O  O15  1  0.071367  0.322157  0.030081  1
  O  O16  1  0.927746  0.072254  0.750000  1
  O  O17  1  0.072254  0.927746  0.250000  1
  O  O18  1  0.361311  0.638689  0.750000  1
  O  O19  1  0.638689  0.361311  0.250000  1
  O  O20  1  0.642847  0.357153  0.750000  1
  O  O21  1  0.357153  0.642847  0.250000  1
