# generated using pymatgen
data_HfSn3(SeO3)8
_symmetry_space_group_name_H-M   'P 1'
_cell_length_a   8.41828291
_cell_length_b   8.41828291
_cell_length_c   8.41828291
_cell_angle_alpha   89.76309381
_cell_angle_beta   90.23690619
_cell_angle_gamma   90.23690619
_symmetry_Int_Tables_number   1
_chemical_formula_structural   HfSn3(SeO3)8
_chemical_formula_sum   'Hf1 Sn3 Se8 O24'
_cell_volume   596.56729814
_cell_formula_units_Z   1
loop_
 _symmetry_equiv_pos_site_id
 _symmetry_equiv_pos_as_xyz
  1  'x, y, z'
loop_
 _atom_site_type_symbol
 _atom_site_label
 _atom_site_symmetry_multiplicity
 _atom_site_fract_x
 _atom_site_fract_y
 _atom_site_fract_z
 _atom_site_occupancy
  Hf  Hf0  1  0.500000  0.500000  0.000000  1
  Sn  Sn1  1  0.500000  0.000000  0.500000  1
  Sn  Sn2  1  0.000000  0.000000  0.000000  1
  Sn  Sn3  1  0.000000  0.500000  0.500000  1
  Se  Se4  1  0.830751  0.169249  0.669249  1
  Se  Se5  1  0.169249  0.830751  0.330751  1
  Se  Se6  1  0.679316  0.676398  0.658481  1
  Se  Se7  1  0.158481  0.679316  0.823602  1
  Se  Se8  1  0.323602  0.158481  0.820684  1
  Se  Se9  1  0.841519  0.320684  0.176398  1
  Se  Se10  1  0.676398  0.841519  0.179316  1
  Se  Se11  1  0.320684  0.323602  0.341519  1
  O  O12  1  0.242582  0.460889  0.473980  1
  O  O13  1  0.973980  0.242582  0.039111  1
  O  O14  1  0.037530  0.742946  0.462860  1
  O  O15  1  0.448856  0.266584  0.939969  1
  O  O16  1  0.257054  0.962860  0.462470  1
  O  O17  1  0.560031  0.551144  0.766584  1
  O  O18  1  0.962860  0.037530  0.757054  1
  O  O19  1  0.551144  0.733416  0.060031  1
  O  O20  1  0.539111  0.973980  0.257418  1
  O  O21  1  0.460889  0.026020  0.742582  1
  O  O22  1  0.756993  0.969698  0.037440  1
  O  O23  1  0.266584  0.560031  0.948856  1
  O  O24  1  0.030302  0.537440  0.743007  1
  O  O25  1  0.037140  0.962470  0.242946  1
  O  O26  1  0.243007  0.030302  0.962560  1
  O  O27  1  0.439969  0.448856  0.233416  1
  O  O28  1  0.757418  0.539111  0.526020  1
  O  O29  1  0.969698  0.462560  0.256993  1
  O  O30  1  0.026020  0.757418  0.960889  1
  O  O31  1  0.462560  0.243007  0.469698  1
  O  O32  1  0.537440  0.756993  0.530302  1
  O  O33  1  0.962470  0.257054  0.537140  1
  O  O34  1  0.742946  0.037140  0.537530  1
  O  O35  1  0.733416  0.439969  0.051144  1
