# generated using pymatgen
data_MgZr3(PdPt5)2
_symmetry_space_group_name_H-M   'P 1'
_cell_length_a   5.70805102
_cell_length_b   5.70805098
_cell_length_c   9.30793400
_cell_angle_alpha   90.00000000
_cell_angle_beta   90.00000000
_cell_angle_gamma   119.99158123
_symmetry_Int_Tables_number   1
_chemical_formula_structural   MgZr3(PdPt5)2
_chemical_formula_sum   'Mg1 Zr3 Pd2 Pt10'
_cell_volume   262.66151960
_cell_formula_units_Z   1
loop_
 _symmetry_equiv_pos_site_id
 _symmetry_equiv_pos_as_xyz
  1  'x, y, z'
loop_
 _atom_site_type_symbol
 _atom_site_label
 _atom_site_symmetry_multiplicity
 _atom_site_fract_x
 _atom_site_fract_y
 _atom_site_fract_z
 _atom_site_occupancy
  Mg  Mg0  1  0.333757  0.666243  0.250000  1
  Zr  Zr1  1  0.999695  0.000305  0.498152  1
  Zr  Zr2  1  0.999695  0.000305  0.001848  1
  Zr  Zr3  1  0.666509  0.333491  0.750000  1
  Pd  Pd4  1  0.829156  0.660102  0.250000  1
  Pd  Pd5  1  0.339898  0.170844  0.250000  1
  Pt  Pt6  1  0.500385  0.499615  0.499425  1
  Pt  Pt7  1  0.500387  0.000567  0.498630  1
  Pt  Pt8  1  0.999433  0.499613  0.498630  1
  Pt  Pt9  1  0.500385  0.499615  0.000575  1
  Pt  Pt10  1  0.500387  0.000567  0.001370  1
  Pt  Pt11  1  0.999433  0.499613  0.001370  1
  Pt  Pt12  1  0.828080  0.171920  0.250000  1
  Pt  Pt13  1  0.169854  0.338789  0.750000  1
  Pt  Pt14  1  0.661211  0.830146  0.750000  1
  Pt  Pt15  1  0.171737  0.828263  0.750000  1
