# generated using pymatgen
data_Ba2CrP4Ir3
_symmetry_space_group_name_H-M   'P 1'
_cell_length_a   5.68548900
_cell_length_b   6.87925613
_cell_length_c   5.68639354
_cell_angle_alpha   65.62219608
_cell_angle_beta   90.00031254
_cell_angle_gamma   89.99995507
_symmetry_Int_Tables_number   1
_chemical_formula_structural   Ba2CrP4Ir3
_chemical_formula_sum   'Ba2 Cr1 P4 Ir3'
_cell_volume   202.57695558
_cell_formula_units_Z   1
loop_
 _symmetry_equiv_pos_site_id
 _symmetry_equiv_pos_as_xyz
  1  'x, y, z'
loop_
 _atom_site_type_symbol
 _atom_site_label
 _atom_site_symmetry_multiplicity
 _atom_site_fract_x
 _atom_site_fract_y
 _atom_site_fract_z
 _atom_site_occupancy
  Ba  Ba0  1  0.992336  0.000000  0.000000  1
  Ba  Ba1  1  0.507843  0.999999  0.500001  1
  Cr  Cr2  1  0.250074  0.500005  0.499998  1
  P  P3  1  0.489343  0.693499  0.163664  1
  P  P4  1  0.010621  0.693858  0.642920  1
  P  P5  1  0.010625  0.306141  0.357080  1
  P  P6  1  0.489343  0.306501  0.836335  1
  Ir  Ir7  1  0.249894  0.500000  0.999999  1
  Ir  Ir8  1  0.749803  0.499999  0.000000  1
  Ir  Ir9  1  0.750118  0.499997  0.500000  1
