# generated using pymatgen
data_TbPa3(SiPt)4
_symmetry_space_group_name_H-M   'P 1'
_cell_length_a   4.30548100
_cell_length_b   7.24651798
_cell_length_c   7.41033670
_cell_angle_alpha   90.17282356
_cell_angle_beta   90.00000000
_cell_angle_gamma   90.00000000
_symmetry_Int_Tables_number   1
_chemical_formula_structural   TbPa3(SiPt)4
_chemical_formula_sum   'Tb1 Pa3 Si4 Pt4'
_cell_volume   231.19956717
_cell_formula_units_Z   1
loop_
 _symmetry_equiv_pos_site_id
 _symmetry_equiv_pos_as_xyz
  1  'x, y, z'
loop_
 _atom_site_type_symbol
 _atom_site_label
 _atom_site_symmetry_multiplicity
 _atom_site_fract_x
 _atom_site_fract_y
 _atom_site_fract_z
 _atom_site_occupancy
  Tb  Tb0  1  0.750000  0.504205  0.289662  1
  Pa  Pa1  1  0.250000  0.992097  0.794582  1
  Pa  Pa2  1  0.250000  0.496609  0.706734  1
  Pa  Pa3  1  0.750000  0.004668  0.208201  1
  Si  Si4  1  0.250000  0.794475  0.408929  1
  Si  Si5  1  0.250000  0.276679  0.088451  1
  Si  Si6  1  0.750000  0.193543  0.591122  1
  Si  Si7  1  0.750000  0.696565  0.912628  1
  Pt  Pt8  1  0.250000  0.221477  0.422521  1
  Pt  Pt9  1  0.250000  0.715622  0.078158  1
  Pt  Pt10  1  0.750000  0.798900  0.585296  1
  Pt  Pt11  1  0.750000  0.305160  0.913717  1
