# generated using pymatgen
data_Sc2(Al3Ir)3
_symmetry_space_group_name_H-M   'P 1'
_cell_length_a   7.47660349
_cell_length_b   7.47660355
_cell_length_c   9.33335100
_cell_angle_alpha   90.00000000
_cell_angle_beta   90.00000000
_cell_angle_gamma   119.73537713
_symmetry_Int_Tables_number   1
_chemical_formula_structural   Sc2(Al3Ir)3
_chemical_formula_sum   'Sc4 Al18 Ir6'
_cell_volume   453.03193765
_cell_formula_units_Z   2
loop_
 _symmetry_equiv_pos_site_id
 _symmetry_equiv_pos_as_xyz
  1  'x, y, z'
loop_
 _atom_site_type_symbol
 _atom_site_label
 _atom_site_symmetry_multiplicity
 _atom_site_fract_x
 _atom_site_fract_y
 _atom_site_fract_z
 _atom_site_occupancy
  Sc  Sc0  1  0.995318  0.670473  0.250000  1
  Sc  Sc1  1  0.004682  0.329527  0.750000  1
  Sc  Sc2  1  0.670473  0.995318  0.250000  1
  Sc  Sc3  1  0.329527  0.004682  0.750000  1
  Al  Al4  1  0.123642  0.123642  0.250000  1
  Al  Al5  1  0.876358  0.876358  0.750000  1
  Al  Al6  1  0.998436  0.334533  0.075649  1
  Al  Al7  1  0.001564  0.665467  0.924351  1
  Al  Al8  1  0.001564  0.665467  0.575649  1
  Al  Al9  1  0.334533  0.998436  0.424351  1
  Al  Al10  1  0.998436  0.334533  0.424351  1
  Al  Al11  1  0.665467  0.001564  0.575649  1
  Al  Al12  1  0.665467  0.001564  0.924351  1
  Al  Al13  1  0.334533  0.998436  0.075649  1
  Al  Al14  1  0.331333  0.331333  0.558428  1
  Al  Al15  1  0.668667  0.668667  0.441572  1
  Al  Al16  1  0.668667  0.668667  0.058428  1
  Al  Al17  1  0.331333  0.331333  0.941572  1
  Al  Al18  1  0.339311  0.551927  0.250000  1
  Al  Al19  1  0.660689  0.448073  0.750000  1
  Al  Al20  1  0.551927  0.339311  0.250000  1
  Al  Al21  1  0.448073  0.660689  0.750000  1
  Ir  Ir22  1  0.672135  0.327865  0.000000  1
  Ir  Ir23  1  0.327865  0.672135  0.000000  1
  Ir  Ir24  1  0.327865  0.672135  0.500000  1
  Ir  Ir25  1  0.672135  0.327865  0.500000  1
  Ir  Ir26  1  0.000000  0.000000  0.000000  1
  Ir  Ir27  1  0.000000  0.000000  0.500000  1
