# generated using pymatgen
data_Tb3Ce4Dy(ReB6)4
_symmetry_space_group_name_H-M   'P 1'
_cell_length_a   3.73681700
_cell_length_b   9.23197301
_cell_length_c   11.60262601
_cell_angle_alpha   89.99447285
_cell_angle_beta   90.00000000
_cell_angle_gamma   90.00000000
_symmetry_Int_Tables_number   1
_chemical_formula_structural   Tb3Ce4Dy(ReB6)4
_chemical_formula_sum   'Tb3 Ce4 Dy1 Re4 B24'
_cell_volume   400.26963766
_cell_formula_units_Z   1
loop_
 _symmetry_equiv_pos_site_id
 _symmetry_equiv_pos_as_xyz
  1  'x, y, z'
loop_
 _atom_site_type_symbol
 _atom_site_label
 _atom_site_symmetry_multiplicity
 _atom_site_fract_x
 _atom_site_fract_y
 _atom_site_fract_z
 _atom_site_occupancy
  Tb  Tb0  1  0.000000  0.055391  0.626834  1
  Tb  Tb1  1  0.000000  0.444526  0.127029  1
  Tb  Tb2  1  0.000000  0.555434  0.873005  1
  Ce  Ce3  1  0.000000  0.323192  0.413836  1
  Ce  Ce4  1  0.000000  0.676833  0.586121  1
  Ce  Ce5  1  0.000000  0.823294  0.086189  1
  Ce  Ce6  1  0.000000  0.176742  0.913823  1
  Dy  Dy7  1  0.000000  0.944535  0.372963  1
  Re  Re8  1  0.000000  0.638725  0.321428  1
  Re  Re9  1  0.000000  0.361522  0.678575  1
  Re  Re10  1  0.000000  0.138308  0.178783  1
  Re  Re11  1  0.000000  0.861552  0.821344  1
  B  B12  1  0.500000  0.554354  0.431702  1
  B  B13  1  0.500000  0.445736  0.568265  1
  B  B14  1  0.500000  0.054277  0.068347  1
  B  B15  1  0.500000  0.945728  0.931717  1
  B  B16  1  0.500000  0.748080  0.418945  1
  B  B17  1  0.500000  0.252206  0.581039  1
  B  B18  1  0.500000  0.247720  0.081070  1
  B  B19  1  0.500000  0.752245  0.918930  1
  B  B20  1  0.500000  0.791555  0.266704  1
  B  B21  1  0.500000  0.208706  0.733384  1
  B  B22  1  0.500000  0.291171  0.233427  1
  B  B23  1  0.500000  0.708702  0.766602  1
  B  B24  1  0.500000  0.632547  0.186625  1
  B  B25  1  0.500000  0.367511  0.813449  1
  B  B26  1  0.500000  0.132226  0.313597  1
  B  B27  1  0.500000  0.867551  0.686503  1
  B  B28  1  0.500000  0.984269  0.213040  1
  B  B29  1  0.500000  0.015583  0.787183  1
  B  B30  1  0.500000  0.484473  0.287217  1
  B  B31  1  0.500000  0.515576  0.712803  1
  B  B32  1  0.500000  0.609642  0.030373  1
  B  B33  1  0.500000  0.390325  0.969641  1
  B  B34  1  0.500000  0.109183  0.469479  1
  B  B35  1  0.500000  0.890579  0.530027  1
