# generated using pymatgen
data_ErPa(Co3B2)2
_symmetry_space_group_name_H-M   'P 1'
_cell_length_a   5.83059593
_cell_length_b   5.83059707
_cell_length_c   5.83059671
_cell_angle_alpha   129.84981675
_cell_angle_beta   116.02680538
_cell_angle_gamma   85.43619725
_symmetry_Int_Tables_number   1
_chemical_formula_structural   ErPa(Co3B2)2
_chemical_formula_sum   'Er1 Pa1 Co6 B4'
_cell_volume   130.77450744
_cell_formula_units_Z   1
loop_
 _symmetry_equiv_pos_site_id
 _symmetry_equiv_pos_as_xyz
  1  'x, y, z'
loop_
 _atom_site_type_symbol
 _atom_site_label
 _atom_site_symmetry_multiplicity
 _atom_site_fract_x
 _atom_site_fract_y
 _atom_site_fract_z
 _atom_site_occupancy
  Er  Er0  1  0.750000  0.498006  0.748006  1
  Pa  Pa1  1  0.250000  0.504808  0.254808  1
  Co  Co2  1  0.007692  0.000047  0.507739  1
  Co  Co3  1  0.492308  0.000047  0.992355  1
  Co  Co4  1  0.740644  0.998419  0.740213  1
  Co  Co5  1  0.241795  0.499570  0.740213  1
  Co  Co6  1  0.258205  0.998419  0.257775  1
  Co  Co7  1  0.759356  0.499570  0.257775  1
  B  B8  1  0.077391  0.838055  0.760663  1
  B  B9  1  0.912011  0.151905  0.239893  1
  B  B10  1  0.587989  0.827883  0.239893  1
  B  B11  1  0.422609  0.183270  0.760663  1
