# generated using pymatgen
data_Pr3Sn2Pd2RhPb
_symmetry_space_group_name_H-M   'P 1'
_cell_length_a   7.70511897
_cell_length_b   7.70511888
_cell_length_c   4.16545300
_cell_angle_alpha   90.00000000
_cell_angle_beta   90.00000000
_cell_angle_gamma   119.76668368
_symmetry_Int_Tables_number   1
_chemical_formula_structural   Pr3Sn2Pd2RhPb
_chemical_formula_sum   'Pr3 Sn2 Pd2 Rh1 Pb1'
_cell_volume   214.66825065
_cell_formula_units_Z   1
loop_
 _symmetry_equiv_pos_site_id
 _symmetry_equiv_pos_as_xyz
  1  'x, y, z'
loop_
 _atom_site_type_symbol
 _atom_site_label
 _atom_site_symmetry_multiplicity
 _atom_site_fract_x
 _atom_site_fract_y
 _atom_site_fract_z
 _atom_site_occupancy
  Pr  Pr0  1  0.002465  0.590530  0.000000  1
  Pr  Pr1  1  0.407149  0.407149  0.000000  1
  Pr  Pr2  1  0.590530  0.002465  0.000000  1
  Sn  Sn3  1  0.000977  0.249354  0.500000  1
  Sn  Sn4  1  0.249354  0.000977  0.500000  1
  Pd  Pd5  1  0.665135  0.326112  0.500000  1
  Pd  Pd6  1  0.326112  0.665135  0.500000  1
  Rh  Rh7  1  0.010169  0.010169  0.000000  1
  Pb  Pb8  1  0.748108  0.748108  0.500000  1
