# generated using pymatgen
data_Hf2Zr2TaSi4W3
_symmetry_space_group_name_H-M   'P 1'
_cell_length_a   3.55807500
_cell_length_b   6.96763174
_cell_length_c   8.29428205
_cell_angle_alpha   90.07896048
_cell_angle_beta   90.00000000
_cell_angle_gamma   90.00000000
_symmetry_Int_Tables_number   1
_chemical_formula_structural   Hf2Zr2TaSi4W3
_chemical_formula_sum   'Hf2 Zr2 Ta1 Si4 W3'
_cell_volume   205.62630640
_cell_formula_units_Z   1
loop_
 _symmetry_equiv_pos_site_id
 _symmetry_equiv_pos_as_xyz
  1  'x, y, z'
loop_
 _atom_site_type_symbol
 _atom_site_label
 _atom_site_symmetry_multiplicity
 _atom_site_fract_x
 _atom_site_fract_y
 _atom_site_fract_z
 _atom_site_occupancy
  Hf  Hf0  1  0.250000  0.542295  0.165579  1
  Hf  Hf1  1  0.250000  0.042050  0.332653  1
  Zr  Zr2  1  0.750000  0.457214  0.834473  1
  Zr  Zr3  1  0.750000  0.961240  0.669573  1
  Ta  Ta4  1  0.250000  0.631306  0.559114  1
  Si  Si5  1  0.250000  0.758636  0.863004  1
  Si  Si6  1  0.250000  0.255856  0.639361  1
  Si  Si7  1  0.750000  0.242818  0.140341  1
  Si  Si8  1  0.750000  0.742887  0.355232  1
  W  W9  1  0.250000  0.132950  0.941603  1
  W  W10  1  0.750000  0.363587  0.437558  1
  W  W11  1  0.750000  0.869159  0.061510  1
