# generated using pymatgen
data_Nd4BeCo(SiI)2
_symmetry_space_group_name_H-M   'P 1'
_cell_length_a   4.07415700
_cell_length_b   4.07415585
_cell_length_c   17.33504300
_cell_angle_alpha   90.00000000
_cell_angle_beta   90.00000000
_cell_angle_gamma   119.99998497
_symmetry_Int_Tables_number   1
_chemical_formula_structural   Nd4BeCo(SiI)2
_chemical_formula_sum   'Nd4 Be1 Co1 Si2 I2'
_cell_volume   249.19023507
_cell_formula_units_Z   1
loop_
 _symmetry_equiv_pos_site_id
 _symmetry_equiv_pos_as_xyz
  1  'x, y, z'
loop_
 _atom_site_type_symbol
 _atom_site_label
 _atom_site_symmetry_multiplicity
 _atom_site_fract_x
 _atom_site_fract_y
 _atom_site_fract_z
 _atom_site_occupancy
  Nd  Nd0  1  0.000000  0.000000  0.104480  1
  Nd  Nd1  1  0.000000  0.000000  0.897820  1
  Nd  Nd2  1  0.000000  0.000000  0.612572  1
  Nd  Nd3  1  0.000000  0.000000  0.385335  1
  Be  Be4  1  0.333333  0.666667  0.503482  1
  Co  Co5  1  0.333333  0.666667  0.998139  1
  Si  Si6  1  0.666667  0.333333  0.497094  1
  Si  Si7  1  0.666667  0.333333  0.002225  1
  I  I8  1  0.333333  0.666667  0.249793  1
  I  I9  1  0.666667  0.333333  0.749059  1
