# generated using pymatgen
data_Ba2Ga6MoIr
_symmetry_space_group_name_H-M   'P 1'
_cell_length_a   7.01515608
_cell_length_b   7.01136929
_cell_length_c   7.01351317
_cell_angle_alpha   60.01482336
_cell_angle_beta   59.99738753
_cell_angle_gamma   90.00707057
_symmetry_Int_Tables_number   1
_chemical_formula_structural   Ba2Ga6MoIr
_chemical_formula_sum   'Ba2 Ga6 Mo1 Ir1'
_cell_volume   243.95748088
_cell_formula_units_Z   1
loop_
 _symmetry_equiv_pos_site_id
 _symmetry_equiv_pos_as_xyz
  1  'x, y, z'
loop_
 _atom_site_type_symbol
 _atom_site_label
 _atom_site_symmetry_multiplicity
 _atom_site_fract_x
 _atom_site_fract_y
 _atom_site_fract_z
 _atom_site_occupancy
  Ba  Ba0  1  0.749636  0.249642  0.500723  1
  Ba  Ba1  1  0.250362  0.750356  0.499279  1
  Ga  Ga2  1  0.251827  0.251841  0.000001  1
  Ga  Ga3  1  0.750027  0.253134  0.000002  1
  Ga  Ga4  1  0.748173  0.748159  0.999999  1
  Ga  Ga5  1  0.249975  0.746867  0.999998  1
  Ga  Ga6  1  0.251813  0.251812  0.496374  1
  Ga  Ga7  1  0.748187  0.748189  0.503626  1
  Mo  Mo8  1  0.000000  0.999999  0.000000  1
  Ir  Ir9  1  0.500000  0.500000  0.000000  1
