# generated using pymatgen
data_Tb2AsPd5Pt3
_symmetry_space_group_name_H-M   'P 1'
_cell_length_a   4.13590200
_cell_length_b   4.13590200
_cell_length_c   11.26225100
_cell_angle_alpha   90.00000000
_cell_angle_beta   90.00000000
_cell_angle_gamma   90.00000000
_symmetry_Int_Tables_number   1
_chemical_formula_structural   Tb2AsPd5Pt3
_chemical_formula_sum   'Tb2 As1 Pd5 Pt3'
_cell_volume   192.64852198
_cell_formula_units_Z   1
loop_
 _symmetry_equiv_pos_site_id
 _symmetry_equiv_pos_as_xyz
  1  'x, y, z'
loop_
 _atom_site_type_symbol
 _atom_site_label
 _atom_site_symmetry_multiplicity
 _atom_site_fract_x
 _atom_site_fract_y
 _atom_site_fract_z
 _atom_site_occupancy
  Tb  Tb0  1  0.500000  0.500000  0.819012  1
  Tb  Tb1  1  0.500000  0.500000  0.181711  1
  As  As2  1  0.000000  0.000000  0.499917  1
  Pd  Pd3  1  0.500000  0.000000  0.630779  1
  Pd  Pd4  1  0.000000  0.500000  0.630779  1
  Pd  Pd5  1  0.500000  0.000000  0.368896  1
  Pd  Pd6  1  0.000000  0.500000  0.368896  1
  Pd  Pd7  1  0.000000  0.000000  0.816943  1
  Pt  Pt8  1  0.500000  0.000000  0.999952  1
  Pt  Pt9  1  0.000000  0.500000  0.999952  1
  Pt  Pt10  1  0.000000  0.000000  0.183165  1
