# generated using pymatgen
data_Ho7ErTi12Si15Sn
_symmetry_space_group_name_H-M   'P 1'
_cell_length_a   7.09498014
_cell_length_b   7.05979076
_cell_length_c   12.99959904
_cell_angle_alpha   89.98731597
_cell_angle_beta   89.74235897
_cell_angle_gamma   89.93197691
_symmetry_Int_Tables_number   1
_chemical_formula_structural   Ho7ErTi12Si15Sn
_chemical_formula_sum   'Ho7 Er1 Ti12 Si15 Sn1'
_cell_volume   651.13083673
_cell_formula_units_Z   1
loop_
 _symmetry_equiv_pos_site_id
 _symmetry_equiv_pos_as_xyz
  1  'x, y, z'
loop_
 _atom_site_type_symbol
 _atom_site_label
 _atom_site_symmetry_multiplicity
 _atom_site_fract_x
 _atom_site_fract_y
 _atom_site_fract_z
 _atom_site_occupancy
  Ho  Ho0  1  0.505363  0.835155  0.718018  1
  Ho  Ho1  1  0.502392  0.159815  0.216650  1
  Ho  Ho2  1  0.840859  0.497117  0.282407  1
  Ho  Ho3  1  0.159227  0.510192  0.785991  1
  Ho  Ho4  1  0.661157  0.996252  0.968594  1
  Ho  Ho5  1  0.993352  0.348281  0.527659  1
  Ho  Ho6  1  0.998553  0.659119  0.034180  1
  Er  Er7  1  0.343464  0.999364  0.461513  1
  Ti  Ti8  1  0.326007  0.326603  0.001084  1
  Ti  Ti9  1  0.174090  0.826081  0.249828  1
  Ti  Ti10  1  0.816583  0.175090  0.751926  1
  Ti  Ti11  1  0.672714  0.673321  0.499511  1
  Ti  Ti12  1  0.152260  0.007343  0.883149  1
  Ti  Ti13  1  0.492347  0.650622  0.126858  1
  Ti  Ti14  1  0.515106  0.353861  0.626409  1
  Ti  Ti15  1  0.653943  0.493339  0.875397  1
  Ti  Ti16  1  0.347746  0.508943  0.372864  1
  Ti  Ti17  1  0.847360  0.992291  0.375864  1
  Ti  Ti18  1  0.009269  0.151594  0.123431  1
  Ti  Ti19  1  0.980041  0.835506  0.618911  1
  Si  Si20  1  0.370696  0.702915  0.935805  1
  Si  Si21  1  0.628314  0.296903  0.432816  1
  Si  Si22  1  0.703442  0.369381  0.066415  1
  Si  Si23  1  0.297002  0.631100  0.565644  1
  Si  Si24  1  0.797374  0.869655  0.184227  1
  Si  Si25  1  0.130441  0.202585  0.315212  1
  Si  Si26  1  0.870147  0.799755  0.816129  1
  Si  Si27  1  0.292233  0.951938  0.066756  1
  Si  Si28  1  0.549132  0.789690  0.313787  1
  Si  Si29  1  0.459178  0.210450  0.819922  1
  Si  Si30  1  0.793751  0.545000  0.686764  1
  Si  Si31  1  0.209314  0.452552  0.185199  1
  Si  Si32  1  0.706764  0.048308  0.564434  1
  Si  Si33  1  0.952419  0.291372  0.935283  1
  Si  Si34  1  0.048492  0.711094  0.432939  1
  Sn  Sn35  1  0.199464  0.127411  0.678424  1
