# generated using pymatgen
data_YbHo(TmSe2)2
_symmetry_space_group_name_H-M   'P 1'
_cell_length_a   13.38223633
_cell_length_b   13.38223615
_cell_length_c   13.38223633
_cell_angle_alpha   17.46555634
_cell_angle_beta   17.46556132
_cell_angle_gamma   17.46555479
_symmetry_Int_Tables_number   1
_chemical_formula_structural   YbHo(TmSe2)2
_chemical_formula_sum   'Yb1 Ho1 Tm2 Se4'
_cell_volume   188.40483669
_cell_formula_units_Z   1
loop_
 _symmetry_equiv_pos_site_id
 _symmetry_equiv_pos_as_xyz
  1  'x, y, z'
loop_
 _atom_site_type_symbol
 _atom_site_label
 _atom_site_symmetry_multiplicity
 _atom_site_fract_x
 _atom_site_fract_y
 _atom_site_fract_z
 _atom_site_occupancy
  Yb  Yb0  1  0.000000  0.000000  0.000000  1
  Ho  Ho1  1  0.500000  0.500000  0.500000  1
  Tm  Tm2  1  0.248533  0.248533  0.248533  1
  Tm  Tm3  1  0.751467  0.751467  0.751467  1
  Se  Se4  1  0.376587  0.376587  0.376587  1
  Se  Se5  1  0.125010  0.125010  0.125010  1
  Se  Se6  1  0.623413  0.623413  0.623413  1
  Se  Se7  1  0.874990  0.874990  0.874990  1
