# generated using pymatgen
data_LiNd6RhBr12
_symmetry_space_group_name_H-M   'P 1'
_cell_length_a   9.58120236
_cell_length_b   9.58120361
_cell_length_c   9.58120405
_cell_angle_alpha   108.10377506
_cell_angle_beta   108.10376605
_cell_angle_gamma   108.10377047
_symmetry_Int_Tables_number   1
_chemical_formula_structural   LiNd6RhBr12
_chemical_formula_sum   'Li1 Nd6 Rh1 Br12'
_cell_volume   709.28695461
_cell_formula_units_Z   1
loop_
 _symmetry_equiv_pos_site_id
 _symmetry_equiv_pos_as_xyz
  1  'x, y, z'
loop_
 _atom_site_type_symbol
 _atom_site_label
 _atom_site_symmetry_multiplicity
 _atom_site_fract_x
 _atom_site_fract_y
 _atom_site_fract_z
 _atom_site_occupancy
  Li  Li0  1  0.500000  0.500000  0.500000  1
  Nd  Nd1  1  0.325310  0.116305  0.035680  1
  Nd  Nd2  1  0.035680  0.325310  0.116305  1
  Nd  Nd3  1  0.116305  0.035680  0.325310  1
  Nd  Nd4  1  0.674690  0.883695  0.964320  1
  Nd  Nd5  1  0.964320  0.674690  0.883695  1
  Nd  Nd6  1  0.883695  0.964320  0.674690  1
  Rh  Rh7  1  0.000000  0.000000  0.000000  1
  Br  Br8  1  0.686960  0.218859  0.071777  1
  Br  Br9  1  0.071777  0.686960  0.218859  1
  Br  Br10  1  0.218859  0.071777  0.686960  1
  Br  Br11  1  0.313040  0.781141  0.928223  1
  Br  Br12  1  0.928223  0.313040  0.781141  1
  Br  Br13  1  0.781141  0.928223  0.313040  1
  Br  Br14  1  0.462839  0.175956  0.384256  1
  Br  Br15  1  0.384256  0.462839  0.175956  1
  Br  Br16  1  0.175956  0.384256  0.462839  1
  Br  Br17  1  0.537161  0.824044  0.615744  1
  Br  Br18  1  0.615744  0.537161  0.824044  1
  Br  Br19  1  0.824044  0.615744  0.537161  1
