# generated using pymatgen
data_Tb2Tm(Ga2Co3)3
_symmetry_space_group_name_H-M   'P 1'
_cell_length_a   4.05531900
_cell_length_b   8.73567001
_cell_length_c   8.73567100
_cell_angle_alpha   59.98400412
_cell_angle_beta   90.00000000
_cell_angle_gamma   90.00000000
_symmetry_Int_Tables_number   1
_chemical_formula_structural   Tb2Tm(Ga2Co3)3
_chemical_formula_sum   'Tb2 Tm1 Ga6 Co9'
_cell_volume   267.96502892
_cell_formula_units_Z   1
loop_
 _symmetry_equiv_pos_site_id
 _symmetry_equiv_pos_as_xyz
  1  'x, y, z'
loop_
 _atom_site_type_symbol
 _atom_site_label
 _atom_site_symmetry_multiplicity
 _atom_site_fract_x
 _atom_site_fract_y
 _atom_site_fract_z
 _atom_site_occupancy
  Tb  Tb0  1  0.500000  0.333411  0.333199  1
  Tb  Tb1  1  0.500000  0.666801  0.666589  1
  Tm  Tm2  1  0.000000  0.999973  0.000027  1
  Ga  Ga3  1  0.000000  0.496100  0.503900  1
  Ga  Ga4  1  0.000000  0.503981  0.999992  1
  Ga  Ga5  1  0.000000  0.000008  0.496019  1
  Ga  Ga6  1  0.500000  0.729740  0.270260  1
  Ga  Ga7  1  0.500000  0.270376  0.000155  1
  Ga  Ga8  1  0.500000  0.999845  0.729624  1
  Co  Co9  1  0.000000  0.179404  0.180240  1
  Co  Co10  1  0.000000  0.180134  0.640329  1
  Co  Co11  1  0.000000  0.640368  0.179419  1
  Co  Co12  1  0.000000  0.819760  0.820596  1
  Co  Co13  1  0.000000  0.359671  0.819866  1
  Co  Co14  1  0.000000  0.820581  0.359632  1
  Co  Co15  1  0.500000  0.296037  0.703963  1
  Co  Co16  1  0.500000  0.703693  0.999981  1
  Co  Co17  1  0.500000  0.000019  0.296307  1
