# generated using pymatgen
data_Zr10Sn4Bi2Se
_symmetry_space_group_name_H-M   'P 1'
_cell_length_a   5.89117714
_cell_length_b   8.68151366
_cell_length_c   8.67649820
_cell_angle_alpha   119.98080073
_cell_angle_beta   90.02481351
_cell_angle_gamma   89.98751971
_symmetry_Int_Tables_number   1
_chemical_formula_structural   Zr10Sn4Bi2Se
_chemical_formula_sum   'Zr10 Sn4 Bi2 Se1'
_cell_volume   384.37629369
_cell_formula_units_Z   1
loop_
 _symmetry_equiv_pos_site_id
 _symmetry_equiv_pos_as_xyz
  1  'x, y, z'
loop_
 _atom_site_type_symbol
 _atom_site_label
 _atom_site_symmetry_multiplicity
 _atom_site_fract_x
 _atom_site_fract_y
 _atom_site_fract_z
 _atom_site_occupancy
  Zr  Zr0  1  0.497458  0.330939  0.666422  1
  Zr  Zr1  1  0.497458  0.669060  0.335482  1
  Zr  Zr2  1  0.002898  0.668986  0.335365  1
  Zr  Zr3  1  0.002899  0.331015  0.666377  1
  Zr  Zr4  1  0.764639  0.251171  0.994925  1
  Zr  Zr5  1  0.764640  0.748829  0.743753  1
  Zr  Zr6  1  0.763987  0.000000  0.257407  1
  Zr  Zr7  1  0.236644  0.744848  0.000582  1
  Zr  Zr8  1  0.236643  0.255152  0.255733  1
  Zr  Zr9  1  0.236169  0.999999  0.743077  1
  Sn  Sn10  1  0.748211  0.999998  0.606230  1
  Sn  Sn11  1  0.251055  0.390170  0.000679  1
  Sn  Sn12  1  0.251055  0.609835  0.610513  1
  Sn  Sn13  1  0.251211  0.999999  0.391538  1
  Bi  Bi14  1  0.747712  0.607601  0.999572  1
  Bi  Bi15  1  0.747713  0.392402  0.391972  1
  Se  Se16  1  0.499608  0.999999  0.000373  1
