# generated using pymatgen
data_CaHoLu2(B6Os)2
_symmetry_space_group_name_H-M   'P 1'
_cell_length_a   3.61159100
_cell_length_b   9.09206935
_cell_length_c   11.49580601
_cell_angle_alpha   89.85001944
_cell_angle_beta   90.00000000
_cell_angle_gamma   90.00000000
_symmetry_Int_Tables_number   1
_chemical_formula_structural   CaHoLu2(B6Os)2
_chemical_formula_sum   'Ca2 Ho2 Lu4 B24 Os4'
_cell_volume   377.48460143
_cell_formula_units_Z   2
loop_
 _symmetry_equiv_pos_site_id
 _symmetry_equiv_pos_as_xyz
  1  'x, y, z'
loop_
 _atom_site_type_symbol
 _atom_site_label
 _atom_site_symmetry_multiplicity
 _atom_site_fract_x
 _atom_site_fract_y
 _atom_site_fract_z
 _atom_site_occupancy
  Ca  Ca0  1  0.000000  0.323157  0.414690  1
  Ca  Ca1  1  0.000000  0.676843  0.585310  1
  Ho  Ho2  1  0.000000  0.821667  0.086277  1
  Ho  Ho3  1  0.000000  0.178333  0.913723  1
  Lu  Lu4  1  0.000000  0.942793  0.370414  1
  Lu  Lu5  1  0.000000  0.057207  0.629586  1
  Lu  Lu6  1  0.000000  0.443269  0.129441  1
  Lu  Lu7  1  0.000000  0.556731  0.870559  1
  B  B8  1  0.500000  0.554411  0.431761  1
  B  B9  1  0.500000  0.445589  0.568239  1
  B  B10  1  0.500000  0.053863  0.066555  1
  B  B11  1  0.500000  0.946137  0.933445  1
  B  B12  1  0.500000  0.749757  0.417127  1
  B  B13  1  0.500000  0.250243  0.582873  1
  B  B14  1  0.500000  0.249680  0.080926  1
  B  B15  1  0.500000  0.750320  0.919074  1
  B  B16  1  0.500000  0.792435  0.264086  1
  B  B17  1  0.500000  0.207565  0.735913  1
  B  B18  1  0.500000  0.291130  0.233583  1
  B  B19  1  0.500000  0.708870  0.766418  1
  B  B20  1  0.500000  0.630990  0.184059  1
  B  B21  1  0.500000  0.369010  0.815941  1
  B  B22  1  0.500000  0.129987  0.313953  1
  B  B23  1  0.500000  0.870013  0.686047  1
  B  B24  1  0.500000  0.982473  0.211917  1
  B  B25  1  0.500000  0.017527  0.788083  1
  B  B26  1  0.500000  0.483392  0.286656  1
  B  B27  1  0.500000  0.516608  0.713344  1
  B  B28  1  0.500000  0.601533  0.027790  1
  B  B29  1  0.500000  0.398467  0.972210  1
  B  B30  1  0.500000  0.097775  0.473145  1
  B  B31  1  0.500000  0.902225  0.526855  1
  Os  Os32  1  0.000000  0.641067  0.317224  1
  Os  Os33  1  0.000000  0.358933  0.682776  1
  Os  Os34  1  0.000000  0.137197  0.177917  1
  Os  Os35  1  0.000000  0.862803  0.822083  1
