# generated using pymatgen
data_Lu4Fe19P12W
_symmetry_space_group_name_H-M   'P 1'
_cell_length_a   3.64443700
_cell_length_b   10.27341520
_cell_length_c   11.80185647
_cell_angle_alpha   89.39882696
_cell_angle_beta   90.00000000
_cell_angle_gamma   90.00000000
_symmetry_Int_Tables_number   1
_chemical_formula_structural   Lu4Fe19P12W
_chemical_formula_sum   'Lu4 Fe19 P12 W1'
_cell_volume   441.84679550
_cell_formula_units_Z   1
loop_
 _symmetry_equiv_pos_site_id
 _symmetry_equiv_pos_as_xyz
  1  'x, y, z'
loop_
 _atom_site_type_symbol
 _atom_site_label
 _atom_site_symmetry_multiplicity
 _atom_site_fract_x
 _atom_site_fract_y
 _atom_site_fract_z
 _atom_site_occupancy
  Lu  Lu0  1  0.250000  0.576784  0.702814  1
  Lu  Lu1  1  0.250000  0.917962  0.205373  1
  Lu  Lu2  1  0.750000  0.422968  0.297150  1
  Lu  Lu3  1  0.750000  0.085714  0.791803  1
  Fe  Fe4  1  0.250000  0.790825  0.489831  1
  Fe  Fe5  1  0.750000  0.293972  0.011720  1
  Fe  Fe6  1  0.750000  0.207574  0.511096  1
  Fe  Fe7  1  0.250000  0.405094  0.490703  1
  Fe  Fe8  1  0.250000  0.099115  0.989034  1
  Fe  Fe9  1  0.750000  0.591487  0.510838  1
  Fe  Fe10  1  0.750000  0.908595  0.010654  1
  Fe  Fe11  1  0.250000  0.218561  0.178534  1
  Fe  Fe12  1  0.250000  0.276489  0.673229  1
  Fe  Fe13  1  0.750000  0.783792  0.818557  1
  Fe  Fe14  1  0.750000  0.721472  0.328977  1
  Fe  Fe15  1  0.250000  0.874984  0.701356  1
  Fe  Fe16  1  0.250000  0.620535  0.202783  1
  Fe  Fe17  1  0.750000  0.125993  0.298103  1
  Fe  Fe18  1  0.750000  0.378303  0.799903  1
  Fe  Fe19  1  0.250000  0.460159  0.934249  1
  Fe  Fe20  1  0.250000  0.036923  0.431554  1
  Fe  Fe21  1  0.750000  0.533147  0.066453  1
  Fe  Fe22  1  0.750000  0.962164  0.567062  1
  P  P23  1  0.250000  0.422619  0.116467  1
  P  P24  1  0.250000  0.077620  0.611884  1
  P  P25  1  0.750000  0.572591  0.882496  1
  P  P26  1  0.750000  0.921871  0.386508  1
  P  P27  1  0.250000  0.266310  0.864601  1
  P  P28  1  0.250000  0.237389  0.373309  1
  P  P29  1  0.750000  0.731089  0.140202  1
  P  P30  1  0.750000  0.761361  0.624037  1
  P  P31  1  0.250000  0.600943  0.394444  1
  P  P32  1  0.250000  0.914210  0.892737  1
  P  P33  1  0.750000  0.395582  0.608298  1
  P  P34  1  0.750000  0.101449  0.103828  1
  W  W35  1  0.250000  0.704356  0.989413  1
