# generated using pymatgen
data_Na3Tl(SiP)12
_symmetry_space_group_name_H-M   'P 1'
_cell_length_a   3.51759600
_cell_length_b   9.95987886
_cell_length_c   18.32350631
_cell_angle_alpha   91.33969517
_cell_angle_beta   90.00000000
_cell_angle_gamma   90.00000000
_symmetry_Int_Tables_number   1
_chemical_formula_structural   Na3Tl(SiP)12
_chemical_formula_sum   'Na3 Tl1 Si12 P12'
_cell_volume   641.78544999
_cell_formula_units_Z   1
loop_
 _symmetry_equiv_pos_site_id
 _symmetry_equiv_pos_as_xyz
  1  'x, y, z'
loop_
 _atom_site_type_symbol
 _atom_site_label
 _atom_site_symmetry_multiplicity
 _atom_site_fract_x
 _atom_site_fract_y
 _atom_site_fract_z
 _atom_site_occupancy
  Na  Na0  1  0.000000  0.342969  0.295388  1
  Na  Na1  1  0.000000  0.645980  0.709797  1
  Na  Na2  1  0.000000  0.146958  0.790163  1
  Tl  Tl3  1  0.000000  0.854266  0.209556  1
  Si  Si4  1  0.500000  0.411115  0.028913  1
  Si  Si5  1  0.500000  0.604100  0.958126  1
  Si  Si6  1  0.500000  0.092480  0.539009  1
  Si  Si7  1  0.500000  0.892208  0.468953  1
  Si  Si8  1  0.000000  0.121707  0.011531  1
  Si  Si9  1  0.000000  0.891966  0.982005  1
  Si  Si10  1  0.000000  0.378118  0.518613  1
  Si  Si11  1  0.000000  0.605384  0.490358  1
  Si  Si12  1  0.000000  0.199645  0.133928  1
  Si  Si13  1  0.000000  0.824853  0.858321  1
  Si  Si14  1  0.000000  0.318114  0.641632  1
  Si  Si15  1  0.000000  0.663687  0.367193  1
  P  P16  1  0.500000  0.881977  0.789636  1
  P  P17  1  0.500000  0.380015  0.710521  1
  P  P18  1  0.500000  0.600864  0.298763  1
  P  P19  1  0.500000  0.273827  0.461479  1
  P  P20  1  0.500000  0.710912  0.546750  1
  P  P21  1  0.500000  0.220105  0.953694  1
  P  P22  1  0.500000  0.789631  0.037191  1
  P  P23  1  0.500000  0.144759  0.203438  1
  P  P24  1  0.000000  0.424611  0.107120  1
  P  P25  1  0.000000  0.597211  0.880153  1
  P  P26  1  0.000000  0.089365  0.617064  1
  P  P27  1  0.000000  0.893176  0.390707  1
