# generated using pymatgen
data_Pr6HoEr9(CdIr)4
_symmetry_space_group_name_H-M   'P 1'
_cell_length_a   9.72456181
_cell_length_b   9.72456250
_cell_length_c   9.74264300
_cell_angle_alpha   59.93848045
_cell_angle_beta   59.93847813
_cell_angle_gamma   59.89781831
_symmetry_Int_Tables_number   1
_chemical_formula_structural   Pr6HoEr9(CdIr)4
_chemical_formula_sum   'Pr6 Ho1 Er9 Cd4 Ir4'
_cell_volume   650.37158181
_cell_formula_units_Z   1
loop_
 _symmetry_equiv_pos_site_id
 _symmetry_equiv_pos_as_xyz
  1  'x, y, z'
loop_
 _atom_site_type_symbol
 _atom_site_label
 _atom_site_symmetry_multiplicity
 _atom_site_fract_x
 _atom_site_fract_y
 _atom_site_fract_z
 _atom_site_occupancy
  Pr  Pr0  1  0.941642  0.557574  0.558608  1
  Pr  Pr1  1  0.557574  0.941642  0.942177  1
  Pr  Pr2  1  0.557574  0.941642  0.558608  1
  Pr  Pr3  1  0.941642  0.557574  0.942177  1
  Pr  Pr4  1  0.558447  0.558447  0.941553  1
  Pr  Pr5  1  0.941981  0.941981  0.558019  1
  Ho  Ho6  1  0.813141  0.813141  0.186859  1
  Er  Er7  1  0.347104  0.347104  0.345835  1
  Er  Er8  1  0.347104  0.347104  0.959956  1
  Er  Er9  1  0.347216  0.960304  0.346240  1
  Er  Er10  1  0.960304  0.347216  0.346240  1
  Er  Er11  1  0.812551  0.186339  0.187929  1
  Er  Er12  1  0.186339  0.812551  0.813181  1
  Er  Er13  1  0.186339  0.812551  0.187929  1
  Er  Er14  1  0.812551  0.186339  0.813181  1
  Er  Er15  1  0.187021  0.187021  0.812979  1
  Cd  Cd16  1  0.578774  0.578774  0.578947  1
  Cd  Cd17  1  0.578774  0.578774  0.263504  1
  Cd  Cd18  1  0.579537  0.261690  0.579386  1
  Cd  Cd19  1  0.261690  0.579537  0.579386  1
  Ir  Ir20  1  0.141695  0.141695  0.140018  1
  Ir  Ir21  1  0.141695  0.141695  0.576594  1
  Ir  Ir22  1  0.142584  0.576724  0.140347  1
  Ir  Ir23  1  0.576724  0.142584  0.140347  1
