# generated using pymatgen
data_La4HfRu3F28
_symmetry_space_group_name_H-M   'P 1'
_cell_length_a   5.81702487
_cell_length_b   9.36151326
_cell_length_c   12.47907557
_cell_angle_alpha   62.74648591
_cell_angle_beta   90.08194816
_cell_angle_gamma   89.96725779
_symmetry_Int_Tables_number   1
_chemical_formula_structural   La4HfRu3F28
_chemical_formula_sum   'La4 Hf1 Ru3 F28'
_cell_volume   604.12241445
_cell_formula_units_Z   1
loop_
 _symmetry_equiv_pos_site_id
 _symmetry_equiv_pos_as_xyz
  1  'x, y, z'
loop_
 _atom_site_type_symbol
 _atom_site_label
 _atom_site_symmetry_multiplicity
 _atom_site_fract_x
 _atom_site_fract_y
 _atom_site_fract_z
 _atom_site_occupancy
  La  La0  1  0.757889  0.809278  0.264482  1
  La  La1  1  0.258095  0.191271  0.233573  1
  La  La2  1  0.242460  0.193347  0.731317  1
  La  La3  1  0.742243  0.808173  0.772590  1
  Hf  Hf4  1  0.246784  0.727038  0.543394  1
  Ru  Ru5  1  0.745396  0.273299  0.956184  1
  Ru  Ru6  1  0.754847  0.273323  0.455684  1
  Ru  Ru7  1  0.254202  0.726410  0.044321  1
  F  F8  1  0.962618  0.713558  0.455439  1
  F  F9  1  0.468861  0.285507  0.043943  1
  F  F10  1  0.031637  0.285318  0.543363  1
  F  F11  1  0.532093  0.713234  0.957798  1
  F  F12  1  0.055826  0.707864  0.923172  1
  F  F13  1  0.556592  0.291890  0.576586  1
  F  F14  1  0.944380  0.291074  0.077246  1
  F  F15  1  0.450650  0.708503  0.421306  1
  F  F16  1  0.738846  0.502659  0.863405  1
  F  F17  1  0.236727  0.486772  0.640164  1
  F  F18  1  0.260131  0.497335  0.136672  1
  F  F19  1  0.760978  0.502790  0.363235  1
  F  F20  1  0.742910  0.044642  0.045706  1
  F  F21  1  0.240344  0.966031  0.447040  1
  F  F22  1  0.257627  0.954543  0.954481  1
  F  F23  1  0.757891  0.045052  0.545713  1
  F  F24  1  0.045046  0.746459  0.667766  1
  F  F25  1  0.548094  0.254275  0.833959  1
  F  F26  1  0.950888  0.255945  0.332679  1
  F  F27  1  0.451193  0.745309  0.166596  1
  F  F28  1  0.018041  0.265375  0.865334  1
  F  F29  1  0.522747  0.734185  0.638054  1
  F  F30  1  0.980491  0.733446  0.134972  1
  F  F31  1  0.482376  0.268250  0.363702  1
  F  F32  1  0.082103  0.970492  0.232256  1
  F  F33  1  0.581814  0.027248  0.267496  1
  F  F34  1  0.918596  0.029138  0.768318  1
  F  F35  1  0.418586  0.970969  0.732054  1
