# generated using pymatgen
data_Ta10Al4Ni
_symmetry_space_group_name_H-M   'P 1'
_cell_length_a   9.84312900
_cell_length_b   9.84312900
_cell_length_c   5.18265900
_cell_angle_alpha   90.00000000
_cell_angle_beta   90.00000000
_cell_angle_gamma   90.00000000
_symmetry_Int_Tables_number   1
_chemical_formula_structural   Ta10Al4Ni
_chemical_formula_sum   'Ta20 Al8 Ni2'
_cell_volume   502.13325952
_cell_formula_units_Z   2
loop_
 _symmetry_equiv_pos_site_id
 _symmetry_equiv_pos_as_xyz
  1  'x, y, z'
loop_
 _atom_site_type_symbol
 _atom_site_label
 _atom_site_symmetry_multiplicity
 _atom_site_fract_x
 _atom_site_fract_y
 _atom_site_fract_z
 _atom_site_occupancy
  Ta  Ta0  1  0.400184  0.400184  0.000000  1
  Ta  Ta1  1  0.900184  0.099816  0.500000  1
  Ta  Ta2  1  0.099816  0.900184  0.500000  1
  Ta  Ta3  1  0.599816  0.599816  0.000000  1
  Ta  Ta4  1  0.130060  0.464423  0.000000  1
  Ta  Ta5  1  0.964423  0.369940  0.500000  1
  Ta  Ta6  1  0.035577  0.630060  0.500000  1
  Ta  Ta7  1  0.869940  0.535577  0.000000  1
  Ta  Ta8  1  0.369940  0.964423  0.500000  1
  Ta  Ta9  1  0.630060  0.035577  0.500000  1
  Ta  Ta10  1  0.464423  0.130060  0.000000  1
  Ta  Ta11  1  0.535577  0.869940  0.000000  1
  Ta  Ta12  1  0.180184  0.180184  0.251613  1
  Ta  Ta13  1  0.680184  0.319816  0.751613  1
  Ta  Ta14  1  0.319816  0.680184  0.751613  1
  Ta  Ta15  1  0.819816  0.819816  0.251613  1
  Ta  Ta16  1  0.319816  0.680184  0.248387  1
  Ta  Ta17  1  0.680184  0.319816  0.248387  1
  Ta  Ta18  1  0.180184  0.180184  0.748387  1
  Ta  Ta19  1  0.819816  0.819816  0.748387  1
  Al  Al20  1  0.254459  0.934787  0.000000  1
  Al  Al21  1  0.434787  0.245541  0.500000  1
  Al  Al22  1  0.565213  0.754459  0.500000  1
  Al  Al23  1  0.745541  0.065213  0.000000  1
  Al  Al24  1  0.245541  0.434787  0.500000  1
  Al  Al25  1  0.754459  0.565213  0.500000  1
  Al  Al26  1  0.934787  0.254459  0.000000  1
  Al  Al27  1  0.065213  0.745541  0.000000  1
  Ni  Ni28  1  0.000000  0.000000  0.000000  1
  Ni  Ni29  1  0.500000  0.500000  0.500000  1
