# generated using pymatgen
data_Tb11Cd8InPd4
_symmetry_space_group_name_H-M   'P 1'
_cell_length_a   13.19108512
_cell_length_b   13.21182362
_cell_length_c   3.69973500
_cell_angle_alpha   90.00000000
_cell_angle_beta   90.00000000
_cell_angle_gamma   112.38715553
_symmetry_Int_Tables_number   1
_chemical_formula_structural   Tb11Cd8InPd4
_chemical_formula_sum   'Tb11 Cd8 In1 Pd4'
_cell_volume   596.18708480
_cell_formula_units_Z   1
loop_
 _symmetry_equiv_pos_site_id
 _symmetry_equiv_pos_as_xyz
  1  'x, y, z'
loop_
 _atom_site_type_symbol
 _atom_site_label
 _atom_site_symmetry_multiplicity
 _atom_site_fract_x
 _atom_site_fract_y
 _atom_site_fract_z
 _atom_site_occupancy
  Tb  Tb0  1  0.416158  0.074153  0.000000  1
  Tb  Tb1  1  0.584977  0.926027  0.000000  1
  Tb  Tb2  1  0.075433  0.415995  0.000000  1
  Tb  Tb3  1  0.925913  0.582995  0.000000  1
  Tb  Tb4  1  0.161543  0.837235  0.000000  1
  Tb  Tb5  1  0.837461  0.163623  0.000000  1
  Tb  Tb6  1  0.371630  0.628895  0.000000  1
  Tb  Tb7  1  0.629001  0.372079  0.000000  1
  Tb  Tb8  1  0.304160  0.302746  0.000000  1
  Tb  Tb9  1  0.693498  0.694278  0.000000  1
  Tb  Tb10  1  0.999733  0.000846  0.000000  1
  Cd  Cd11  1  0.365926  0.842641  0.500000  1
  Cd  Cd12  1  0.634197  0.158400  0.500000  1
  Cd  Cd13  1  0.840724  0.366254  0.500000  1
  Cd  Cd14  1  0.159394  0.633985  0.500000  1
  Cd  Cd15  1  0.215443  0.069556  0.500000  1
  Cd  Cd16  1  0.785888  0.928672  0.500000  1
  Cd  Cd17  1  0.069297  0.215137  0.500000  1
  Cd  Cd18  1  0.500008  0.499024  0.500000  1
  In  In19  1  0.928008  0.786422  0.500000  1
  Pd  Pd20  1  0.449849  0.249116  0.500000  1
  Pd  Pd21  1  0.548880  0.750042  0.500000  1
  Pd  Pd22  1  0.251402  0.450357  0.500000  1
  Pd  Pd23  1  0.751476  0.551519  0.500000  1
