# generated using pymatgen
data_Er4Lu8ZnCo4Bi
_symmetry_space_group_name_H-M   'P 1'
_cell_length_a   8.20132973
_cell_length_b   8.20132868
_cell_length_c   8.20132859
_cell_angle_alpha   109.91152099
_cell_angle_beta   111.49183710
_cell_angle_gamma   107.04140610
_symmetry_Int_Tables_number   1
_chemical_formula_structural   Er4Lu8ZnCo4Bi
_chemical_formula_sum   'Er4 Lu8 Zn1 Co4 Bi1'
_cell_volume   423.99552260
_cell_formula_units_Z   1
loop_
 _symmetry_equiv_pos_site_id
 _symmetry_equiv_pos_as_xyz
  1  'x, y, z'
loop_
 _atom_site_type_symbol
 _atom_site_label
 _atom_site_symmetry_multiplicity
 _atom_site_fract_x
 _atom_site_fract_y
 _atom_site_fract_z
 _atom_site_occupancy
  Er  Er0  1  0.221674  0.429456  0.207782  1
  Er  Er1  1  0.778326  0.570544  0.792218  1
  Er  Er2  1  0.221674  0.013891  0.792218  1
  Er  Er3  1  0.778326  0.986109  0.207782  1
  Lu  Lu4  1  0.284298  0.180825  0.465124  1
  Lu  Lu5  1  0.715702  0.819175  0.534876  1
  Lu  Lu6  1  0.284298  0.819175  0.103472  1
  Lu  Lu7  1  0.715702  0.180825  0.896528  1
  Lu  Lu8  1  0.621135  0.313866  0.307269  1
  Lu  Lu9  1  0.378865  0.686134  0.692731  1
  Lu  Lu10  1  0.006598  0.313866  0.692731  1
  Lu  Lu11  1  0.993402  0.686134  0.307269  1
  Zn  Zn12  1  0.000000  0.000000  0.000000  1
  Co  Co13  1  0.000000  0.376638  0.376638  1
  Co  Co14  1  0.000000  0.623362  0.623362  1
  Co  Co15  1  0.386787  0.886787  0.500000  1
  Co  Co16  1  0.613213  0.113213  0.500000  1
  Bi  Bi17  1  0.500000  0.500000  0.000000  1
