# generated using pymatgen
data_SmY7Sc11Si16Hg
_symmetry_space_group_name_H-M   'P 1'
_cell_length_a   7.06970228
_cell_length_b   7.41197900
_cell_length_c   14.06048540
_cell_angle_alpha   90.03217583
_cell_angle_beta   89.94119176
_cell_angle_gamma   89.90800939
_symmetry_Int_Tables_number   1
_chemical_formula_structural   SmY7Sc11Si16Hg
_chemical_formula_sum   'Sm1 Y7 Sc11 Si16 Hg1'
_cell_volume   736.77479698
_cell_formula_units_Z   1
loop_
 _symmetry_equiv_pos_site_id
 _symmetry_equiv_pos_as_xyz
  1  'x, y, z'
loop_
 _atom_site_type_symbol
 _atom_site_label
 _atom_site_symmetry_multiplicity
 _atom_site_fract_x
 _atom_site_fract_y
 _atom_site_fract_z
 _atom_site_occupancy
  Sm  Sm0  1  0.483731  0.671614  0.598234  1
  Y  Y1  1  0.010833  0.173653  0.097218  1
  Y  Y2  1  0.990501  0.817474  0.902164  1
  Y  Y3  1  0.483903  0.673149  0.901234  1
  Y  Y4  1  0.990330  0.817583  0.598547  1
  Y  Y5  1  0.511310  0.324093  0.097440  1
  Y  Y6  1  0.009829  0.173598  0.402071  1
  Y  Y7  1  0.511169  0.324307  0.401761  1
  Sc  Sc8  1  0.838419  0.498300  0.250005  1
  Sc  Sc9  1  0.339950  0.002405  0.249842  1
  Sc  Sc10  1  0.657871  0.998403  0.750276  1
  Sc  Sc11  1  0.325189  0.183095  0.625663  1
  Sc  Sc12  1  0.671488  0.824377  0.374882  1
  Sc  Sc13  1  0.169409  0.680566  0.372730  1
  Sc  Sc14  1  0.671824  0.823592  0.124740  1
  Sc  Sc15  1  0.838485  0.324766  0.625781  1
  Sc  Sc16  1  0.325807  0.183404  0.874783  1
  Sc  Sc17  1  0.837389  0.324876  0.875324  1
  Sc  Sc18  1  0.169723  0.680504  0.126896  1
  Si  Si19  1  0.027739  0.097460  0.750554  1
  Si  Si20  1  0.967574  0.886696  0.249799  1
  Si  Si21  1  0.467081  0.618663  0.249677  1
  Si  Si22  1  0.546528  0.376322  0.750647  1
  Si  Si23  1  0.290320  0.891258  0.750727  1
  Si  Si24  1  0.713109  0.127278  0.249689  1
  Si  Si25  1  0.212781  0.374243  0.249701  1
  Si  Si26  1  0.771652  0.629111  0.751194  1
  Si  Si27  1  0.159453  0.457800  0.527180  1
  Si  Si28  1  0.842841  0.536018  0.461007  1
  Si  Si29  1  0.344039  0.967642  0.461246  1
  Si  Si30  1  0.843509  0.535921  0.038844  1
  Si  Si31  1  0.657476  0.035213  0.540145  1
  Si  Si32  1  0.162052  0.459363  0.971866  1
  Si  Si33  1  0.656351  0.033158  0.959455  1
  Si  Si34  1  0.344804  0.965621  0.037953  1
  Hg  Hg35  1  0.155536  0.508470  0.750727  1
