# generated using pymatgen
data_Dy7YTi9Si16Mo3
_symmetry_space_group_name_H-M   'P 1'
_cell_length_a   7.01162329
_cell_length_b   7.01167659
_cell_length_c   12.89035706
_cell_angle_alpha   89.97850768
_cell_angle_beta   90.01833877
_cell_angle_gamma   89.99005988
_symmetry_Int_Tables_number   1
_chemical_formula_structural   Dy7YTi9Si16Mo3
_chemical_formula_sum   'Dy7 Y1 Ti9 Si16 Mo3'
_cell_volume   633.73156527
_cell_formula_units_Z   1
loop_
 _symmetry_equiv_pos_site_id
 _symmetry_equiv_pos_as_xyz
  1  'x, y, z'
loop_
 _atom_site_type_symbol
 _atom_site_label
 _atom_site_symmetry_multiplicity
 _atom_site_fract_x
 _atom_site_fract_y
 _atom_site_fract_z
 _atom_site_occupancy
  Dy  Dy0  1  0.000404  0.340394  0.533153  1
  Dy  Dy1  1  0.660101  0.997975  0.966456  1
  Dy  Dy2  1  0.158486  0.501302  0.781836  1
  Dy  Dy3  1  0.840969  0.499701  0.283334  1
  Dy  Dy4  1  0.501292  0.158443  0.218126  1
  Dy  Dy5  1  0.499659  0.840999  0.716685  1
  Dy  Dy6  1  0.340407  0.000429  0.466893  1
  Y  Y7  1  0.997846  0.660152  0.033481  1
  Ti  Ti8  1  0.347084  0.509132  0.374395  1
  Ti  Ti9  1  0.847255  0.991046  0.376379  1
  Ti  Ti10  1  0.008366  0.151874  0.124807  1
  Ti  Ti11  1  0.991049  0.847266  0.623633  1
  Ti  Ti12  1  0.509177  0.347107  0.625612  1
  Ti  Ti13  1  0.151946  0.008452  0.875149  1
  Ti  Ti14  1  0.326857  0.326714  0.999992  1
  Ti  Ti15  1  0.491748  0.653843  0.127450  1
  Ti  Ti16  1  0.653793  0.491758  0.872506  1
  Si  Si17  1  0.047073  0.708478  0.434940  1
  Si  Si18  1  0.951875  0.291756  0.933997  1
  Si  Si19  1  0.708476  0.047109  0.565066  1
  Si  Si20  1  0.209151  0.453357  0.184958  1
  Si  Si21  1  0.791215  0.547480  0.684563  1
  Si  Si22  1  0.453389  0.209025  0.815087  1
  Si  Si23  1  0.547520  0.791250  0.315409  1
  Si  Si24  1  0.291977  0.951951  0.065993  1
  Si  Si25  1  0.798357  0.870761  0.184712  1
  Si  Si26  1  0.299182  0.629825  0.565322  1
  Si  Si27  1  0.702021  0.369907  0.065266  1
  Si  Si28  1  0.629846  0.299159  0.434729  1
  Si  Si29  1  0.370085  0.702148  0.934731  1
  Si  Si30  1  0.129555  0.201143  0.314961  1
  Si  Si31  1  0.201169  0.129557  0.685036  1
  Si  Si32  1  0.870660  0.798475  0.815303  1
  Mo  Mo33  1  0.672944  0.672931  0.500005  1
  Mo  Mo34  1  0.826060  0.172987  0.749319  1
  Mo  Mo35  1  0.173004  0.826108  0.250715  1
