# generated using pymatgen
data_HfThNbFe9
_symmetry_space_group_name_H-M   'P 1'
_cell_length_a   8.51230573
_cell_length_b   8.51230537
_cell_length_c   8.51230608
_cell_angle_alpha   33.94819315
_cell_angle_beta   33.94819495
_cell_angle_gamma   33.94819578
_symmetry_Int_Tables_number   1
_chemical_formula_structural   HfThNbFe9
_chemical_formula_sum   'Hf1 Th1 Nb1 Fe9'
_cell_volume   171.44429980
_cell_formula_units_Z   1
loop_
 _symmetry_equiv_pos_site_id
 _symmetry_equiv_pos_as_xyz
  1  'x, y, z'
loop_
 _atom_site_type_symbol
 _atom_site_label
 _atom_site_symmetry_multiplicity
 _atom_site_fract_x
 _atom_site_fract_y
 _atom_site_fract_z
 _atom_site_occupancy
  Hf  Hf0  1  0.144040  0.144040  0.144040  1
  Th  Th1  1  0.999978  0.999978  0.999978  1
  Nb  Nb2  1  0.856475  0.856475  0.856475  1
  Fe  Fe3  1  0.412122  0.916263  0.412122  1
  Fe  Fe4  1  0.412122  0.412122  0.916263  1
  Fe  Fe5  1  0.916263  0.412122  0.412122  1
  Fe  Fe6  1  0.587748  0.083418  0.587748  1
  Fe  Fe7  1  0.587748  0.587748  0.083418  1
  Fe  Fe8  1  0.083418  0.587748  0.587748  1
  Fe  Fe9  1  0.667218  0.667218  0.667218  1
  Fe  Fe10  1  0.332823  0.332823  0.332823  1
  Fe  Fe11  1  0.500045  0.500045  0.500045  1
