# generated using pymatgen
data_Ti5NbSn5
_symmetry_space_group_name_H-M   'P 1'
_cell_length_a   9.36845000
_cell_length_b   9.32864718
_cell_length_c   5.71417992
_cell_angle_alpha   90.40581817
_cell_angle_beta   90.00000000
_cell_angle_gamma   120.14124294
_symmetry_Int_Tables_number   1
_chemical_formula_structural   Ti5NbSn5
_chemical_formula_sum   'Ti10 Nb2 Sn10'
_cell_volume   431.85356932
_cell_formula_units_Z   2
loop_
 _symmetry_equiv_pos_site_id
 _symmetry_equiv_pos_as_xyz
  1  'x, y, z'
loop_
 _atom_site_type_symbol
 _atom_site_label
 _atom_site_symmetry_multiplicity
 _atom_site_fract_x
 _atom_site_fract_y
 _atom_site_fract_z
 _atom_site_occupancy
  Ti  Ti0  1  0.500031  0.000062  0.999905  1
  Ti  Ti1  1  0.156887  0.313773  0.237245  1
  Ti  Ti2  1  0.156385  0.842674  0.243085  1
  Ti  Ti3  1  0.686289  0.842674  0.243085  1
  Ti  Ti4  1  0.500038  0.000076  0.500079  1
  Ti  Ti5  1  0.999914  0.499936  0.500065  1
  Ti  Ti6  1  0.500023  0.499936  0.500065  1
  Ti  Ti7  1  0.313616  0.157249  0.756853  1
  Ti  Ti8  1  0.843632  0.157249  0.756853  1
  Ti  Ti9  1  0.843163  0.686327  0.762850  1
  Nb  Nb10  1  0.999983  0.500006  0.000008  1
  Nb  Nb11  1  0.500024  0.500006  0.000008  1
  Sn  Sn12  1  0.999996  0.999991  0.999952  1
  Sn  Sn13  1  0.408076  0.201820  0.255604  1
  Sn  Sn14  1  0.793745  0.201820  0.255604  1
  Sn  Sn15  1  0.796535  0.593071  0.261377  1
  Sn  Sn16  1  0.333986  0.667972  0.247253  1
  Sn  Sn17  1  0.999996  0.999993  0.500090  1
  Sn  Sn18  1  0.666027  0.332054  0.752705  1
  Sn  Sn19  1  0.203524  0.407048  0.738603  1
  Sn  Sn20  1  0.206293  0.798129  0.744362  1
  Sn  Sn21  1  0.591836  0.798129  0.744362  1
