# generated using pymatgen
data_Sr3Ga3Si2PtO14
_symmetry_space_group_name_H-M   'P 1'
_cell_length_a   8.33890102
_cell_length_b   8.33916328
_cell_length_c   5.17493601
_cell_angle_alpha   90.00382080
_cell_angle_beta   89.99279184
_cell_angle_gamma   120.00128822
_symmetry_Int_Tables_number   1
_chemical_formula_structural   Sr3Ga3Si2PtO14
_chemical_formula_sum   'Sr3 Ga3 Si2 Pt1 O14'
_cell_volume   311.64579448
_cell_formula_units_Z   1
loop_
 _symmetry_equiv_pos_site_id
 _symmetry_equiv_pos_as_xyz
  1  'x, y, z'
loop_
 _atom_site_type_symbol
 _atom_site_label
 _atom_site_symmetry_multiplicity
 _atom_site_fract_x
 _atom_site_fract_y
 _atom_site_fract_z
 _atom_site_occupancy
  Sr  Sr0  1  0.427366  0.000006  0.999994  1
  Sr  Sr1  1  0.999999  0.427352  0.999996  1
  Sr  Sr2  1  0.572626  0.572632  0.000006  1
  Ga  Ga3  1  0.750263  0.000024  0.500004  1
  Ga  Ga4  1  0.000005  0.750246  0.499999  1
  Ga  Ga5  1  0.249745  0.249763  0.499998  1
  Si  Si6  1  0.666664  0.333339  0.465232  1
  Si  Si7  1  0.333346  0.666674  0.534769  1
  Pt  Pt8  1  0.000022  0.000009  0.000001  1
  O  O9  1  0.333347  0.666677  0.222916  1
  O  O10  1  0.129128  0.908559  0.232232  1
  O  O11  1  0.091430  0.220565  0.232242  1
  O  O12  1  0.779398  0.870828  0.232289  1
  O  O13  1  0.473459  0.307004  0.331903  1
  O  O14  1  0.692995  0.166450  0.331899  1
  O  O15  1  0.833552  0.526551  0.331900  1
  O  O16  1  0.166440  0.692999  0.668096  1
  O  O17  1  0.307009  0.473467  0.668099  1
  O  O18  1  0.526546  0.833545  0.668101  1
  O  O19  1  0.220577  0.091428  0.767736  1
  O  O20  1  0.908570  0.129139  0.767749  1
  O  O21  1  0.870850  0.779410  0.767756  1
  O  O22  1  0.666662  0.333332  0.777083  1
