# generated using pymatgen
data_Tb17Ho3Sn16
_symmetry_space_group_name_H-M   'P 1'
_cell_length_a   8.05973207
_cell_length_b   8.20581207
_cell_length_c   15.53687000
_cell_angle_alpha   90.00000000
_cell_angle_beta   90.00000000
_cell_angle_gamma   89.98493037
_symmetry_Int_Tables_number   1
_chemical_formula_structural   Tb17Ho3Sn16
_chemical_formula_sum   'Tb17 Ho3 Sn16'
_cell_volume   1027.55644657
_cell_formula_units_Z   1
loop_
 _symmetry_equiv_pos_site_id
 _symmetry_equiv_pos_as_xyz
  1  'x, y, z'
loop_
 _atom_site_type_symbol
 _atom_site_label
 _atom_site_symmetry_multiplicity
 _atom_site_fract_x
 _atom_site_fract_y
 _atom_site_fract_z
 _atom_site_occupancy
  Tb  Tb0  1  0.367780  0.835509  0.878545  1
  Tb  Tb1  1  0.867784  0.664504  0.621418  1
  Tb  Tb2  1  0.632364  0.164587  0.378590  1
  Tb  Tb3  1  0.132136  0.335586  0.121406  1
  Tb  Tb4  1  0.632364  0.164587  0.121410  1
  Tb  Tb5  1  0.132136  0.335586  0.378594  1
  Tb  Tb6  1  0.367780  0.835509  0.621455  1
  Tb  Tb7  1  0.867784  0.664504  0.878582  1
  Tb  Tb8  1  0.520222  0.319448  0.902214  1
  Tb  Tb9  1  0.020251  0.180539  0.597807  1
  Tb  Tb10  1  0.479816  0.680484  0.402219  1
  Tb  Tb11  1  0.979694  0.819399  0.097772  1
  Tb  Tb12  1  0.479816  0.680484  0.097781  1
  Tb  Tb13  1  0.979694  0.819399  0.402228  1
  Tb  Tb14  1  0.520222  0.319448  0.597786  1
  Tb  Tb15  1  0.020251  0.180539  0.902193  1
  Tb  Tb16  1  0.302033  0.002180  0.250000  1
  Ho  Ho17  1  0.198153  0.502165  0.750000  1
  Ho  Ho18  1  0.698164  0.997790  0.750000  1
  Ho  Ho19  1  0.801808  0.497807  0.250000  1
  Sn  Sn20  1  0.291816  0.033547  0.042127  1
  Sn  Sn21  1  0.791823  0.466451  0.457691  1
  Sn  Sn22  1  0.708182  0.966496  0.542340  1
  Sn  Sn23  1  0.208180  0.533538  0.957660  1
  Sn  Sn24  1  0.708182  0.966496  0.957660  1
  Sn  Sn25  1  0.208180  0.533538  0.542340  1
  Sn  Sn26  1  0.291816  0.033547  0.457873  1
  Sn  Sn27  1  0.791823  0.466451  0.042309  1
  Sn  Sn28  1  0.565169  0.618953  0.750000  1
  Sn  Sn29  1  0.065102  0.881017  0.750000  1
  Sn  Sn30  1  0.434925  0.381265  0.250000  1
  Sn  Sn31  1  0.934360  0.119106  0.250000  1
  Sn  Sn32  1  0.327752  0.145519  0.750000  1
  Sn  Sn33  1  0.827669  0.354569  0.750000  1
  Sn  Sn34  1  0.672498  0.854440  0.250000  1
  Sn  Sn35  1  0.172267  0.645010  0.250000  1
