# generated using pymatgen
data_Y3In3GaPdPt
_symmetry_space_group_name_H-M   'P 1'
_cell_length_a   7.73448100
_cell_length_b   7.73448122
_cell_length_c   3.90544900
_cell_angle_alpha   90.00000000
_cell_angle_beta   90.00000000
_cell_angle_gamma   120.00000332
_symmetry_Int_Tables_number   1
_chemical_formula_structural   Y3In3GaPdPt
_chemical_formula_sum   'Y3 In3 Ga1 Pd1 Pt1'
_cell_volume   202.33171114
_cell_formula_units_Z   1
loop_
 _symmetry_equiv_pos_site_id
 _symmetry_equiv_pos_as_xyz
  1  'x, y, z'
loop_
 _atom_site_type_symbol
 _atom_site_label
 _atom_site_symmetry_multiplicity
 _atom_site_fract_x
 _atom_site_fract_y
 _atom_site_fract_z
 _atom_site_occupancy
  Y  Y0  1  0.397685  0.986706  0.500000  1
  Y  Y1  1  0.013294  0.410979  0.500000  1
  Y  Y2  1  0.589021  0.602315  0.500000  1
  In  In3  1  0.740891  0.001103  0.000000  1
  In  In4  1  0.260211  0.259109  0.000000  1
  In  In5  1  0.998897  0.739789  0.000000  1
  Ga  Ga6  1  0.666667  0.333333  0.000000  1
  Pd  Pd7  1  0.000000  0.000000  0.500000  1
  Pt  Pt8  1  0.333333  0.666667  0.000000  1
