# generated using pymatgen
data_Tm4Ga2TcRu5
_symmetry_space_group_name_H-M   'P 1'
_cell_length_a   5.25258145
_cell_length_b   5.41399850
_cell_length_c   8.76452000
_cell_angle_alpha   90.00000000
_cell_angle_beta   90.00000000
_cell_angle_gamma   121.02189942
_symmetry_Int_Tables_number   1
_chemical_formula_structural   Tm4Ga2TcRu5
_chemical_formula_sum   'Tm4 Ga2 Tc1 Ru5'
_cell_volume   213.59194737
_cell_formula_units_Z   1
loop_
 _symmetry_equiv_pos_site_id
 _symmetry_equiv_pos_as_xyz
  1  'x, y, z'
loop_
 _atom_site_type_symbol
 _atom_site_label
 _atom_site_symmetry_multiplicity
 _atom_site_fract_x
 _atom_site_fract_y
 _atom_site_fract_z
 _atom_site_occupancy
  Tm  Tm0  1  0.341871  0.670935  0.441428  1
  Tm  Tm1  1  0.664534  0.332267  0.566730  1
  Tm  Tm2  1  0.664534  0.332267  0.933270  1
  Tm  Tm3  1  0.341871  0.670935  0.058572  1
  Ga  Ga4  1  0.827580  0.169534  0.250000  1
  Ga  Ga5  1  0.827580  0.658046  0.250000  1
  Tc  Tc6  1  0.653399  0.826699  0.750000  1
  Ru  Ru7  1  0.995247  0.997623  0.499848  1
  Ru  Ru8  1  0.995247  0.997623  0.000152  1
  Ru  Ru9  1  0.335798  0.167899  0.250000  1
  Ru  Ru10  1  0.176169  0.835326  0.750000  1
  Ru  Ru11  1  0.176169  0.340843  0.750000  1
