# generated using pymatgen
data_HfZr9Sn4(GeSb)2
_symmetry_space_group_name_H-M   'P 1'
_cell_length_a   8.70500809
_cell_length_b   8.70336267
_cell_length_c   5.90388602
_cell_angle_alpha   90.00819821
_cell_angle_beta   89.99592869
_cell_angle_gamma   119.98865397
_symmetry_Int_Tables_number   1
_chemical_formula_structural   HfZr9Sn4(GeSb)2
_chemical_formula_sum   'Hf1 Zr9 Sn4 Ge2 Sb2'
_cell_volume   387.41327035
_cell_formula_units_Z   1
loop_
 _symmetry_equiv_pos_site_id
 _symmetry_equiv_pos_as_xyz
  1  'x, y, z'
loop_
 _atom_site_type_symbol
 _atom_site_label
 _atom_site_symmetry_multiplicity
 _atom_site_fract_x
 _atom_site_fract_y
 _atom_site_fract_z
 _atom_site_occupancy
  Hf  Hf0  1  0.666955  0.332830  0.998805  1
  Zr  Zr1  1  0.332693  0.666963  0.999162  1
  Zr  Zr2  1  0.332707  0.666962  0.500886  1
  Zr  Zr3  1  0.666964  0.332641  0.500852  1
  Zr  Zr4  1  0.736239  0.736043  0.750233  1
  Zr  Zr5  1  0.264367  0.000215  0.750242  1
  Zr  Zr6  1  0.999880  0.264194  0.750280  1
  Zr  Zr7  1  0.262217  0.261972  0.249808  1
  Zr  Zr8  1  0.737247  0.000374  0.249834  1
  Zr  Zr9  1  0.999948  0.737008  0.249807  1
  Sn  Sn10  1  0.393573  0.393237  0.750404  1
  Sn  Sn11  1  0.608132  0.999899  0.750409  1
  Sn  Sn12  1  0.999184  0.607754  0.750381  1
  Sn  Sn13  1  0.606261  0.605877  0.249626  1
  Ge  Ge14  1  0.999505  0.999511  0.999062  1
  Ge  Ge15  1  0.999485  0.999489  0.500946  1
  Sb  Sb16  1  0.395051  0.000331  0.249626  1
  Sb  Sb17  1  0.999592  0.394700  0.249637  1
