# generated using pymatgen
data_Ca8YbSm(Sn3H)2
_symmetry_space_group_name_H-M   'P 1'
_cell_length_a   9.43139961
_cell_length_b   9.43139817
_cell_length_c   9.43153798
_cell_angle_alpha   128.60490122
_cell_angle_beta   128.60489222
_cell_angle_gamma   75.55471309
_symmetry_Int_Tables_number   1
_chemical_formula_structural   Ca8YbSm(Sn3H)2
_chemical_formula_sum   'Ca8 Yb1 Sm1 Sn6 H2'
_cell_volume   498.72183698
_cell_formula_units_Z   1
loop_
 _symmetry_equiv_pos_site_id
 _symmetry_equiv_pos_as_xyz
  1  'x, y, z'
loop_
 _atom_site_type_symbol
 _atom_site_label
 _atom_site_symmetry_multiplicity
 _atom_site_fract_x
 _atom_site_fract_y
 _atom_site_fract_z
 _atom_site_occupancy
  Ca  Ca0  1  0.502086  0.500430  0.999749  1
  Ca  Ca1  1  0.000430  0.002086  0.999749  1
  Ca  Ca2  1  0.008465  0.185894  0.500058  1
  Ca  Ca3  1  0.685894  0.508465  0.500058  1
  Ca  Ca4  1  0.489163  0.989163  0.178036  1
  Ca  Ca5  1  0.808702  0.308702  0.818846  1
  Ca  Ca6  1  0.990746  0.813633  0.500941  1
  Ca  Ca7  1  0.313633  0.490746  0.500941  1
  Yb  Yb8  1  0.513948  0.013948  0.829133  1
  Sm  Sm9  1  0.187948  0.687948  0.173265  1
  Sn  Sn10  1  0.251429  0.256242  0.003104  1
  Sn  Sn11  1  0.756242  0.751429  0.003104  1
  Sn  Sn12  1  0.872936  0.372936  0.246369  1
  Sn  Sn13  1  0.127217  0.627217  0.755942  1
  Sn  Sn14  1  0.367444  0.123634  0.497894  1
  Sn  Sn15  1  0.623634  0.867444  0.497894  1
  H  H16  1  0.252677  0.752677  0.496126  1
  H  H17  1  0.747409  0.247409  0.498790  1
