# generated using pymatgen
data_Dy11Tm9(Bi2Ir)4
_symmetry_space_group_name_H-M   'P 1'
_cell_length_a   7.96387912
_cell_length_b   8.99232800
_cell_length_c   12.54106300
_cell_angle_alpha   90.00000000
_cell_angle_beta   89.96958184
_cell_angle_gamma   90.00000000
_symmetry_Int_Tables_number   1
_chemical_formula_structural   Dy11Tm9(Bi2Ir)4
_chemical_formula_sum   'Dy11 Tm9 Bi8 Ir4'
_cell_volume   898.11321670
_cell_formula_units_Z   1
loop_
 _symmetry_equiv_pos_site_id
 _symmetry_equiv_pos_as_xyz
  1  'x, y, z'
loop_
 _atom_site_type_symbol
 _atom_site_label
 _atom_site_symmetry_multiplicity
 _atom_site_fract_x
 _atom_site_fract_y
 _atom_site_fract_z
 _atom_site_occupancy
  Dy  Dy0  1  0.661410  0.750000  0.706436  1
  Dy  Dy1  1  0.338966  0.250000  0.293429  1
  Dy  Dy2  1  0.161085  0.250000  0.793248  1
  Dy  Dy3  1  0.838903  0.750000  0.206978  1
  Dy  Dy4  1  0.127926  0.750000  0.810591  1
  Dy  Dy5  1  0.872062  0.250000  0.189492  1
  Dy  Dy6  1  0.627913  0.250000  0.689280  1
  Dy  Dy7  1  0.372222  0.750000  0.310744  1
  Dy  Dy8  1  0.554785  0.750000  0.998100  1
  Dy  Dy9  1  0.445337  0.250000  0.001894  1
  Dy  Dy10  1  0.054956  0.250000  0.502035  1
  Tm  Tm11  1  0.943737  0.750000  0.497899  1
  Tm  Tm12  1  0.827934  0.458992  0.932799  1
  Tm  Tm13  1  0.172010  0.540940  0.067139  1
  Tm  Tm14  1  0.327724  0.541283  0.567119  1
  Tm  Tm15  1  0.172010  0.959060  0.067139  1
  Tm  Tm16  1  0.672464  0.459437  0.432998  1
  Tm  Tm17  1  0.827934  0.041008  0.932799  1
  Tm  Tm18  1  0.672464  0.040563  0.432998  1
  Tm  Tm19  1  0.327724  0.958717  0.567119  1
  Bi  Bi20  1  0.936746  0.006841  0.672207  1
  Bi  Bi21  1  0.062976  0.992107  0.327748  1
  Bi  Bi22  1  0.436718  0.992570  0.827076  1
  Bi  Bi23  1  0.062976  0.507893  0.327748  1
  Bi  Bi24  1  0.563376  0.007297  0.172889  1
  Bi  Bi25  1  0.936746  0.493159  0.672207  1
  Bi  Bi26  1  0.563376  0.492703  0.172889  1
  Bi  Bi27  1  0.436718  0.507430  0.827076  1
  Ir  Ir28  1  0.930786  0.750000  0.992444  1
  Ir  Ir29  1  0.069202  0.250000  0.007603  1
  Ir  Ir30  1  0.430772  0.250000  0.507570  1
  Ir  Ir31  1  0.570037  0.750000  0.492308  1
