# generated using pymatgen
data_CrCoTcNiP4
_symmetry_space_group_name_H-M   'P 1'
_cell_length_a   3.13241900
_cell_length_b   5.32996208
_cell_length_c   5.96650969
_cell_angle_alpha   90.44837338
_cell_angle_beta   90.00000000
_cell_angle_gamma   90.00000000
_symmetry_Int_Tables_number   1
_chemical_formula_structural   CrCoTcNiP4
_chemical_formula_sum   'Cr1 Co1 Tc1 Ni1 P4'
_cell_volume   99.61185341
_cell_formula_units_Z   1
loop_
 _symmetry_equiv_pos_site_id
 _symmetry_equiv_pos_as_xyz
  1  'x, y, z'
loop_
 _atom_site_type_symbol
 _atom_site_label
 _atom_site_symmetry_multiplicity
 _atom_site_fract_x
 _atom_site_fract_y
 _atom_site_fract_z
 _atom_site_occupancy
  Cr  Cr0  1  0.000000  0.005036  0.799186  1
  Co  Co1  1  0.500000  0.999367  0.198680  1
  Tc  Tc2  1  0.500000  0.496865  0.298659  1
  Ni  Ni3  1  0.000000  0.499055  0.703323  1
  P  P4  1  0.000000  0.713494  0.068071  1
  P  P5  1  0.000000  0.174195  0.432131  1
  P  P6  1  0.500000  0.298158  0.929085  1
  P  P7  1  0.500000  0.813830  0.570866  1
