# generated using pymatgen
data_Ho2Sc3Si7Pt9
_symmetry_space_group_name_H-M   'P 1'
_cell_length_a   10.05254300
_cell_length_b   10.05254359
_cell_length_c   3.97175200
_cell_angle_alpha   90.00000000
_cell_angle_beta   90.00000000
_cell_angle_gamma   120.00000136
_symmetry_Int_Tables_number   1
_chemical_formula_structural   Ho2Sc3Si7Pt9
_chemical_formula_sum   'Ho2 Sc3 Si7 Pt9'
_cell_volume   347.58790266
_cell_formula_units_Z   1
loop_
 _symmetry_equiv_pos_site_id
 _symmetry_equiv_pos_as_xyz
  1  'x, y, z'
loop_
 _atom_site_type_symbol
 _atom_site_label
 _atom_site_symmetry_multiplicity
 _atom_site_fract_x
 _atom_site_fract_y
 _atom_site_fract_z
 _atom_site_occupancy
  Ho  Ho0  1  0.000000  0.000000  0.000000  1
  Ho  Ho1  1  0.333333  0.666667  0.500000  1
  Sc  Sc2  1  0.895043  0.456054  0.500000  1
  Sc  Sc3  1  0.561011  0.104957  0.500000  1
  Sc  Sc4  1  0.543946  0.438989  0.500000  1
  Si  Si5  1  0.245289  0.194447  0.500000  1
  Si  Si6  1  0.805553  0.050843  0.500000  1
  Si  Si7  1  0.949157  0.754711  0.500000  1
  Si  Si8  1  0.556441  0.647210  0.000000  1
  Si  Si9  1  0.352790  0.909230  0.000000  1
  Si  Si10  1  0.090770  0.443559  0.000000  1
  Si  Si11  1  0.666667  0.333333  0.000000  1
  Pt  Pt12  1  0.218500  0.935931  0.500000  1
  Pt  Pt13  1  0.064069  0.282570  0.500000  1
  Pt  Pt14  1  0.717430  0.781500  0.500000  1
  Pt  Pt15  1  0.314324  0.413691  0.000000  1
  Pt  Pt16  1  0.586309  0.900633  0.000000  1
  Pt  Pt17  1  0.099367  0.685676  0.000000  1
  Pt  Pt18  1  0.383539  0.171518  0.000000  1
  Pt  Pt19  1  0.828482  0.212021  0.000000  1
  Pt  Pt20  1  0.787979  0.616461  0.000000  1
