# generated using pymatgen
data_DyMnGaO5
_symmetry_space_group_name_H-M   'P 1'
_cell_length_a   5.74855800
_cell_length_b   7.34830300
_cell_length_c   8.54101700
_cell_angle_alpha   90.00000000
_cell_angle_beta   90.00000000
_cell_angle_gamma   90.00000000
_symmetry_Int_Tables_number   1
_chemical_formula_structural   DyMnGaO5
_chemical_formula_sum   'Dy4 Mn4 Ga4 O20'
_cell_volume   360.79088708
_cell_formula_units_Z   4
loop_
 _symmetry_equiv_pos_site_id
 _symmetry_equiv_pos_as_xyz
  1  'x, y, z'
loop_
 _atom_site_type_symbol
 _atom_site_label
 _atom_site_symmetry_multiplicity
 _atom_site_fract_x
 _atom_site_fract_y
 _atom_site_fract_z
 _atom_site_occupancy
  Dy  Dy0  1  0.500000  0.366942  0.331487  1
  Dy  Dy1  1  0.500000  0.633058  0.668513  1
  Dy  Dy2  1  0.500000  0.133058  0.831487  1
  Dy  Dy3  1  0.500000  0.866942  0.168513  1
  Mn  Mn4  1  0.248923  0.000000  0.500000  1
  Mn  Mn5  1  0.751077  0.000000  0.500000  1
  Mn  Mn6  1  0.751077  0.500000  0.000000  1
  Mn  Mn7  1  0.248923  0.500000  0.000000  1
  Ga  Ga8  1  0.000000  0.108482  0.146550  1
  Ga  Ga9  1  0.000000  0.891518  0.853450  1
  Ga  Ga10  1  0.000000  0.391518  0.646550  1
  Ga  Ga11  1  0.000000  0.608482  0.353450  1
  O  O12  1  0.500000  0.338616  0.058090  1
  O  O13  1  0.500000  0.661384  0.941910  1
  O  O14  1  0.500000  0.161384  0.558090  1
  O  O15  1  0.500000  0.838616  0.441910  1
  O  O16  1  0.229027  0.000000  0.000000  1
  O  O17  1  0.770973  0.000000  0.000000  1
  O  O18  1  0.770973  0.500000  0.500000  1
  O  O19  1  0.229027  0.500000  0.500000  1
  O  O20  1  0.258691  0.107996  0.293948  1
  O  O21  1  0.741309  0.892004  0.706052  1
  O  O22  1  0.258691  0.892004  0.706052  1
  O  O23  1  0.741309  0.392004  0.793948  1
  O  O24  1  0.741309  0.107996  0.293948  1
  O  O25  1  0.258691  0.607996  0.206052  1
  O  O26  1  0.741309  0.607996  0.206052  1
  O  O27  1  0.258691  0.392004  0.793948  1
  O  O28  1  0.000000  0.350432  0.072194  1
  O  O29  1  0.000000  0.649568  0.927806  1
  O  O30  1  0.000000  0.149568  0.572194  1
  O  O31  1  0.000000  0.850432  0.427806  1
