# generated using pymatgen
data_Ho20CoBi8Ru3
_symmetry_space_group_name_H-M   'P 1'
_cell_length_a   7.94564026
_cell_length_b   8.96912700
_cell_length_c   12.38657696
_cell_angle_alpha   90.00000000
_cell_angle_beta   89.79909724
_cell_angle_gamma   90.00000000
_symmetry_Int_Tables_number   1
_chemical_formula_structural   Ho20CoBi8Ru3
_chemical_formula_sum   'Ho20 Co1 Bi8 Ru3'
_cell_volume   882.72963610
_cell_formula_units_Z   1
loop_
 _symmetry_equiv_pos_site_id
 _symmetry_equiv_pos_as_xyz
  1  'x, y, z'
loop_
 _atom_site_type_symbol
 _atom_site_label
 _atom_site_symmetry_multiplicity
 _atom_site_fract_x
 _atom_site_fract_y
 _atom_site_fract_z
 _atom_site_occupancy
  Ho  Ho0  1  0.345007  0.750000  0.701114  1
  Ho  Ho1  1  0.656621  0.250000  0.293655  1
  Ho  Ho2  1  0.843702  0.250000  0.792753  1
  Ho  Ho3  1  0.155208  0.750000  0.205790  1
  Ho  Ho4  1  0.879866  0.750000  0.806606  1
  Ho  Ho5  1  0.119571  0.250000  0.192849  1
  Ho  Ho6  1  0.379612  0.250000  0.692401  1
  Ho  Ho7  1  0.615960  0.750000  0.312201  1
  Ho  Ho8  1  0.675854  0.543668  0.563716  1
  Ho  Ho9  1  0.324487  0.462308  0.436783  1
  Ho  Ho10  1  0.176349  0.458244  0.935616  1
  Ho  Ho11  1  0.324487  0.037692  0.436783  1
  Ho  Ho12  1  0.823515  0.542508  0.064517  1
  Ho  Ho13  1  0.675854  0.956332  0.563716  1
  Ho  Ho14  1  0.823515  0.957492  0.064517  1
  Ho  Ho15  1  0.176349  0.041756  0.935616  1
  Ho  Ho16  1  0.054273  0.750000  0.497127  1
  Ho  Ho17  1  0.947609  0.250000  0.503210  1
  Ho  Ho18  1  0.554300  0.250000  0.003428  1
  Ho  Ho19  1  0.446070  0.750000  0.996048  1
  Co  Co20  1  0.429847  0.750000  0.491116  1
  Bi  Bi21  1  0.570934  0.508762  0.826932  1
  Bi  Bi22  1  0.428678  0.492031  0.173102  1
  Bi  Bi23  1  0.071911  0.491767  0.672213  1
  Bi  Bi24  1  0.428678  0.007969  0.173102  1
  Bi  Bi25  1  0.928682  0.508886  0.328182  1
  Bi  Bi26  1  0.570934  0.991238  0.826932  1
  Bi  Bi27  1  0.928682  0.991114  0.328182  1
  Bi  Bi28  1  0.071911  0.008233  0.672213  1
  Ru  Ru29  1  0.073534  0.750000  0.989270  1
  Ru  Ru30  1  0.925821  0.250000  0.010412  1
  Ru  Ru31  1  0.572178  0.250000  0.509898  1
