# generated using pymatgen
data_SrYbAs4F24
_symmetry_space_group_name_H-M   'P 1'
_cell_length_a   9.79422613
_cell_length_b   9.79422579
_cell_length_c   9.79422478
_cell_angle_alpha   131.57935564
_cell_angle_beta   131.57934393
_cell_angle_gamma   70.89421450
_symmetry_Int_Tables_number   1
_chemical_formula_structural   SrYbAs4F24
_chemical_formula_sum   'Sr1 Yb1 As4 F24'
_cell_volume   514.86677973
_cell_formula_units_Z   1
loop_
 _symmetry_equiv_pos_site_id
 _symmetry_equiv_pos_as_xyz
  1  'x, y, z'
loop_
 _atom_site_type_symbol
 _atom_site_label
 _atom_site_symmetry_multiplicity
 _atom_site_fract_x
 _atom_site_fract_y
 _atom_site_fract_z
 _atom_site_occupancy
  Sr  Sr0  1  0.750000  0.250000  0.500000  1
  Yb  Yb1  1  0.000000  0.000000  0.000000  1
  As  As2  1  0.785178  0.785178  0.000000  1
  As  As3  1  0.214822  0.214822  0.000000  1
  As  As4  1  0.977932  0.477932  0.500000  1
  As  As5  1  0.522068  0.022068  0.500000  1
  F  F6  1  0.863956  0.761041  0.200718  1
  F  F7  1  0.560322  0.663238  0.799282  1
  F  F8  1  0.416481  0.793551  0.313008  1
  F  F9  1  0.336762  0.136044  0.897086  1
  F  F10  1  0.238959  0.439678  0.102914  1
  F  F11  1  0.206449  0.519456  0.622929  1
  F  F12  1  0.635587  0.252898  0.677666  1
  F  F13  1  0.747102  0.424768  0.382688  1
  F  F14  1  0.042081  0.364413  0.617312  1
  F  F15  1  0.087281  0.271988  0.099081  1
  F  F16  1  0.172906  0.988201  0.900919  1
  F  F17  1  0.575232  0.957919  0.322334  1
  F  F18  1  0.728012  0.827094  0.815295  1
  F  F19  1  0.011799  0.912719  0.184705  1
  F  F20  1  0.304284  0.070034  0.322799  1
  F  F21  1  0.929966  0.252765  0.234249  1
  F  F22  1  0.018516  0.695716  0.765751  1
  F  F23  1  0.424837  0.279327  0.280277  1
  F  F24  1  0.999050  0.144561  0.719723  1
  F  F25  1  0.747235  0.981484  0.677201  1
  F  F26  1  0.720673  0.000950  0.145511  1
  F  F27  1  0.855439  0.575163  0.854489  1
  F  F28  1  0.480544  0.103474  0.686992  1
  F  F29  1  0.896526  0.583519  0.377071  1
