# generated using pymatgen
data_Sc6Al4Tc3
_symmetry_space_group_name_H-M   'P 1'
_cell_length_a   8.32116200
_cell_length_b   8.32116228
_cell_length_c   8.09228500
_cell_angle_alpha   90.00000000
_cell_angle_beta   90.00000000
_cell_angle_gamma   119.99999890
_symmetry_Int_Tables_number   1
_chemical_formula_structural   Sc6Al4Tc3
_chemical_formula_sum   'Sc12 Al8 Tc6'
_cell_volume   485.25472720
_cell_formula_units_Z   2
loop_
 _symmetry_equiv_pos_site_id
 _symmetry_equiv_pos_as_xyz
  1  'x, y, z'
loop_
 _atom_site_type_symbol
 _atom_site_label
 _atom_site_symmetry_multiplicity
 _atom_site_fract_x
 _atom_site_fract_y
 _atom_site_fract_z
 _atom_site_occupancy
  Sc  Sc0  1  0.402115  0.201058  0.060501  1
  Sc  Sc1  1  0.798942  0.201058  0.060501  1
  Sc  Sc2  1  0.798941  0.597884  0.060501  1
  Sc  Sc3  1  0.402115  0.201058  0.439499  1
  Sc  Sc4  1  0.798942  0.201058  0.439499  1
  Sc  Sc5  1  0.798941  0.597884  0.439499  1
  Sc  Sc6  1  0.201058  0.402116  0.560502  1
  Sc  Sc7  1  0.201057  0.798942  0.560502  1
  Sc  Sc8  1  0.597885  0.798942  0.560502  1
  Sc  Sc9  1  0.201058  0.402116  0.939498  1
  Sc  Sc10  1  0.201057  0.798942  0.939498  1
  Sc  Sc11  1  0.597885  0.798942  0.939498  1
  Al  Al12  1  0.000000  0.000000  0.000000  1
  Al  Al13  1  0.098581  0.549290  0.250000  1
  Al  Al14  1  0.450710  0.549290  0.250000  1
  Al  Al15  1  0.450710  0.901420  0.250000  1
  Al  Al16  1  0.000000  0.000000  0.500000  1
  Al  Al17  1  0.549289  0.098580  0.750001  1
  Al  Al18  1  0.549290  0.450710  0.750001  1
  Al  Al19  1  0.901420  0.450710  0.750001  1
  Tc  Tc20  1  0.120306  0.240613  0.250000  1
  Tc  Tc21  1  0.120305  0.879694  0.250000  1
  Tc  Tc22  1  0.759388  0.879694  0.250000  1
  Tc  Tc23  1  0.240613  0.120306  0.750001  1
  Tc  Tc24  1  0.879694  0.120306  0.750001  1
  Tc  Tc25  1  0.879693  0.759387  0.750001  1
