# generated using pymatgen
data_La16CdHg3Os4
_symmetry_space_group_name_H-M   'P 1'
_cell_length_a   10.07398345
_cell_length_b   10.05580366
_cell_length_c   10.07398400
_cell_angle_alpha   59.94018220
_cell_angle_beta   60.00000475
_cell_angle_gamma   59.94018442
_symmetry_Int_Tables_number   1
_chemical_formula_structural   La16CdHg3Os4
_chemical_formula_sum   'La16 Cd1 Hg3 Os4'
_cell_volume   720.95978764
_cell_formula_units_Z   1
loop_
 _symmetry_equiv_pos_site_id
 _symmetry_equiv_pos_as_xyz
  1  'x, y, z'
loop_
 _atom_site_type_symbol
 _atom_site_label
 _atom_site_symmetry_multiplicity
 _atom_site_fract_x
 _atom_site_fract_y
 _atom_site_fract_z
 _atom_site_occupancy
  La  La0  1  0.942071  0.942373  0.557778  1
  La  La1  1  0.557778  0.942373  0.557778  1
  La  La2  1  0.557778  0.942373  0.942071  1
  La  La3  1  0.689879  0.690136  0.309992  1
  La  La4  1  0.154004  0.153583  0.538407  1
  La  La5  1  0.309992  0.690136  0.689879  1
  La  La6  1  0.154004  0.153583  0.154004  1
  La  La7  1  0.538407  0.153583  0.154004  1
  La  La8  1  0.309992  0.690136  0.309992  1
  La  La9  1  0.310733  0.311327  0.688971  1
  La  La10  1  0.688971  0.311327  0.688971  1
  La  La11  1  0.941864  0.558676  0.557596  1
  La  La12  1  0.557596  0.558676  0.941864  1
  La  La13  1  0.153208  0.540375  0.153208  1
  La  La14  1  0.688971  0.311327  0.310733  1
  La  La15  1  0.941864  0.558676  0.941864  1
  Cd  Cd16  1  0.921925  0.234225  0.921925  1
  Hg  Hg17  1  0.248184  0.918679  0.916567  1
  Hg  Hg18  1  0.916567  0.918679  0.916567  1
  Hg  Hg19  1  0.916567  0.918679  0.248184  1
  Os  Os20  1  0.913518  0.362512  0.361984  1
  Os  Os21  1  0.361984  0.362512  0.913518  1
  Os  Os22  1  0.362155  0.913534  0.362155  1
  Os  Os23  1  0.361984  0.362512  0.361984  1
