# generated using pymatgen
data_Cs12In8BiSb11
_symmetry_space_group_name_H-M   'P 1'
_cell_length_a   11.73635210
_cell_length_b   11.74779257
_cell_length_c   16.95172632
_cell_angle_alpha   90.02825991
_cell_angle_beta   89.95609665
_cell_angle_gamma   141.75861786
_symmetry_Int_Tables_number   1
_chemical_formula_structural   Cs12In8BiSb11
_chemical_formula_sum   'Cs12 In8 Bi1 Sb11'
_cell_volume   1446.69467752
_cell_formula_units_Z   1
loop_
 _symmetry_equiv_pos_site_id
 _symmetry_equiv_pos_as_xyz
  1  'x, y, z'
loop_
 _atom_site_type_symbol
 _atom_site_label
 _atom_site_symmetry_multiplicity
 _atom_site_fract_x
 _atom_site_fract_y
 _atom_site_fract_z
 _atom_site_occupancy
  Cs  Cs0  1  0.612014  0.929344  0.669559  1
  Cs  Cs1  1  0.570578  0.887936  0.169789  1
  Cs  Cs2  1  0.070839  0.387967  0.331399  1
  Cs  Cs3  1  0.111986  0.429275  0.830371  1
  Cs  Cs4  1  0.656555  0.656381  0.863892  1
  Cs  Cs5  1  0.429154  0.111957  0.830110  1
  Cs  Cs6  1  0.344098  0.342969  0.136010  1
  Cs  Cs7  1  0.929312  0.612031  0.669613  1
  Cs  Cs8  1  0.156644  0.156644  0.635987  1
  Cs  Cs9  1  0.887505  0.571157  0.169702  1
  Cs  Cs10  1  0.843372  0.843349  0.364024  1
  Cs  Cs11  1  0.388068  0.070703  0.330435  1
  In  In12  1  0.240029  0.760025  0.500029  1
  In  In13  1  0.261996  0.743445  0.999095  1
  In  In14  1  0.737447  0.259190  0.999329  1
  In  In15  1  0.914209  0.079823  0.999096  1
  In  In16  1  0.759923  0.239971  0.500009  1
  In  In17  1  0.083771  0.916461  0.000020  1
  In  In18  1  0.416543  0.583726  0.499997  1
  In  In19  1  0.583576  0.416335  0.500026  1
  Bi  Bi20  1  0.051012  0.398262  0.091614  1
  Sb  Sb21  1  0.657585  0.657556  0.609811  1
  Sb  Sb22  1  0.397432  0.049349  0.088577  1
  Sb  Sb23  1  0.602859  0.952318  0.910584  1
  Sb  Sb24  1  0.951271  0.602440  0.911036  1
  Sb  Sb25  1  0.451354  0.102113  0.588555  1
  Sb  Sb26  1  0.548695  0.897919  0.411414  1
  Sb  Sb27  1  0.157780  0.157125  0.889814  1
  Sb  Sb28  1  0.102238  0.451578  0.588576  1
  Sb  Sb29  1  0.841849  0.841709  0.109979  1
  Sb  Sb30  1  0.342509  0.342464  0.390158  1
  Sb  Sb31  1  0.897798  0.548478  0.411392  1
