# generated using pymatgen
data_Y4Tc4NiRu3
_symmetry_space_group_name_H-M   'P 1'
_cell_length_a   5.37118571
_cell_length_b   5.16842107
_cell_length_c   9.01940400
_cell_angle_alpha   90.00000000
_cell_angle_beta   90.00000000
_cell_angle_gamma   120.23122056
_symmetry_Int_Tables_number   1
_chemical_formula_structural   Y4Tc4NiRu3
_chemical_formula_sum   'Y4 Tc4 Ni1 Ru3'
_cell_volume   216.33158347
_cell_formula_units_Z   1
loop_
 _symmetry_equiv_pos_site_id
 _symmetry_equiv_pos_as_xyz
  1  'x, y, z'
loop_
 _atom_site_type_symbol
 _atom_site_label
 _atom_site_symmetry_multiplicity
 _atom_site_fract_x
 _atom_site_fract_y
 _atom_site_fract_z
 _atom_site_occupancy
  Y  Y0  1  0.327965  0.659641  0.432228  1
  Y  Y1  1  0.666995  0.330808  0.560445  1
  Y  Y2  1  0.666995  0.330808  0.939555  1
  Y  Y3  1  0.327965  0.659641  0.067772  1
  Tc  Tc4  1  0.174215  0.346887  0.750000  1
  Tc  Tc5  1  0.169194  0.829267  0.750000  1
  Tc  Tc6  1  0.840890  0.677349  0.250000  1
  Tc  Tc7  1  0.666980  0.831625  0.750000  1
  Ni  Ni8  1  0.339898  0.178737  0.250000  1
  Ru  Ru9  1  0.993316  0.982126  0.006700  1
  Ru  Ru10  1  0.832270  0.190985  0.250000  1
  Ru  Ru11  1  0.993316  0.982126  0.493300  1
