# generated using pymatgen
data_La2CuNi5(BIr)2
_symmetry_space_group_name_H-M   'P 1'
_cell_length_a   5.28862801
_cell_length_b   5.28862713
_cell_length_c   7.09699500
_cell_angle_alpha   90.00000000
_cell_angle_beta   90.00000000
_cell_angle_gamma   121.72431074
_symmetry_Int_Tables_number   1
_chemical_formula_structural   La2CuNi5(BIr)2
_chemical_formula_sum   'La2 Cu1 Ni5 B2 Ir2'
_cell_volume   168.84171621
_cell_formula_units_Z   1
loop_
 _symmetry_equiv_pos_site_id
 _symmetry_equiv_pos_as_xyz
  1  'x, y, z'
loop_
 _atom_site_type_symbol
 _atom_site_label
 _atom_site_symmetry_multiplicity
 _atom_site_fract_x
 _atom_site_fract_y
 _atom_site_fract_z
 _atom_site_occupancy
  La  La0  1  0.000864  0.999136  0.500000  1
  La  La1  1  0.996479  0.003521  0.000000  1
  Cu  Cu2  1  0.322094  0.677906  0.000000  1
  Ni  Ni3  1  0.667173  0.332827  0.000000  1
  Ni  Ni4  1  0.501140  0.998776  0.296784  1
  Ni  Ni5  1  0.001224  0.498860  0.296784  1
  Ni  Ni6  1  0.501140  0.998776  0.703216  1
  Ni  Ni7  1  0.001224  0.498860  0.703216  1
  B  B8  1  0.671848  0.328152  0.500000  1
  B  B9  1  0.331084  0.668916  0.500000  1
  Ir  Ir10  1  0.502866  0.497134  0.288806  1
  Ir  Ir11  1  0.502866  0.497134  0.711194  1
