# generated using pymatgen
data_Y5Th5(Ir2Ru)2
_symmetry_space_group_name_H-M   'P 1'
_cell_length_a   11.17925135
_cell_length_b   11.14067900
_cell_length_c   6.41945657
_cell_angle_alpha   90.00000000
_cell_angle_beta   89.26775838
_cell_angle_gamma   90.00000000
_symmetry_Int_Tables_number   1
_chemical_formula_structural   Y5Th5(Ir2Ru)2
_chemical_formula_sum   'Y10 Th10 Ir8 Ru4'
_cell_volume   799.44240209
_cell_formula_units_Z   2
loop_
 _symmetry_equiv_pos_site_id
 _symmetry_equiv_pos_as_xyz
  1  'x, y, z'
loop_
 _atom_site_type_symbol
 _atom_site_label
 _atom_site_symmetry_multiplicity
 _atom_site_fract_x
 _atom_site_fract_y
 _atom_site_fract_z
 _atom_site_occupancy
  Y  Y0  1  0.797105  0.413867  0.112492  1
  Y  Y1  1  0.797105  0.586133  0.612492  1
  Y  Y2  1  0.908750  0.705548  0.113866  1
  Y  Y3  1  0.908750  0.294452  0.613866  1
  Y  Y4  1  0.082197  0.712076  0.617616  1
  Y  Y5  1  0.082197  0.287924  0.117616  1
  Y  Y6  1  0.998839  0.001990  0.503218  1
  Y  Y7  1  0.998839  0.998010  0.003218  1
  Y  Y8  1  0.503351  0.498395  0.010298  1
  Y  Y9  1  0.503351  0.501605  0.510298  1
  Th  Th10  1  0.288822  0.091057  0.380660  1
  Th  Th11  1  0.288822  0.908943  0.880660  1
  Th  Th12  1  0.711670  0.091432  0.883809  1
  Th  Th13  1  0.711670  0.908568  0.383809  1
  Th  Th14  1  0.592335  0.788211  0.883262  1
  Th  Th15  1  0.592335  0.211789  0.383262  1
  Th  Th16  1  0.409497  0.788237  0.381811  1
  Th  Th17  1  0.409497  0.211763  0.881811  1
  Th  Th18  1  0.201103  0.412466  0.615785  1
  Th  Th19  1  0.201103  0.587534  0.115785  1
  Ir  Ir20  1  0.840607  0.150140  0.251250  1
  Ir  Ir21  1  0.840607  0.849860  0.751250  1
  Ir  Ir22  1  0.157466  0.151259  0.746402  1
  Ir  Ir23  1  0.157466  0.848741  0.246402  1
  Ir  Ir24  1  0.650823  0.341035  0.752292  1
  Ir  Ir25  1  0.650823  0.658965  0.252292  1
  Ir  Ir26  1  0.347051  0.342546  0.260123  1
  Ir  Ir27  1  0.347051  0.657454  0.760123  1
  Ru  Ru28  1  0.499643  0.001238  0.114616  1
  Ru  Ru29  1  0.499643  0.998762  0.614616  1
  Ru  Ru30  1  0.010739  0.497792  0.872499  1
  Ru  Ru31  1  0.010739  0.502208  0.372499  1
