# generated using pymatgen
data_Dy3Y2VMoO12
_symmetry_space_group_name_H-M   'P 1'
_cell_length_a   6.80813213
_cell_length_b   6.80813236
_cell_length_c   7.38022601
_cell_angle_alpha   74.24377435
_cell_angle_beta   74.24377103
_cell_angle_gamma   51.39599526
_symmetry_Int_Tables_number   1
_chemical_formula_structural   Dy3Y2VMoO12
_chemical_formula_sum   'Dy3 Y2 V1 Mo1 O12'
_cell_volume   254.89921297
_cell_formula_units_Z   1
loop_
 _symmetry_equiv_pos_site_id
 _symmetry_equiv_pos_as_xyz
  1  'x, y, z'
loop_
 _atom_site_type_symbol
 _atom_site_label
 _atom_site_symmetry_multiplicity
 _atom_site_fract_x
 _atom_site_fract_y
 _atom_site_fract_z
 _atom_site_occupancy
  Dy  Dy0  1  0.313483  0.308211  0.825749  1
  Dy  Dy1  1  0.691789  0.686517  0.174251  1
  Dy  Dy2  1  0.002544  0.997456  0.500000  1
  Y  Y3  1  0.313312  0.296487  0.361263  1
  Y  Y4  1  0.703513  0.686688  0.638737  1
  V  V5  1  0.749561  0.250439  0.000000  1
  Mo  Mo6  1  0.229152  0.770848  0.000000  1
  O  O7  1  0.898727  0.422180  0.919734  1
  O  O8  1  0.427453  0.899375  0.918798  1
  O  O9  1  0.100625  0.572547  0.081202  1
  O  O10  1  0.577820  0.101273  0.080266  1
  O  O11  1  0.102150  0.591257  0.575797  1
  O  O12  1  0.598631  0.091208  0.577342  1
  O  O13  1  0.908792  0.401369  0.422658  1
  O  O14  1  0.408743  0.897850  0.424203  1
  O  O15  1  0.991482  0.010379  0.810535  1
  O  O16  1  0.989621  0.008518  0.189465  1
  O  O17  1  0.495836  0.503233  0.812567  1
  O  O18  1  0.496767  0.504164  0.187433  1
