# generated using pymatgen
data_CaLaSm2(Mo2O7)2
_symmetry_space_group_name_H-M   'P 1'
_cell_length_a   7.50584186
_cell_length_b   7.54668675
_cell_length_c   7.54668743
_cell_angle_alpha   59.23984929
_cell_angle_beta   58.85416910
_cell_angle_gamma   58.85417053
_symmetry_Int_Tables_number   1
_chemical_formula_structural   CaLaSm2(Mo2O7)2
_chemical_formula_sum   'Ca1 La1 Sm2 Mo4 O14'
_cell_volume   295.24746556
_cell_formula_units_Z   1
loop_
 _symmetry_equiv_pos_site_id
 _symmetry_equiv_pos_as_xyz
  1  'x, y, z'
loop_
 _atom_site_type_symbol
 _atom_site_label
 _atom_site_symmetry_multiplicity
 _atom_site_fract_x
 _atom_site_fract_y
 _atom_site_fract_z
 _atom_site_occupancy
  Ca  Ca0  1  0.625000  0.125000  0.125000  1
  La  La1  1  0.125000  0.125000  0.125000  1
  Sm  Sm2  1  0.125000  0.125000  0.625000  1
  Sm  Sm3  1  0.125000  0.625000  0.125000  1
  Mo  Mo4  1  0.625000  0.625000  0.625000  1
  Mo  Mo5  1  0.125000  0.625000  0.625000  1
  Mo  Mo6  1  0.625000  0.125000  0.625000  1
  Mo  Mo7  1  0.625000  0.625000  0.125000  1
  O  O8  1  0.288806  0.292365  0.698013  1
  O  O9  1  0.288806  0.698013  0.292365  1
  O  O10  1  0.961194  0.551987  0.957635  1
  O  O11  1  0.700974  0.295292  0.295292  1
  O  O12  1  0.001453  0.998208  0.998208  1
  O  O13  1  0.542649  0.553229  0.946528  1
  O  O14  1  0.297129  0.706379  0.706379  1
  O  O15  1  0.542649  0.946528  0.553229  1
  O  O16  1  0.549026  0.954708  0.954708  1
  O  O17  1  0.707351  0.696771  0.303472  1
  O  O18  1  0.248547  0.251792  0.251792  1
  O  O19  1  0.961194  0.957635  0.551987  1
  O  O20  1  0.952871  0.543621  0.543621  1
  O  O21  1  0.707351  0.303472  0.696771  1
