# generated using pymatgen
data_Y3HoEr6Cd3Ru
_symmetry_space_group_name_H-M   'P 1'
_cell_length_a   9.55602807
_cell_length_b   9.55624890
_cell_length_c   9.77301409
_cell_angle_alpha   90.00000003
_cell_angle_beta   90.01355226
_cell_angle_gamma   120.00077102
_symmetry_Int_Tables_number   1
_chemical_formula_structural   Y3HoEr6Cd3Ru
_chemical_formula_sum   'Y6 Ho2 Er12 Cd6 Ru2'
_cell_volume   772.89524578
_cell_formula_units_Z   2
loop_
 _symmetry_equiv_pos_site_id
 _symmetry_equiv_pos_as_xyz
  1  'x, y, z'
loop_
 _atom_site_type_symbol
 _atom_site_label
 _atom_site_symmetry_multiplicity
 _atom_site_fract_x
 _atom_site_fract_y
 _atom_site_fract_z
 _atom_site_occupancy
  Y  Y0  1  0.540697  0.459578  0.249833  1
  Y  Y1  1  0.540697  0.081121  0.249833  1
  Y  Y2  1  0.918375  0.459188  0.249634  1
  Y  Y3  1  0.459565  0.540647  0.750259  1
  Y  Y4  1  0.459565  0.918917  0.750259  1
  Y  Y5  1  0.080740  0.540369  0.750361  1
  Ho  Ho6  1  0.209891  0.790374  0.439845  1
  Ho  Ho7  1  0.209891  0.419519  0.439845  1
  Er  Er8  1  0.999811  0.999905  0.500018  1
  Er  Er9  1  0.999773  0.999886  0.999989  1
  Er  Er10  1  0.580859  0.790430  0.439977  1
  Er  Er11  1  0.789837  0.209840  0.560017  1
  Er  Er12  1  0.789837  0.579996  0.560017  1
  Er  Er13  1  0.419868  0.209933  0.560166  1
  Er  Er14  1  0.790045  0.209813  0.940125  1
  Er  Er15  1  0.790045  0.580230  0.940125  1
  Er  Er16  1  0.419768  0.209883  0.940200  1
  Er  Er17  1  0.209906  0.790151  0.059721  1
  Er  Er18  1  0.209906  0.419757  0.059721  1
  Er  Er19  1  0.580333  0.790167  0.059818  1
  Cd  Cd20  1  0.885715  0.114191  0.249857  1
  Cd  Cd21  1  0.885715  0.771525  0.249857  1
  Cd  Cd22  1  0.228427  0.114214  0.249939  1
  Cd  Cd23  1  0.114144  0.885750  0.750289  1
  Cd  Cd24  1  0.114144  0.228393  0.750289  1
  Cd  Cd25  1  0.771635  0.885817  0.750169  1
  Ru  Ru26  1  0.333988  0.666995  0.249734  1
  Ru  Ru27  1  0.666823  0.333411  0.750099  1
