# generated using pymatgen
data_Np8Si13Au3
_symmetry_space_group_name_H-M   'P 1'
_cell_length_a   8.31032616
_cell_length_b   8.31776908
_cell_length_c   7.81802602
_cell_angle_alpha   89.99245299
_cell_angle_beta   89.99898054
_cell_angle_gamma   119.99169375
_symmetry_Int_Tables_number   1
_chemical_formula_structural   Np8Si13Au3
_chemical_formula_sum   'Np8 Si13 Au3'
_cell_volume   468.04650856
_cell_formula_units_Z   1
loop_
 _symmetry_equiv_pos_site_id
 _symmetry_equiv_pos_as_xyz
  1  'x, y, z'
loop_
 _atom_site_type_symbol
 _atom_site_label
 _atom_site_symmetry_multiplicity
 _atom_site_fract_x
 _atom_site_fract_y
 _atom_site_fract_z
 _atom_site_occupancy
  Np  Np0  1  0.999981  0.000130  0.752982  1
  Np  Np1  1  0.000125  0.000125  0.247134  1
  Np  Np2  1  0.494302  0.505468  0.757789  1
  Np  Np3  1  0.494621  0.988752  0.758032  1
  Np  Np4  1  0.011150  0.505372  0.757847  1
  Np  Np5  1  0.495083  0.504628  0.242185  1
  Np  Np6  1  0.009588  0.504736  0.242218  1
  Np  Np7  1  0.494953  0.990356  0.242089  1
  Si  Si8  1  0.838374  0.161759  0.000105  1
  Si  Si9  1  0.838738  0.677352  0.999882  1
  Si  Si10  1  0.323085  0.161541  0.999744  1
  Si  Si11  1  0.835672  0.163824  0.500132  1
  Si  Si12  1  0.836108  0.672117  0.500619  1
  Si  Si13  1  0.328030  0.163705  0.500964  1
  Si  Si14  1  0.162038  0.838038  0.499814  1
  Si  Si15  1  0.676257  0.838183  0.499541  1
  Si  Si16  1  0.161639  0.323290  0.499725  1
  Si  Si17  1  0.166733  0.833677  0.000419  1
  Si  Si18  1  0.667033  0.833741  0.999932  1
  Si  Si19  1  0.166520  0.333080  0.000161  1
  Si  Si20  1  0.333351  0.666625  0.000830  1
  Au  Au21  1  0.666594  0.333660  0.998470  1
  Au  Au22  1  0.666693  0.333462  0.500814  1
  Au  Au23  1  0.333333  0.666376  0.498569  1
