# generated using pymatgen
data_Y3Tm(MnC2)2
_symmetry_space_group_name_H-M   'P 1'
_cell_length_a   5.02719900
_cell_length_b   6.34782942
_cell_length_c   9.64282538
_cell_angle_alpha   90.00259285
_cell_angle_beta   90.00000000
_cell_angle_gamma   90.00000000
_symmetry_Int_Tables_number   1
_chemical_formula_structural   Y3Tm(MnC2)2
_chemical_formula_sum   'Y6 Tm2 Mn4 C8'
_cell_volume   307.71993094
_cell_formula_units_Z   2
loop_
 _symmetry_equiv_pos_site_id
 _symmetry_equiv_pos_as_xyz
  1  'x, y, z'
loop_
 _atom_site_type_symbol
 _atom_site_label
 _atom_site_symmetry_multiplicity
 _atom_site_fract_x
 _atom_site_fract_y
 _atom_site_fract_z
 _atom_site_occupancy
  Y  Y0  1  0.750000  0.816510  0.055444  1
  Y  Y1  1  0.250000  0.183490  0.944556  1
  Y  Y2  1  0.250000  0.523809  0.216598  1
  Y  Y3  1  0.750000  0.476191  0.783402  1
  Y  Y4  1  0.750000  0.974647  0.710768  1
  Y  Y5  1  0.250000  0.025353  0.289232  1
  Tm  Tm6  1  0.250000  0.679243  0.555063  1
  Tm  Tm7  1  0.750000  0.320757  0.444937  1
  Mn  Mn8  1  0.250000  0.729941  0.854262  1
  Mn  Mn9  1  0.750000  0.270059  0.145738  1
  Mn  Mn10  1  0.750000  0.769770  0.359339  1
  Mn  Mn11  1  0.250000  0.230230  0.640661  1
  C  C12  1  0.250000  0.463590  0.758142  1
  C  C13  1  0.750000  0.536410  0.241858  1
  C  C14  1  0.750000  0.037104  0.263624  1
  C  C15  1  0.250000  0.962896  0.736376  1
  C  C16  1  0.250000  0.807395  0.032705  1
  C  C17  1  0.750000  0.192605  0.967295  1
  C  C18  1  0.750000  0.684790  0.536990  1
  C  C19  1  0.250000  0.315210  0.463010  1
