# generated using pymatgen
data_Pr15ThMg3InIr4
_symmetry_space_group_name_H-M   'P 1'
_cell_length_a   10.10299854
_cell_length_b   10.10299876
_cell_length_c   10.10299924
_cell_angle_alpha   59.84591051
_cell_angle_beta   59.84590946
_cell_angle_gamma   59.84591529
_symmetry_Int_Tables_number   1
_chemical_formula_structural   Pr15ThMg3InIr4
_chemical_formula_sum   'Pr15 Th1 Mg3 In1 Ir4'
_cell_volume   726.63205111
_cell_formula_units_Z   1
loop_
 _symmetry_equiv_pos_site_id
 _symmetry_equiv_pos_as_xyz
  1  'x, y, z'
loop_
 _atom_site_type_symbol
 _atom_site_label
 _atom_site_symmetry_multiplicity
 _atom_site_fract_x
 _atom_site_fract_y
 _atom_site_fract_z
 _atom_site_occupancy
  Pr  Pr0  1  0.348630  0.348630  0.956169  1
  Pr  Pr1  1  0.348630  0.956169  0.348630  1
  Pr  Pr2  1  0.956169  0.348630  0.348630  1
  Pr  Pr3  1  0.811458  0.188511  0.188511  1
  Pr  Pr4  1  0.190240  0.808175  0.808175  1
  Pr  Pr5  1  0.188511  0.811458  0.188511  1
  Pr  Pr6  1  0.808175  0.190240  0.808175  1
  Pr  Pr7  1  0.188511  0.188511  0.811458  1
  Pr  Pr8  1  0.808175  0.808175  0.190240  1
  Pr  Pr9  1  0.941835  0.561961  0.561961  1
  Pr  Pr10  1  0.560302  0.938106  0.938106  1
  Pr  Pr11  1  0.561961  0.941835  0.561961  1
  Pr  Pr12  1  0.938106  0.560302  0.938106  1
  Pr  Pr13  1  0.561961  0.561961  0.941835  1
  Pr  Pr14  1  0.938106  0.938106  0.560302  1
  Th  Th15  1  0.342390  0.342390  0.342390  1
  Mg  Mg16  1  0.576926  0.576926  0.265422  1
  Mg  Mg17  1  0.576926  0.265422  0.576926  1
  Mg  Mg18  1  0.265422  0.576926  0.576926  1
  In  In19  1  0.580774  0.580774  0.580774  1
  Ir  Ir20  1  0.142088  0.142088  0.142088  1
  Ir  Ir21  1  0.146827  0.146827  0.571053  1
  Ir  Ir22  1  0.146827  0.571053  0.146827  1
  Ir  Ir23  1  0.571053  0.146827  0.146827  1
