# generated using pymatgen
data_Nd4(Ga8Pd3)3
_symmetry_space_group_name_H-M   'P 1'
_cell_length_a   7.57792703
_cell_length_b   7.62627249
_cell_length_c   13.55464454
_cell_angle_alpha   85.01090482
_cell_angle_beta   100.25782600
_cell_angle_gamma   119.64158252
_symmetry_Int_Tables_number   1
_chemical_formula_structural   Nd4(Ga8Pd3)3
_chemical_formula_sum   'Nd4 Ga24 Pd9'
_cell_volume   669.94737002
_cell_formula_units_Z   1
loop_
 _symmetry_equiv_pos_site_id
 _symmetry_equiv_pos_as_xyz
  1  'x, y, z'
loop_
 _atom_site_type_symbol
 _atom_site_label
 _atom_site_symmetry_multiplicity
 _atom_site_fract_x
 _atom_site_fract_y
 _atom_site_fract_z
 _atom_site_occupancy
  Nd  Nd0  1  0.437493  0.831017  0.810759  1
  Nd  Nd1  1  0.562507  0.168983  0.189241  1
  Nd  Nd2  1  0.770601  0.502978  0.810995  1
  Nd  Nd3  1  0.229399  0.497022  0.189005  1
  Ga  Ga4  1  0.478403  0.166503  0.942091  1
  Ga  Ga5  1  0.521597  0.833497  0.057909  1
  Ga  Ga6  1  0.020880  0.166126  0.558314  1
  Ga  Ga7  1  0.979120  0.833874  0.441686  1
  Ga  Ga8  1  0.354653  0.833200  0.556310  1
  Ga  Ga9  1  0.645347  0.166800  0.443690  1
  Ga  Ga10  1  0.618308  0.835097  0.329333  1
  Ga  Ga11  1  0.381692  0.164903  0.670667  1
  Ga  Ga12  1  0.057818  0.493910  0.669755  1
  Ga  Ga13  1  0.942182  0.506090  0.330245  1
  Ga  Ga14  1  0.731337  0.839712  0.668757  1
  Ga  Ga15  1  0.268663  0.160288  0.331243  1
  Ga  Ga16  1  0.146203  0.498344  0.943044  1
  Ga  Ga17  1  0.853797  0.501656  0.056956  1
  Ga  Ga18  1  0.817202  0.834087  0.950545  1
  Ga  Ga19  1  0.182798  0.165913  0.049455  1
  Ga  Ga20  1  0.313110  0.500080  0.442893  1
  Ga  Ga21  1  0.686890  0.499920  0.557107  1
  Ga  Ga22  1  0.100541  0.836829  0.182862  1
  Ga  Ga23  1  0.899459  0.163171  0.817138  1
  Ga  Ga24  1  0.305470  0.367091  0.816244  1
  Ga  Ga25  1  0.694530  0.632909  0.183756  1
  Ga  Ga26  1  0.102555  0.961569  0.816376  1
  Ga  Ga27  1  0.897445  0.038431  0.183624  1
  Pd  Pd28  1  0.385495  0.503030  0.636908  1
  Pd  Pd29  1  0.614505  0.496970  0.363092  1
  Pd  Pd30  1  0.171069  0.829963  0.999195  1
  Pd  Pd31  1  0.828931  0.170037  0.000805  1
  Pd  Pd32  1  0.291384  0.832702  0.362284  1
  Pd  Pd33  1  0.708616  0.167298  0.637716  1
  Pd  Pd34  1  0.048902  0.828767  0.636326  1
  Pd  Pd35  1  0.951098  0.171233  0.363674  1
  Pd  Pd36  1  0.500000  0.500000  0.000000  1
