# generated using pymatgen
data_Dy16Sc4Si15Ir
_symmetry_space_group_name_H-M   'P 1'
_cell_length_a   7.30631112
_cell_length_b   7.61543883
_cell_length_c   14.45766809
_cell_angle_alpha   89.73592997
_cell_angle_beta   89.73250113
_cell_angle_gamma   90.20428336
_symmetry_Int_Tables_number   1
_chemical_formula_structural   Dy16Sc4Si15Ir
_chemical_formula_sum   'Dy16 Sc4 Si15 Ir1'
_cell_volume   804.41323226
_cell_formula_units_Z   1
loop_
 _symmetry_equiv_pos_site_id
 _symmetry_equiv_pos_as_xyz
  1  'x, y, z'
loop_
 _atom_site_type_symbol
 _atom_site_label
 _atom_site_symmetry_multiplicity
 _atom_site_fract_x
 _atom_site_fract_y
 _atom_site_fract_z
 _atom_site_occupancy
  Dy  Dy0  1  0.975545  0.812856  0.098625  1
  Dy  Dy1  1  0.474680  0.683218  0.401127  1
  Dy  Dy2  1  0.528749  0.323699  0.900036  1
  Dy  Dy3  1  0.026524  0.184755  0.599384  1
  Dy  Dy4  1  0.026832  0.187975  0.901271  1
  Dy  Dy5  1  0.527066  0.317344  0.599143  1
  Dy  Dy6  1  0.476539  0.682632  0.100397  1
  Dy  Dy7  1  0.972643  0.816862  0.400327  1
  Dy  Dy8  1  0.685769  0.811224  0.880718  1
  Dy  Dy9  1  0.178694  0.679461  0.623831  1
  Dy  Dy10  1  0.817266  0.336162  0.120360  1
  Dy  Dy11  1  0.314418  0.175083  0.373897  1
  Dy  Dy12  1  0.318614  0.177313  0.125516  1
  Dy  Dy13  1  0.818154  0.322101  0.374693  1
  Dy  Dy14  1  0.176349  0.673324  0.876910  1
  Dy  Dy15  1  0.683643  0.821958  0.624392  1
  Sc  Sc16  1  0.648530  0.991022  0.248410  1
  Sc  Sc17  1  0.149696  0.512666  0.248116  1
  Sc  Sc18  1  0.846750  0.484318  0.759121  1
  Sc  Sc19  1  0.352189  0.011742  0.752110  1
  Si  Si20  1  0.770769  0.637305  0.251677  1
  Si  Si21  1  0.271461  0.863736  0.250393  1
  Si  Si22  1  0.727665  0.129030  0.749172  1
  Si  Si23  1  0.232616  0.365765  0.746990  1
  Si  Si24  1  0.010756  0.098033  0.248076  1
  Si  Si25  1  0.515338  0.403642  0.251438  1
  Si  Si26  1  0.478144  0.599799  0.746366  1
  Si  Si27  1  0.985263  0.907280  0.749292  1
  Si  Si28  1  0.352406  0.973106  0.540510  1
  Si  Si29  1  0.646951  0.027089  0.043241  1
  Si  Si30  1  0.148115  0.470857  0.459054  1
  Si  Si31  1  0.155610  0.474587  0.043737  1
  Si  Si32  1  0.644907  0.028220  0.458288  1
  Si  Si33  1  0.353690  0.970609  0.960511  1
  Si  Si34  1  0.851615  0.528204  0.539846  1
  Ir  Ir35  1  0.856048  0.517023  0.953022  1
