# generated using pymatgen
data_TaSiMoRu5
_symmetry_space_group_name_H-M   'P 1'
_cell_length_a   4.02383600
_cell_length_b   5.40863879
_cell_length_c   10.62165088
_cell_angle_alpha   90.13304587
_cell_angle_beta   90.00000000
_cell_angle_gamma   90.00000000
_symmetry_Int_Tables_number   1
_chemical_formula_structural   TaSiMoRu5
_chemical_formula_sum   'Ta2 Si2 Mo2 Ru10'
_cell_volume   231.16341521
_cell_formula_units_Z   2
loop_
 _symmetry_equiv_pos_site_id
 _symmetry_equiv_pos_as_xyz
  1  'x, y, z'
loop_
 _atom_site_type_symbol
 _atom_site_label
 _atom_site_symmetry_multiplicity
 _atom_site_fract_x
 _atom_site_fract_y
 _atom_site_fract_z
 _atom_site_occupancy
  Ta  Ta0  1  0.500000  0.328378  0.139383  1
  Ta  Ta1  1  0.500000  0.671622  0.860617  1
  Si  Si2  1  0.000000  0.500000  0.500000  1
  Si  Si3  1  0.000000  0.000000  0.000000  1
  Mo  Mo4  1  0.500000  0.831945  0.357244  1
  Mo  Mo5  1  0.500000  0.168055  0.642756  1
  Ru  Ru6  1  0.000000  0.500000  0.000000  1
  Ru  Ru7  1  0.000000  0.000000  0.500000  1
  Ru  Ru8  1  0.000000  0.582649  0.254368  1
  Ru  Ru9  1  0.000000  0.417351  0.745632  1
  Ru  Ru10  1  0.000000  0.075485  0.253854  1
  Ru  Ru11  1  0.000000  0.924515  0.746146  1
  Ru  Ru12  1  0.500000  0.823754  0.108210  1
  Ru  Ru13  1  0.500000  0.176246  0.891790  1
  Ru  Ru14  1  0.500000  0.318032  0.397391  1
  Ru  Ru15  1  0.500000  0.681968  0.602609  1
