# generated using pymatgen
data_Cs7NbIn3P5
_symmetry_space_group_name_H-M   'P 1'
_cell_length_a   8.87707891
_cell_length_b   9.73980881
_cell_length_c   14.86418486
_cell_angle_alpha   85.54453504
_cell_angle_beta   85.36946423
_cell_angle_gamma   85.13103612
_symmetry_Int_Tables_number   1
_chemical_formula_structural   Cs7NbIn3P5
_chemical_formula_sum   'Cs14 Nb2 In6 P10'
_cell_volume   1273.10534512
_cell_formula_units_Z   2
loop_
 _symmetry_equiv_pos_site_id
 _symmetry_equiv_pos_as_xyz
  1  'x, y, z'
loop_
 _atom_site_type_symbol
 _atom_site_label
 _atom_site_symmetry_multiplicity
 _atom_site_fract_x
 _atom_site_fract_y
 _atom_site_fract_z
 _atom_site_occupancy
  Cs  Cs0  1  0.831731  0.368996  0.648534  1
  Cs  Cs1  1  0.816315  0.807709  0.134522  1
  Cs  Cs2  1  0.238074  0.003971  0.468006  1
  Cs  Cs3  1  0.271393  0.252637  0.251441  1
  Cs  Cs4  1  0.741202  0.498933  0.974437  1
  Cs  Cs5  1  0.258798  0.501067  0.025563  1
  Cs  Cs6  1  0.682958  0.082594  0.890521  1
  Cs  Cs7  1  0.761926  0.996029  0.531994  1
  Cs  Cs8  1  0.728607  0.747363  0.748559  1
  Cs  Cs9  1  0.327308  0.343037  0.597135  1
  Cs  Cs10  1  0.168269  0.631004  0.351466  1
  Cs  Cs11  1  0.183685  0.192291  0.865478  1
  Cs  Cs12  1  0.317042  0.917406  0.109479  1
  Cs  Cs13  1  0.672692  0.656963  0.402865  1
  Nb  Nb14  1  0.354919  0.604299  0.772269  1
  Nb  Nb15  1  0.645081  0.395701  0.227731  1
  In  In16  1  0.069262  0.810106  0.864230  1
  In  In17  1  0.930738  0.189894  0.135770  1
  In  In18  1  0.359729  0.941858  0.705170  1
  In  In19  1  0.098702  0.721486  0.627678  1
  In  In20  1  0.901298  0.278514  0.372322  1
  In  In21  1  0.640271  0.058142  0.294830  1
  P  P22  1  0.909940  0.444999  0.213835  1
  P  P23  1  0.623624  0.207112  0.129292  1
  P  P24  1  0.090060  0.555001  0.786165  1
  P  P25  1  0.591803  0.298946  0.383509  1
  P  P26  1  0.408197  0.701054  0.616491  1
  P  P27  1  0.042992  0.981575  0.703607  1
  P  P28  1  0.511220  0.404247  0.807769  1
  P  P29  1  0.488780  0.595753  0.192231  1
  P  P30  1  0.376376  0.792888  0.870708  1
  P  P31  1  0.957008  0.018425  0.296393  1
