# generated using pymatgen
data_TmLuMnTc3
_symmetry_space_group_name_H-M   'P 1'
_cell_length_a   5.27241900
_cell_length_b   5.27241943
_cell_length_c   8.83187800
_cell_angle_alpha   90.00000000
_cell_angle_beta   90.00000000
_cell_angle_gamma   120.00000358
_symmetry_Int_Tables_number   1
_chemical_formula_structural   TmLuMnTc3
_chemical_formula_sum   'Tm2 Lu2 Mn2 Tc6'
_cell_volume   212.61972173
_cell_formula_units_Z   2
loop_
 _symmetry_equiv_pos_site_id
 _symmetry_equiv_pos_as_xyz
  1  'x, y, z'
loop_
 _atom_site_type_symbol
 _atom_site_label
 _atom_site_symmetry_multiplicity
 _atom_site_fract_x
 _atom_site_fract_y
 _atom_site_fract_z
 _atom_site_occupancy
  Tm  Tm0  1  0.666667  0.333333  0.935141  1
  Tm  Tm1  1  0.333333  0.666667  0.064859  1
  Lu  Lu2  1  0.333333  0.666667  0.435234  1
  Lu  Lu3  1  0.666667  0.333333  0.564766  1
  Mn  Mn4  1  0.000000  0.000000  0.500000  1
  Mn  Mn5  1  0.000000  0.000000  0.000000  1
  Tc  Tc6  1  0.831168  0.168832  0.250835  1
  Tc  Tc7  1  0.831168  0.662336  0.250835  1
  Tc  Tc8  1  0.337664  0.168832  0.250835  1
  Tc  Tc9  1  0.168832  0.831168  0.749165  1
  Tc  Tc10  1  0.168832  0.337664  0.749165  1
  Tc  Tc11  1  0.662336  0.831168  0.749165  1
