# generated using pymatgen
data_Pa2Al9TcRh2
_symmetry_space_group_name_H-M   'P 1'
_cell_length_a   7.60502702
_cell_length_b   7.60502609
_cell_length_c   9.30882200
_cell_angle_alpha   90.00000000
_cell_angle_beta   90.00000000
_cell_angle_gamma   118.16987687
_symmetry_Int_Tables_number   1
_chemical_formula_structural   Pa2Al9TcRh2
_chemical_formula_sum   'Pa4 Al18 Tc2 Rh4'
_cell_volume   474.61779640
_cell_formula_units_Z   2
loop_
 _symmetry_equiv_pos_site_id
 _symmetry_equiv_pos_as_xyz
  1  'x, y, z'
loop_
 _atom_site_type_symbol
 _atom_site_label
 _atom_site_symmetry_multiplicity
 _atom_site_fract_x
 _atom_site_fract_y
 _atom_site_fract_z
 _atom_site_occupancy
  Pa  Pa0  1  0.994825  0.694831  0.250000  1
  Pa  Pa1  1  0.005175  0.305169  0.750000  1
  Pa  Pa2  1  0.694831  0.994825  0.250000  1
  Pa  Pa3  1  0.305169  0.005175  0.750000  1
  Al  Al4  1  0.005132  0.345872  0.080980  1
  Al  Al5  1  0.994868  0.654128  0.919020  1
  Al  Al6  1  0.994868  0.654128  0.580980  1
  Al  Al7  1  0.345872  0.005132  0.419020  1
  Al  Al8  1  0.005132  0.345872  0.419020  1
  Al  Al9  1  0.654128  0.994868  0.580980  1
  Al  Al10  1  0.654128  0.994868  0.919020  1
  Al  Al11  1  0.345872  0.005132  0.080980  1
  Al  Al12  1  0.335520  0.335520  0.542168  1
  Al  Al13  1  0.664480  0.664480  0.457832  1
  Al  Al14  1  0.664480  0.664480  0.042168  1
  Al  Al15  1  0.335520  0.335520  0.957832  1
  Al  Al16  1  0.146253  0.146253  0.250000  1
  Al  Al17  1  0.853747  0.853747  0.750000  1
  Al  Al18  1  0.348510  0.561805  0.250000  1
  Al  Al19  1  0.651490  0.438195  0.750000  1
  Al  Al20  1  0.561805  0.348510  0.250000  1
  Al  Al21  1  0.438195  0.651490  0.750000  1
  Tc  Tc22  1  0.000000  0.000000  0.000000  1
  Tc  Tc23  1  0.000000  0.000000  0.500000  1
  Rh  Rh24  1  0.673437  0.326563  0.000000  1
  Rh  Rh25  1  0.326563  0.673437  0.000000  1
  Rh  Rh26  1  0.326563  0.673437  0.500000  1
  Rh  Rh27  1  0.673437  0.326563  0.500000  1
