# generated using pymatgen
data_Ta3Nb6CrN12
_symmetry_space_group_name_H-M   'P 1'
_cell_length_a   5.23530200
_cell_length_b   5.23530068
_cell_length_c   10.37520800
_cell_angle_alpha   90.00000000
_cell_angle_beta   90.00000000
_cell_angle_gamma   120.00000836
_symmetry_Int_Tables_number   1
_chemical_formula_structural   Ta3Nb6CrN12
_chemical_formula_sum   'Ta3 Nb6 Cr1 N12'
_cell_volume   246.26958339
_cell_formula_units_Z   1
loop_
 _symmetry_equiv_pos_site_id
 _symmetry_equiv_pos_as_xyz
  1  'x, y, z'
loop_
 _atom_site_type_symbol
 _atom_site_label
 _atom_site_symmetry_multiplicity
 _atom_site_fract_x
 _atom_site_fract_y
 _atom_site_fract_z
 _atom_site_occupancy
  Ta  Ta0  1  0.333333  0.666667  0.000000  1
  Ta  Ta1  1  0.333333  0.666667  0.500000  1
  Ta  Ta2  1  0.666667  0.333333  0.500000  1
  Nb  Nb3  1  0.677931  0.676210  0.750565  1
  Nb  Nb4  1  0.323790  0.001721  0.750565  1
  Nb  Nb5  1  0.998279  0.322069  0.750565  1
  Nb  Nb6  1  0.323790  0.322069  0.249435  1
  Nb  Nb7  1  0.677931  0.001721  0.249435  1
  Nb  Nb8  1  0.998279  0.676210  0.249435  1
  Cr  Cr9  1  0.666667  0.333333  0.000000  1
  N  N10  1  0.658531  0.658889  0.380461  1
  N  N11  1  0.341111  0.999643  0.380461  1
  N  N12  1  0.000357  0.341469  0.380461  1
  N  N13  1  0.341111  0.341469  0.619539  1
  N  N14  1  0.658531  0.999643  0.619539  1
  N  N15  1  0.000357  0.658889  0.619539  1
  N  N16  1  0.350867  0.349237  0.879681  1
  N  N17  1  0.650763  0.001630  0.879681  1
  N  N18  1  0.998370  0.649133  0.879681  1
  N  N19  1  0.650763  0.649133  0.120319  1
  N  N20  1  0.350867  0.001630  0.120319  1
  N  N21  1  0.998370  0.349237  0.120319  1
