# generated using pymatgen
data_La3Pr3Nd2(CdPd)2
_symmetry_space_group_name_H-M   'P 1'
_cell_length_a   10.09788146
_cell_length_b   10.11901479
_cell_length_c   10.11901328
_cell_angle_alpha   59.86188090
_cell_angle_beta   60.06905024
_cell_angle_gamma   60.06905282
_symmetry_Int_Tables_number   1
_chemical_formula_structural   La3Pr3Nd2(CdPd)2
_chemical_formula_sum   'La6 Pr6 Nd4 Cd4 Pd4'
_cell_volume   731.11860211
_cell_formula_units_Z   2
loop_
 _symmetry_equiv_pos_site_id
 _symmetry_equiv_pos_as_xyz
  1  'x, y, z'
loop_
 _atom_site_type_symbol
 _atom_site_label
 _atom_site_symmetry_multiplicity
 _atom_site_fract_x
 _atom_site_fract_y
 _atom_site_fract_z
 _atom_site_occupancy
  La  La0  1  0.350287  0.351652  0.351652  1
  La  La1  1  0.351652  0.350287  0.946410  1
  La  La2  1  0.351652  0.946410  0.350287  1
  La  La3  1  0.946410  0.351652  0.351652  1
  La  La4  1  0.807930  0.192070  0.192070  1
  La  La5  1  0.192070  0.807930  0.807930  1
  Pr  Pr6  1  0.934577  0.565423  0.565423  1
  Pr  Pr7  1  0.565423  0.934577  0.934577  1
  Pr  Pr8  1  0.565315  0.934685  0.565315  1
  Pr  Pr9  1  0.934685  0.565315  0.934685  1
  Pr  Pr10  1  0.565315  0.565315  0.934685  1
  Pr  Pr11  1  0.934685  0.934685  0.565315  1
  Nd  Nd12  1  0.192855  0.807145  0.192855  1
  Nd  Nd13  1  0.807145  0.192855  0.807145  1
  Nd  Nd14  1  0.192855  0.192855  0.807145  1
  Nd  Nd15  1  0.807145  0.807145  0.192855  1
  Cd  Cd16  1  0.581080  0.579711  0.579711  1
  Cd  Cd17  1  0.579711  0.581080  0.259496  1
  Cd  Cd18  1  0.579711  0.259496  0.581080  1
  Cd  Cd19  1  0.259496  0.579711  0.579711  1
  Pd  Pd20  1  0.142510  0.143326  0.143326  1
  Pd  Pd21  1  0.143326  0.142510  0.570839  1
  Pd  Pd22  1  0.143326  0.570839  0.142510  1
  Pd  Pd23  1  0.570839  0.143326  0.143326  1
