# generated using pymatgen
data_Zn20(PdAu)3
_symmetry_space_group_name_H-M   'P 1'
_cell_length_a   8.00951588
_cell_length_b   8.00951580
_cell_length_c   7.99728495
_cell_angle_alpha   70.64892100
_cell_angle_beta   70.64892533
_cell_angle_gamma   109.55378935
_symmetry_Int_Tables_number   1
_chemical_formula_structural   Zn20(PdAu)3
_chemical_formula_sum   'Zn20 Pd3 Au3'
_cell_volume   395.70753088
_cell_formula_units_Z   1
loop_
 _symmetry_equiv_pos_site_id
 _symmetry_equiv_pos_as_xyz
  1  'x, y, z'
loop_
 _atom_site_type_symbol
 _atom_site_label
 _atom_site_symmetry_multiplicity
 _atom_site_fract_x
 _atom_site_fract_y
 _atom_site_fract_z
 _atom_site_occupancy
  Zn  Zn0  1  0.002187  0.002187  0.792642  1
  Zn  Zn1  1  0.770553  0.770553  0.225276  1
  Zn  Zn2  1  0.219904  0.999802  0.993481  1
  Zn  Zn3  1  0.999802  0.219904  0.993481  1
  Zn  Zn4  1  0.274808  0.274808  0.384716  1
  Zn  Zn5  1  0.002595  0.725996  0.654162  1
  Zn  Zn6  1  0.725996  0.002595  0.654162  1
  Zn  Zn7  1  0.649361  0.649361  0.631831  1
  Zn  Zn8  1  0.377038  0.646911  0.349370  1
  Zn  Zn9  1  0.646911  0.377038  0.349370  1
  Zn  Zn10  1  0.350701  0.728036  0.993109  1
  Zn  Zn11  1  0.614438  0.263929  0.733435  1
  Zn  Zn12  1  0.356292  0.006297  0.269496  1
  Zn  Zn13  1  0.728036  0.350701  0.993109  1
  Zn  Zn14  1  0.006297  0.356292  0.269496  1
  Zn  Zn15  1  0.263929  0.614438  0.733435  1
  Zn  Zn16  1  0.646288  0.646288  0.990957  1
  Zn  Zn17  1  0.004162  0.652963  0.346943  1
  Zn  Zn18  1  0.652963  0.004162  0.346943  1
  Zn  Zn19  1  0.358483  0.358483  0.003938  1
  Pd  Pd20  1  0.355987  0.355987  0.658091  1
  Pd  Pd21  1  0.644348  0.987642  0.012244  1
  Pd  Pd22  1  0.987642  0.644348  0.012244  1
  Au  Au23  1  0.996170  0.364630  0.629355  1
  Au  Au24  1  0.364630  0.996170  0.629355  1
  Au  Au25  1  0.000476  0.000476  0.349364  1
