# generated using pymatgen
data_K5Pu3O14
_symmetry_space_group_name_H-M   'P 1'
_cell_length_a   7.59029500
_cell_length_b   7.59029500
_cell_length_c   11.63259300
_cell_angle_alpha   90.00000000
_cell_angle_beta   90.00000000
_cell_angle_gamma   90.00000000
_symmetry_Int_Tables_number   1
_chemical_formula_structural   K5Pu3O14
_chemical_formula_sum   'K10 Pu6 O28'
_cell_volume   670.18367373
_cell_formula_units_Z   2
loop_
 _symmetry_equiv_pos_site_id
 _symmetry_equiv_pos_as_xyz
  1  'x, y, z'
loop_
 _atom_site_type_symbol
 _atom_site_label
 _atom_site_symmetry_multiplicity
 _atom_site_fract_x
 _atom_site_fract_y
 _atom_site_fract_z
 _atom_site_occupancy
  K  K0  1  0.216023  0.283977  0.750000  1
  K  K1  1  0.716023  0.216023  0.750000  1
  K  K2  1  0.283977  0.783977  0.750000  1
  K  K3  1  0.783977  0.716023  0.750000  1
  K  K4  1  0.783977  0.716023  0.250000  1
  K  K5  1  0.283977  0.783977  0.250000  1
  K  K6  1  0.716023  0.216023  0.250000  1
  K  K7  1  0.216023  0.283977  0.250000  1
  K  K8  1  0.000000  0.000000  0.000000  1
  K  K9  1  0.500000  0.500000  0.500000  1
  Pu  Pu10  1  0.500000  0.500000  0.000000  1
  Pu  Pu11  1  0.000000  0.000000  0.500000  1
  Pu  Pu12  1  0.500000  0.000000  0.000000  1
  Pu  Pu13  1  0.000000  0.500000  0.000000  1
  Pu  Pu14  1  0.000000  0.500000  0.500000  1
  Pu  Pu15  1  0.500000  0.000000  0.500000  1
  O  O16  1  0.500000  0.500000  0.836320  1
  O  O17  1  0.000000  0.000000  0.663680  1
  O  O18  1  0.500000  0.500000  0.163680  1
  O  O19  1  0.000000  0.000000  0.336320  1
  O  O20  1  0.380770  0.733869  0.000000  1
  O  O21  1  0.619230  0.266131  0.000000  1
  O  O22  1  0.233869  0.880770  0.500000  1
  O  O23  1  0.733869  0.619230  0.000000  1
  O  O24  1  0.266131  0.380770  0.000000  1
  O  O25  1  0.119230  0.233869  0.500000  1
  O  O26  1  0.880770  0.766131  0.500000  1
  O  O27  1  0.766131  0.119230  0.500000  1
  O  O28  1  0.667371  0.952598  0.885587  1
  O  O29  1  0.332629  0.047402  0.885587  1
  O  O30  1  0.452598  0.167371  0.614413  1
  O  O31  1  0.952598  0.332629  0.885587  1
  O  O32  1  0.452598  0.167371  0.385587  1
  O  O33  1  0.832629  0.452598  0.385587  1
  O  O34  1  0.167371  0.547402  0.385587  1
  O  O35  1  0.952598  0.332629  0.114413  1
  O  O36  1  0.047402  0.667371  0.114413  1
  O  O37  1  0.547402  0.832629  0.385587  1
  O  O38  1  0.667371  0.952598  0.114413  1
  O  O39  1  0.332629  0.047402  0.114413  1
  O  O40  1  0.547402  0.832629  0.614413  1
  O  O41  1  0.167371  0.547402  0.614413  1
  O  O42  1  0.832629  0.452598  0.614413  1
  O  O43  1  0.047402  0.667371  0.885587  1
