# generated using pymatgen
data_Tb5Er5Tl3In5Pd4
_symmetry_space_group_name_H-M   'P 1'
_cell_length_a   3.62287300
_cell_length_b   8.19190395
_cell_length_c   18.29302959
_cell_angle_alpha   89.89508509
_cell_angle_beta   90.00000000
_cell_angle_gamma   90.00000000
_symmetry_Int_Tables_number   1
_chemical_formula_structural   Tb5Er5Tl3In5Pd4
_chemical_formula_sum   'Tb5 Er5 Tl3 In5 Pd4'
_cell_volume   542.90378590
_cell_formula_units_Z   1
loop_
 _symmetry_equiv_pos_site_id
 _symmetry_equiv_pos_as_xyz
  1  'x, y, z'
loop_
 _atom_site_type_symbol
 _atom_site_label
 _atom_site_symmetry_multiplicity
 _atom_site_fract_x
 _atom_site_fract_y
 _atom_site_fract_z
 _atom_site_occupancy
  Tb  Tb0  1  0.000000  0.499654  0.499678  1
  Tb  Tb1  1  0.000000  0.999587  0.999934  1
  Tb  Tb2  1  0.000000  0.739217  0.281801  1
  Tb  Tb3  1  0.000000  0.261196  0.717795  1
  Tb  Tb4  1  0.000000  0.761347  0.781949  1
  Er  Er5  1  0.000000  0.238960  0.218643  1
  Er  Er6  1  0.000000  0.618153  0.085125  1
  Er  Er7  1  0.000000  0.380918  0.915727  1
  Er  Er8  1  0.000000  0.881800  0.584256  1
  Er  Er9  1  0.000000  0.119478  0.415542  1
  Tl  Tl10  1  0.500000  0.704377  0.934634  1
  Tl  Tl11  1  0.500000  0.293695  0.066652  1
  Tl  Tl12  1  0.500000  0.796335  0.434128  1
  In  In13  1  0.500000  0.204224  0.565813  1
  In  In14  1  0.500000  0.582284  0.650823  1
  In  In15  1  0.500000  0.416146  0.348549  1
  In  In16  1  0.500000  0.918521  0.151040  1
  In  In17  1  0.500000  0.083262  0.849001  1
  Pd  Pd18  1  0.500000  0.522191  0.195931  1
  Pd  Pd19  1  0.500000  0.474487  0.804727  1
  Pd  Pd20  1  0.500000  0.975778  0.694824  1
  Pd  Pd21  1  0.500000  0.028391  0.303427  1
