# generated using pymatgen
data_CaGd6Sn23Ru6
_symmetry_space_group_name_H-M   'P 1'
_cell_length_a   9.89504000
_cell_length_b   9.89504086
_cell_length_c   10.10802500
_cell_angle_alpha   90.00000000
_cell_angle_beta   90.00000000
_cell_angle_gamma   119.99999714
_symmetry_Int_Tables_number   1
_chemical_formula_structural   CaGd6Sn23Ru6
_chemical_formula_sum   'Ca1 Gd6 Sn23 Ru6'
_cell_volume   857.10118882
_cell_formula_units_Z   1
loop_
 _symmetry_equiv_pos_site_id
 _symmetry_equiv_pos_as_xyz
  1  'x, y, z'
loop_
 _atom_site_type_symbol
 _atom_site_label
 _atom_site_symmetry_multiplicity
 _atom_site_fract_x
 _atom_site_fract_y
 _atom_site_fract_z
 _atom_site_occupancy
  Ca  Ca0  1  0.000000  0.000000  0.000000  1
  Gd  Gd1  1  0.483907  0.516093  0.300864  1
  Gd  Gd2  1  0.516093  0.483907  0.699136  1
  Gd  Gd3  1  0.483907  0.967814  0.300864  1
  Gd  Gd4  1  0.516093  0.032186  0.699136  1
  Gd  Gd5  1  0.032186  0.516093  0.300864  1
  Gd  Gd6  1  0.967814  0.483907  0.699136  1
  Sn  Sn7  1  0.347496  0.000000  0.000000  1
  Sn  Sn8  1  0.652504  0.000000  0.000000  1
  Sn  Sn9  1  0.000000  0.347496  0.000000  1
  Sn  Sn10  1  0.000000  0.652504  0.000000  1
  Sn  Sn11  1  0.652504  0.652504  0.000000  1
  Sn  Sn12  1  0.347496  0.347496  0.000000  1
  Sn  Sn13  1  0.333333  0.666667  0.822807  1
  Sn  Sn14  1  0.666667  0.333333  0.177193  1
  Sn  Sn15  1  0.000000  0.000000  0.500000  1
  Sn  Sn16  1  0.779896  0.220104  0.464534  1
  Sn  Sn17  1  0.220104  0.779896  0.535466  1
  Sn  Sn18  1  0.779896  0.559792  0.464534  1
  Sn  Sn19  1  0.220104  0.440208  0.535466  1
  Sn  Sn20  1  0.440208  0.220104  0.464534  1
  Sn  Sn21  1  0.559792  0.779896  0.535466  1
  Sn  Sn22  1  0.333333  0.666667  0.122714  1
  Sn  Sn23  1  0.666667  0.333333  0.877286  1
  Sn  Sn24  1  0.118818  0.881182  0.272904  1
  Sn  Sn25  1  0.881182  0.118818  0.727096  1
  Sn  Sn26  1  0.118818  0.237635  0.272904  1
  Sn  Sn27  1  0.881182  0.762365  0.727096  1
  Sn  Sn28  1  0.762365  0.881182  0.272904  1
  Sn  Sn29  1  0.237635  0.118818  0.727096  1
  Ru  Ru30  1  0.829528  0.170472  0.204832  1
  Ru  Ru31  1  0.170472  0.829528  0.795168  1
  Ru  Ru32  1  0.829528  0.659055  0.204832  1
  Ru  Ru33  1  0.170472  0.340945  0.795168  1
  Ru  Ru34  1  0.340945  0.170472  0.204832  1
  Ru  Ru35  1  0.659055  0.829528  0.795168  1
