# generated using pymatgen
data_Hf(Ta3N4)3
_symmetry_space_group_name_H-M   'P 1'
_cell_length_a   5.24003700
_cell_length_b   5.24003661
_cell_length_c   10.47329300
_cell_angle_alpha   90.00000000
_cell_angle_beta   90.00000000
_cell_angle_gamma   119.99999613
_symmetry_Int_Tables_number   1
_chemical_formula_structural   Hf(Ta3N4)3
_chemical_formula_sum   'Hf1 Ta9 N12'
_cell_volume   249.04772397
_cell_formula_units_Z   1
loop_
 _symmetry_equiv_pos_site_id
 _symmetry_equiv_pos_as_xyz
  1  'x, y, z'
loop_
 _atom_site_type_symbol
 _atom_site_label
 _atom_site_symmetry_multiplicity
 _atom_site_fract_x
 _atom_site_fract_y
 _atom_site_fract_z
 _atom_site_occupancy
  Hf  Hf0  1  0.666667  0.333333  0.000000  1
  Ta  Ta1  1  0.677101  0.676120  0.748583  1
  Ta  Ta2  1  0.323880  0.000981  0.748583  1
  Ta  Ta3  1  0.999019  0.322899  0.748583  1
  Ta  Ta4  1  0.323880  0.322899  0.251417  1
  Ta  Ta5  1  0.677101  0.000981  0.251417  1
  Ta  Ta6  1  0.999019  0.676120  0.251417  1
  Ta  Ta7  1  0.333333  0.666667  0.000000  1
  Ta  Ta8  1  0.333333  0.666667  0.500000  1
  Ta  Ta9  1  0.666667  0.333333  0.500000  1
  N  N10  1  0.659412  0.659767  0.378864  1
  N  N11  1  0.340233  0.999644  0.378864  1
  N  N12  1  0.000356  0.340588  0.378864  1
  N  N13  1  0.340233  0.340588  0.621136  1
  N  N14  1  0.659412  0.999644  0.621136  1
  N  N15  1  0.000356  0.659767  0.621136  1
  N  N16  1  0.338945  0.344448  0.876077  1
  N  N17  1  0.655552  0.994497  0.876077  1
  N  N18  1  0.005503  0.661055  0.876077  1
  N  N19  1  0.655552  0.661055  0.123923  1
  N  N20  1  0.338945  0.994497  0.123923  1
  N  N21  1  0.005503  0.344448  0.123923  1
