# generated using pymatgen
data_Sc8Co11Si16Ni
_symmetry_space_group_name_H-M   'P 1'
_cell_length_a   5.19606176
_cell_length_b   6.81142815
_cell_length_c   13.69488021
_cell_angle_alpha   89.88522174
_cell_angle_beta   89.90733115
_cell_angle_gamma   89.99559261
_symmetry_Int_Tables_number   1
_chemical_formula_structural   Sc8Co11Si16Ni
_chemical_formula_sum   'Sc8 Co11 Si16 Ni1'
_cell_volume   484.69582773
_cell_formula_units_Z   1
loop_
 _symmetry_equiv_pos_site_id
 _symmetry_equiv_pos_as_xyz
  1  'x, y, z'
loop_
 _atom_site_type_symbol
 _atom_site_label
 _atom_site_symmetry_multiplicity
 _atom_site_fract_x
 _atom_site_fract_y
 _atom_site_fract_z
 _atom_site_occupancy
  Sc  Sc0  1  0.229909  0.401595  0.145023  1
  Sc  Sc1  1  0.729943  0.100628  0.144556  1
  Sc  Sc2  1  0.272079  0.099417  0.642977  1
  Sc  Sc3  1  0.771288  0.398833  0.643285  1
  Sc  Sc4  1  0.228695  0.600947  0.356563  1
  Sc  Sc5  1  0.729183  0.899787  0.356701  1
  Sc  Sc6  1  0.269772  0.897873  0.855349  1
  Sc  Sc7  1  0.770678  0.599062  0.855439  1
  Co  Co8  1  0.506715  0.226729  0.482464  1
  Co  Co9  1  0.773937  0.998664  0.749936  1
  Co  Co10  1  0.493773  0.226332  0.983011  1
  Co  Co11  1  0.725658  0.499194  0.249551  1
  Co  Co12  1  0.494165  0.773091  0.517587  1
  Co  Co13  1  0.006751  0.273357  0.482588  1
  Co  Co14  1  0.004368  0.730955  0.017048  1
  Co  Co15  1  0.225007  0.000837  0.250358  1
  Co  Co16  1  0.275450  0.500550  0.750747  1
  Co  Co17  1  0.504892  0.774418  0.017495  1
  Co  Co18  1  0.994100  0.726336  0.517305  1
  Si  Si19  1  0.221777  0.017102  0.070102  1
  Si  Si20  1  0.716397  0.518405  0.433355  1
  Si  Si21  1  0.784317  0.018152  0.566371  1
  Si  Si22  1  0.479752  0.752790  0.186704  1
  Si  Si23  1  0.021743  0.250472  0.811988  1
  Si  Si24  1  0.520141  0.246882  0.813833  1
  Si  Si25  1  0.216655  0.981691  0.433437  1
  Si  Si26  1  0.285161  0.521312  0.933538  1
  Si  Si27  1  0.978868  0.748641  0.186278  1
  Si  Si28  1  0.714741  0.485114  0.067761  1
  Si  Si29  1  0.283976  0.481302  0.566654  1
  Si  Si30  1  0.478193  0.248691  0.314220  1
  Si  Si31  1  0.021508  0.747365  0.685536  1
  Si  Si32  1  0.776939  0.978389  0.930554  1
  Si  Si33  1  0.522519  0.750705  0.685566  1
  Si  Si34  1  0.978453  0.252243  0.314358  1
  Ni  Ni35  1  0.992495  0.272140  0.981766  1
