# generated using pymatgen
data_Nd2MnFe5Co6P7
_symmetry_space_group_name_H-M   'P 1'
_cell_length_a   9.06871391
_cell_length_b   9.04776493
_cell_length_c   3.66164700
_cell_angle_alpha   90.00000000
_cell_angle_beta   90.00000000
_cell_angle_gamma   119.93499800
_symmetry_Int_Tables_number   1
_chemical_formula_structural   Nd2MnFe5Co6P7
_chemical_formula_sum   'Nd2 Mn1 Fe5 Co6 P7'
_cell_volume   260.36236465
_cell_formula_units_Z   1
loop_
 _symmetry_equiv_pos_site_id
 _symmetry_equiv_pos_as_xyz
  1  'x, y, z'
loop_
 _atom_site_type_symbol
 _atom_site_label
 _atom_site_symmetry_multiplicity
 _atom_site_fract_x
 _atom_site_fract_y
 _atom_site_fract_z
 _atom_site_occupancy
  Nd  Nd0  1  0.666252  0.333267  0.000000  1
  Nd  Nd1  1  0.333171  0.666116  0.500000  1
  Mn  Mn2  1  0.102142  0.876437  0.500000  1
  Fe  Fe3  1  0.271978  0.121046  0.000000  1
  Fe  Fe4  1  0.847300  0.727543  0.000000  1
  Fe  Fe5  1  0.879603  0.150975  0.000000  1
  Fe  Fe6  1  0.773926  0.898789  0.500000  1
  Fe  Fe7  1  0.125658  0.227082  0.500000  1
  Co  Co8  1  0.059160  0.628292  0.000000  1
  Co  Co9  1  0.569355  0.941048  0.000000  1
  Co  Co10  1  0.371329  0.430239  0.000000  1
  Co  Co11  1  0.433646  0.050178  0.500000  1
  Co  Co12  1  0.615192  0.567010  0.500000  1
  Co  Co13  1  0.950668  0.382835  0.500000  1
  P  P14  1  0.297146  0.893969  0.000000  1
  P  P15  1  0.597347  0.704394  0.000000  1
  P  P16  1  0.106374  0.402105  0.000000  1
  P  P17  1  0.395748  0.288644  0.500000  1
  P  P18  1  0.892560  0.603332  0.500000  1
  P  P19  1  0.711198  0.106860  0.500000  1
  P  P20  1  0.000247  0.999838  0.000000  1
