# generated using pymatgen
data_Ho16Cd4Ir3Pt
_symmetry_space_group_name_H-M   'P 1'
_cell_length_a   9.59653288
_cell_length_b   9.59653347
_cell_length_c   9.59653374
_cell_angle_alpha   60.09300513
_cell_angle_beta   60.09300115
_cell_angle_gamma   60.09300177
_symmetry_Int_Tables_number   1
_chemical_formula_structural   Ho16Cd4Ir3Pt
_chemical_formula_sum   'Ho16 Cd4 Ir3 Pt1'
_cell_volume   626.24228451
_cell_formula_units_Z   1
loop_
 _symmetry_equiv_pos_site_id
 _symmetry_equiv_pos_as_xyz
  1  'x, y, z'
loop_
 _atom_site_type_symbol
 _atom_site_label
 _atom_site_symmetry_multiplicity
 _atom_site_fract_x
 _atom_site_fract_y
 _atom_site_fract_z
 _atom_site_occupancy
  Ho  Ho0  1  0.598354  0.598354  0.598354  1
  Ho  Ho1  1  0.602214  0.602214  0.199442  1
  Ho  Ho2  1  0.602214  0.199442  0.602214  1
  Ho  Ho3  1  0.199442  0.602214  0.602214  1
  Ho  Ho4  1  0.055859  0.440684  0.440684  1
  Ho  Ho5  1  0.437961  0.060346  0.060346  1
  Ho  Ho6  1  0.440684  0.055859  0.440684  1
  Ho  Ho7  1  0.060346  0.437961  0.060346  1
  Ho  Ho8  1  0.440684  0.440684  0.055859  1
  Ho  Ho9  1  0.060346  0.060346  0.437961  1
  Ho  Ho10  1  0.188351  0.812660  0.812660  1
  Ho  Ho11  1  0.813436  0.187306  0.187306  1
  Ho  Ho12  1  0.812660  0.188351  0.812660  1
  Ho  Ho13  1  0.187306  0.813436  0.187306  1
  Ho  Ho14  1  0.812660  0.812660  0.188351  1
  Ho  Ho15  1  0.187306  0.187306  0.813436  1
  Cd  Cd16  1  0.830983  0.830983  0.830983  1
  Cd  Cd17  1  0.831224  0.831224  0.506182  1
  Cd  Cd18  1  0.831224  0.506182  0.831224  1
  Cd  Cd19  1  0.506182  0.831224  0.831224  1
  Ir  Ir20  1  0.392063  0.392063  0.824134  1
  Ir  Ir21  1  0.392063  0.824134  0.392063  1
  Ir  Ir22  1  0.824134  0.392063  0.392063  1
  Pt  Pt23  1  0.392305  0.392305  0.392305  1
