# generated using pymatgen
data_Tb2Mn3P7Rh7W2
_symmetry_space_group_name_H-M   'P 1'
_cell_length_a   9.44254520
_cell_length_b   9.41801395
_cell_length_c   3.85064700
_cell_angle_alpha   90.00000000
_cell_angle_beta   90.00000000
_cell_angle_gamma   120.23921252
_symmetry_Int_Tables_number   1
_chemical_formula_structural   Tb2Mn3P7Rh7W2
_chemical_formula_sum   'Tb2 Mn3 P7 Rh7 W2'
_cell_volume   295.84268439
_cell_formula_units_Z   1
loop_
 _symmetry_equiv_pos_site_id
 _symmetry_equiv_pos_as_xyz
  1  'x, y, z'
loop_
 _atom_site_type_symbol
 _atom_site_label
 _atom_site_symmetry_multiplicity
 _atom_site_fract_x
 _atom_site_fract_y
 _atom_site_fract_z
 _atom_site_occupancy
  Tb  Tb0  1  0.663035  0.331002  0.000000  1
  Tb  Tb1  1  0.334444  0.665326  0.500000  1
  Mn  Mn2  1  0.267704  0.109672  0.000000  1
  Mn  Mn3  1  0.845663  0.734714  0.000000  1
  Mn  Mn4  1  0.889324  0.162589  0.000000  1
  P  P5  1  0.300280  0.890966  0.000000  1
  P  P6  1  0.594873  0.702918  0.000000  1
  P  P7  1  0.112663  0.406890  0.000000  1
  P  P8  1  0.395838  0.275063  0.500000  1
  P  P9  1  0.877766  0.601602  0.500000  1
  P  P10  1  0.721861  0.120016  0.500000  1
  P  P11  1  0.999955  0.005211  0.000000  1
  Rh  Rh12  1  0.062781  0.636126  0.000000  1
  Rh  Rh13  1  0.571280  0.935084  0.000000  1
  Rh  Rh14  1  0.367159  0.430651  0.000000  1
  Rh  Rh15  1  0.439137  0.050839  0.500000  1
  Rh  Rh16  1  0.614439  0.557663  0.500000  1
  Rh  Rh17  1  0.944352  0.391089  0.500000  1
  Rh  Rh18  1  0.090986  0.875155  0.500000  1
  W  W19  1  0.790767  0.903905  0.500000  1
  W  W20  1  0.115692  0.213519  0.500000  1
