# generated using pymatgen
data_Cd3Sb(Pt2O7)2
_symmetry_space_group_name_H-M   'P 1'
_cell_length_a   7.13283894
_cell_length_b   7.26457272
_cell_length_c   7.13283900
_cell_angle_alpha   60.59807186
_cell_angle_beta   60.00000438
_cell_angle_gamma   60.59806521
_symmetry_Int_Tables_number   1
_chemical_formula_structural   Cd3Sb(Pt2O7)2
_chemical_formula_sum   'Cd3 Sb1 Pt4 O14'
_cell_volume   263.68612637
_cell_formula_units_Z   1
loop_
 _symmetry_equiv_pos_site_id
 _symmetry_equiv_pos_as_xyz
  1  'x, y, z'
loop_
 _atom_site_type_symbol
 _atom_site_label
 _atom_site_symmetry_multiplicity
 _atom_site_fract_x
 _atom_site_fract_y
 _atom_site_fract_z
 _atom_site_occupancy
  Cd  Cd0  1  0.125000  0.125000  0.125000  1
  Cd  Cd1  1  0.625000  0.125000  0.125000  1
  Cd  Cd2  1  0.125000  0.125000  0.625000  1
  Sb  Sb3  1  0.125000  0.625000  0.125000  1
  Pt  Pt4  1  0.625000  0.625000  0.625000  1
  Pt  Pt5  1  0.125000  0.625000  0.625000  1
  Pt  Pt6  1  0.625000  0.625000  0.125000  1
  Pt  Pt7  1  0.625000  0.125000  0.625000  1
  O  O8  1  0.014288  0.957136  0.014288  1
  O  O9  1  0.235712  0.292864  0.235712  1
  O  O10  1  0.519784  0.552260  0.963978  1
  O  O11  1  0.285059  0.291647  0.711648  1
  O  O12  1  0.963978  0.552260  0.963978  1
  O  O13  1  0.963978  0.552260  0.519784  1
  O  O14  1  0.538352  0.958353  0.964941  1
  O  O15  1  0.538352  0.958353  0.538352  1
  O  O16  1  0.964941  0.958353  0.538352  1
  O  O17  1  0.711648  0.291647  0.285059  1
  O  O18  1  0.286022  0.697740  0.730216  1
  O  O19  1  0.730216  0.697740  0.286022  1
  O  O20  1  0.711648  0.291647  0.711648  1
  O  O21  1  0.286022  0.697740  0.286022  1
