# generated using pymatgen
data_La2NdCu3(Ni5B)2
_symmetry_space_group_name_H-M   'P 1'
_cell_length_a   5.08854916
_cell_length_b   5.10403454
_cell_length_c   10.92437839
_cell_angle_alpha   89.96808123
_cell_angle_beta   90.02081715
_cell_angle_gamma   119.75698355
_symmetry_Int_Tables_number   1
_chemical_formula_structural   La2NdCu3(Ni5B)2
_chemical_formula_sum   'La2 Nd1 Cu3 Ni10 B2'
_cell_volume   246.31631202
_cell_formula_units_Z   1
loop_
 _symmetry_equiv_pos_site_id
 _symmetry_equiv_pos_as_xyz
  1  'x, y, z'
loop_
 _atom_site_type_symbol
 _atom_site_label
 _atom_site_symmetry_multiplicity
 _atom_site_fract_x
 _atom_site_fract_y
 _atom_site_fract_z
 _atom_site_occupancy
  La  La0  1  0.999911  0.000164  0.332703  1
  La  La1  1  0.999945  0.999847  0.672290  1
  Nd  Nd2  1  0.000074  0.999951  0.000147  1
  Cu  Cu3  1  0.333522  0.666461  0.316176  1
  Cu  Cu4  1  0.666211  0.333997  0.316499  1
  Cu  Cu5  1  0.666632  0.334474  0.683285  1
  Ni  Ni6  1  0.498948  0.998011  0.500346  1
  Ni  Ni7  1  0.499101  0.500933  0.500223  1
  Ni  Ni8  1  0.001725  0.500935  0.500203  1
  Ni  Ni9  1  0.333266  0.666049  0.682010  1
  Ni  Ni10  1  0.500239  0.000138  0.128708  1
  Ni  Ni11  1  0.500197  0.499706  0.128611  1
  Ni  Ni12  1  0.999784  0.499741  0.128708  1
  Ni  Ni13  1  0.499036  0.997833  0.870263  1
  Ni  Ni14  1  0.499002  0.500999  0.870337  1
  Ni  Ni15  1  0.002184  0.501005  0.870309  1
  B  B16  1  0.333415  0.666852  0.999858  1
  B  B17  1  0.666709  0.332906  0.999319  1
