# generated using pymatgen
data_Ta3Ti(TcB2)2
_symmetry_space_group_name_H-M   'P 1'
_cell_length_a   6.00103229
_cell_length_b   6.00103190
_cell_length_c   3.28014500
_cell_angle_alpha   90.00000000
_cell_angle_beta   90.00000000
_cell_angle_gamma   89.76976763
_symmetry_Int_Tables_number   1
_chemical_formula_structural   Ta3Ti(TcB2)2
_chemical_formula_sum   'Ta3 Ti1 Tc2 B4'
_cell_volume   118.12489493
_cell_formula_units_Z   1
loop_
 _symmetry_equiv_pos_site_id
 _symmetry_equiv_pos_as_xyz
  1  'x, y, z'
loop_
 _atom_site_type_symbol
 _atom_site_label
 _atom_site_symmetry_multiplicity
 _atom_site_fract_x
 _atom_site_fract_y
 _atom_site_fract_z
 _atom_site_occupancy
  Ta  Ta0  1  0.323534  0.823534  0.500000  1
  Ta  Ta1  1  0.177429  0.321653  0.500000  1
  Ta  Ta2  1  0.821653  0.677429  0.500000  1
  Ti  Ti3  1  0.677497  0.177497  0.500000  1
  Tc  Tc4  1  0.501558  0.496822  0.000000  1
  Tc  Tc5  1  0.996822  0.001558  0.000000  1
  B  B6  1  0.110381  0.610381  0.000000  1
  B  B7  1  0.887473  0.387473  0.000000  1
  B  B8  1  0.610971  0.892682  0.000000  1
  B  B9  1  0.392682  0.110971  0.000000  1
