# generated using pymatgen
data_TbTm3(Si4Tc3)2
_symmetry_space_group_name_H-M   'P 1'
_cell_length_a   6.77318380
_cell_length_b   6.74063411
_cell_length_c   6.76384382
_cell_angle_alpha   69.91191178
_cell_angle_beta   90.05271966
_cell_angle_gamma   89.93370270
_symmetry_Int_Tables_number   1
_chemical_formula_structural   TbTm3(Si4Tc3)2
_chemical_formula_sum   'Tb1 Tm3 Si8 Tc6'
_cell_volume   290.02048873
_cell_formula_units_Z   1
loop_
 _symmetry_equiv_pos_site_id
 _symmetry_equiv_pos_as_xyz
  1  'x, y, z'
loop_
 _atom_site_type_symbol
 _atom_site_label
 _atom_site_symmetry_multiplicity
 _atom_site_fract_x
 _atom_site_fract_y
 _atom_site_fract_z
 _atom_site_occupancy
  Tb  Tb0  1  0.332988  0.557614  0.809294  1
  Tm  Tm1  1  0.831772  0.942769  0.191742  1
  Tm  Tm2  1  0.668416  0.442585  0.192119  1
  Tm  Tm3  1  0.167964  0.057502  0.808020  1
  Si  Si4  1  0.551099  0.877888  0.898524  1
  Si  Si5  1  0.049850  0.623324  0.102984  1
  Si  Si6  1  0.449718  0.122176  0.102864  1
  Si  Si7  1  0.947938  0.376290  0.898334  1
  Si  Si8  1  0.140778  0.869010  0.486531  1
  Si  Si9  1  0.642693  0.632249  0.511506  1
  Si  Si10  1  0.858440  0.132222  0.512041  1
  Si  Si11  1  0.358529  0.367027  0.486207  1
  Tc  Tc12  1  0.500598  0.001465  0.499148  1
  Tc  Tc13  1  0.999097  0.499880  0.499340  1
  Tc  Tc14  1  0.850069  0.758238  0.762440  1
  Tc  Tc15  1  0.350471  0.742193  0.238770  1
  Tc  Tc16  1  0.148772  0.241340  0.238109  1
  Tc  Tc17  1  0.650809  0.256228  0.762027  1
