# generated using pymatgen
data_CsK3(In2Se3)2
_symmetry_space_group_name_H-M   'P 1'
_cell_length_a   7.64993129
_cell_length_b   7.64993179
_cell_length_c   9.89316839
_cell_angle_alpha   82.51990273
_cell_angle_beta   82.51991067
_cell_angle_gamma   120.07528853
_symmetry_Int_Tables_number   1
_chemical_formula_structural   CsK3(In2Se3)2
_chemical_formula_sum   'Cs1 K3 In4 Se6'
_cell_volume   483.69569580
_cell_formula_units_Z   1
loop_
 _symmetry_equiv_pos_site_id
 _symmetry_equiv_pos_as_xyz
  1  'x, y, z'
loop_
 _atom_site_type_symbol
 _atom_site_label
 _atom_site_symmetry_multiplicity
 _atom_site_fract_x
 _atom_site_fract_y
 _atom_site_fract_z
 _atom_site_occupancy
  Cs  Cs0  1  0.500000  0.500000  0.500000  1
  K  K1  1  0.654681  0.345319  0.000000  1
  K  K2  1  0.345319  0.654681  0.000000  1
  K  K3  1  0.000000  0.000000  0.000000  1
  In  In4  1  0.881425  0.217619  0.350973  1
  In  In5  1  0.782381  0.118575  0.649027  1
  In  In6  1  0.217619  0.881425  0.350973  1
  In  In7  1  0.118575  0.782381  0.649027  1
  Se  Se8  1  0.408991  0.046279  0.768508  1
  Se  Se9  1  0.046279  0.408991  0.768508  1
  Se  Se10  1  0.953721  0.591009  0.231492  1
  Se  Se11  1  0.772009  0.772009  0.763859  1
  Se  Se12  1  0.591009  0.953721  0.231492  1
  Se  Se13  1  0.227991  0.227991  0.236141  1
