# generated using pymatgen
data_Lu20AlBi11
_symmetry_space_group_name_H-M   'P 1'
_cell_length_a   8.06762424
_cell_length_b   9.35858100
_cell_length_c   11.74476000
_cell_angle_alpha   90.00000000
_cell_angle_beta   89.73688249
_cell_angle_gamma   90.00000000
_symmetry_Int_Tables_number   1
_chemical_formula_structural   Lu20AlBi11
_chemical_formula_sum   'Lu20 Al1 Bi11'
_cell_volume   886.73782222
_cell_formula_units_Z   1
loop_
 _symmetry_equiv_pos_site_id
 _symmetry_equiv_pos_as_xyz
  1  'x, y, z'
loop_
 _atom_site_type_symbol
 _atom_site_label
 _atom_site_symmetry_multiplicity
 _atom_site_fract_x
 _atom_site_fract_y
 _atom_site_fract_z
 _atom_site_occupancy
  Lu  Lu0  1  0.036671  0.250000  0.509949  1
  Lu  Lu1  1  0.978401  0.750000  0.489870  1
  Lu  Lu2  1  0.475828  0.750000  0.009963  1
  Lu  Lu3  1  0.524946  0.250000  0.990047  1
  Lu  Lu4  1  0.355950  0.250000  0.291683  1
  Lu  Lu5  1  0.646034  0.750000  0.718165  1
  Lu  Lu6  1  0.147781  0.750000  0.781950  1
  Lu  Lu7  1  0.854818  0.250000  0.217156  1
  Lu  Lu8  1  0.192602  0.250000  0.776880  1
  Lu  Lu9  1  0.809157  0.750000  0.217185  1
  Lu  Lu10  1  0.311125  0.750000  0.281374  1
  Lu  Lu11  1  0.680015  0.250000  0.711955  1
  Lu  Lu12  1  0.194057  0.066999  0.060279  1
  Lu  Lu13  1  0.806083  0.933475  0.940844  1
  Lu  Lu14  1  0.307209  0.945988  0.558933  1
  Lu  Lu15  1  0.806083  0.566525  0.940844  1
  Lu  Lu16  1  0.685558  0.073146  0.444146  1
  Lu  Lu17  1  0.194057  0.433001  0.060279  1
  Lu  Lu18  1  0.685558  0.426854  0.444146  1
  Lu  Lu19  1  0.307209  0.554012  0.558933  1
  Al  Al20  1  0.407500  0.250000  0.541834  1
  Bi  Bi21  1  0.594847  0.750000  0.457085  1
  Bi  Bi22  1  0.095453  0.750000  0.043070  1
  Bi  Bi23  1  0.905922  0.250000  0.954798  1
  Bi  Bi24  1  0.063750  0.002294  0.323909  1
  Bi  Bi25  1  0.934862  0.996986  0.675809  1
  Bi  Bi26  1  0.435366  0.997314  0.824873  1
  Bi  Bi27  1  0.934862  0.503014  0.675809  1
  Bi  Bi28  1  0.564591  0.003669  0.174724  1
  Bi  Bi29  1  0.063750  0.497706  0.323909  1
  Bi  Bi30  1  0.564591  0.496331  0.174724  1
  Bi  Bi31  1  0.435366  0.502686  0.824873  1
