# generated using pymatgen
data_DyHo4Zr3(Co4P3)4
_symmetry_space_group_name_H-M   'P 1'
_cell_length_a   12.29635400
_cell_length_b   12.29635319
_cell_length_c   3.71108300
_cell_angle_alpha   90.00000000
_cell_angle_beta   90.00000000
_cell_angle_gamma   120.00000219
_symmetry_Int_Tables_number   1
_chemical_formula_structural   DyHo4Zr3(Co4P3)4
_chemical_formula_sum   'Dy1 Ho4 Zr3 Co16 P12'
_cell_volume   485.94148470
_cell_formula_units_Z   1
loop_
 _symmetry_equiv_pos_site_id
 _symmetry_equiv_pos_as_xyz
  1  'x, y, z'
loop_
 _atom_site_type_symbol
 _atom_site_label
 _atom_site_symmetry_multiplicity
 _atom_site_fract_x
 _atom_site_fract_y
 _atom_site_fract_z
 _atom_site_occupancy
  Dy  Dy0  1  0.666667  0.333333  0.000000  1
  Ho  Ho1  1  0.333333  0.666667  0.000000  1
  Ho  Ho2  1  0.818233  0.818254  0.500000  1
  Ho  Ho3  1  0.181746  0.999979  0.500000  1
  Ho  Ho4  1  0.000021  0.181767  0.500000  1
  Zr  Zr5  1  0.441492  0.441697  0.000000  1
  Zr  Zr6  1  0.558303  0.999795  0.000000  1
  Zr  Zr7  1  0.000205  0.558508  0.000000  1
  Co  Co8  1  0.875885  0.354756  0.500000  1
  Co  Co9  1  0.645244  0.521129  0.500000  1
  Co  Co10  1  0.478871  0.124115  0.500000  1
  Co  Co11  1  0.354814  0.875301  0.500000  1
  Co  Co12  1  0.520487  0.645186  0.500000  1
  Co  Co13  1  0.124699  0.479513  0.500000  1
  Co  Co14  1  0.805845  0.178205  0.000000  1
  Co  Co15  1  0.821795  0.627639  0.000000  1
  Co  Co16  1  0.372361  0.194155  0.000000  1
  Co  Co17  1  0.178432  0.805774  0.000000  1
  Co  Co18  1  0.627341  0.821568  0.000000  1
  Co  Co19  1  0.194226  0.372659  0.000000  1
  Co  Co20  1  0.276921  0.277067  0.500000  1
  Co  Co21  1  0.722933  0.999854  0.500000  1
  Co  Co22  1  0.000146  0.723079  0.500000  1
  Co  Co23  1  0.000000  0.000000  0.000000  1
  P  P24  1  0.694096  0.171761  0.500000  1
  P  P25  1  0.828239  0.522336  0.500000  1
  P  P26  1  0.477664  0.305904  0.500000  1
  P  P27  1  0.172210  0.693899  0.500000  1
  P  P28  1  0.521691  0.827790  0.500000  1
  P  P29  1  0.306101  0.478309  0.500000  1
  P  P30  1  0.177849  0.177923  0.000000  1
  P  P31  1  0.822077  0.999926  0.000000  1
  P  P32  1  0.000074  0.822151  0.000000  1
  P  P33  1  0.649518  0.649484  0.000000  1
  P  P34  1  0.350516  0.000035  0.000000  1
  P  P35  1  0.999965  0.350482  0.000000  1
