# generated using pymatgen
data_CsTcF8
_symmetry_space_group_name_H-M   'P 1'
_cell_length_a   7.99444000
_cell_length_b   7.99444000
_cell_length_c   5.30898300
_cell_angle_alpha   90.00000000
_cell_angle_beta   90.00000000
_cell_angle_gamma   90.00000000
_symmetry_Int_Tables_number   1
_chemical_formula_structural   CsTcF8
_chemical_formula_sum   'Cs2 Tc2 F16'
_cell_volume   339.30278899
_cell_formula_units_Z   2
loop_
 _symmetry_equiv_pos_site_id
 _symmetry_equiv_pos_as_xyz
  1  'x, y, z'
loop_
 _atom_site_type_symbol
 _atom_site_label
 _atom_site_symmetry_multiplicity
 _atom_site_fract_x
 _atom_site_fract_y
 _atom_site_fract_z
 _atom_site_occupancy
  Cs  Cs0  1  0.000000  0.000000  0.500000  1
  Cs  Cs1  1  0.500000  0.500000  0.500000  1
  Tc  Tc2  1  0.000000  0.500000  0.107219  1
  Tc  Tc3  1  0.500000  0.000000  0.892781  1
  F  F4  1  0.703447  0.000000  0.086071  1
  F  F5  1  0.296553  0.000000  0.086071  1
  F  F6  1  0.500000  0.203447  0.086071  1
  F  F7  1  0.500000  0.796553  0.086071  1
  F  F8  1  0.856629  0.356629  0.307556  1
  F  F9  1  0.856629  0.643371  0.307556  1
  F  F10  1  0.143371  0.356629  0.307556  1
  F  F11  1  0.143371  0.643371  0.307556  1
  F  F12  1  0.643371  0.856629  0.692444  1
  F  F13  1  0.356629  0.143371  0.692444  1
  F  F14  1  0.356629  0.856629  0.692444  1
  F  F15  1  0.643371  0.143371  0.692444  1
  F  F16  1  0.000000  0.296553  0.913929  1
  F  F17  1  0.796553  0.500000  0.913929  1
  F  F18  1  0.203447  0.500000  0.913929  1
  F  F19  1  0.000000  0.703447  0.913929  1
