# generated using pymatgen
data_Cs3V3Te11
_symmetry_space_group_name_H-M   'P 1'
_cell_length_a   15.71448000
_cell_length_b   10.85617232
_cell_length_c   18.24633700
_cell_angle_alpha   54.00142857
_cell_angle_beta   90.00000000
_cell_angle_gamma   90.00000000
_symmetry_Int_Tables_number   1
_chemical_formula_structural   Cs3V3Te11
_chemical_formula_sum   'Cs12 V12 Te44'
_cell_volume   2518.36077479
_cell_formula_units_Z   4
loop_
 _symmetry_equiv_pos_site_id
 _symmetry_equiv_pos_as_xyz
  1  'x, y, z'
loop_
 _atom_site_type_symbol
 _atom_site_label
 _atom_site_symmetry_multiplicity
 _atom_site_fract_x
 _atom_site_fract_y
 _atom_site_fract_z
 _atom_site_occupancy
  Cs  Cs0  1  0.378740  0.711524  0.561970  1
  Cs  Cs1  1  0.121260  0.711524  0.061970  1
  Cs  Cs2  1  0.621260  0.288476  0.438030  1
  Cs  Cs3  1  0.878740  0.288476  0.938030  1
  Cs  Cs4  1  0.527325  0.569214  0.848949  1
  Cs  Cs5  1  0.972675  0.569214  0.348949  1
  Cs  Cs6  1  0.472675  0.430786  0.151051  1
  Cs  Cs7  1  0.027325  0.430786  0.651051  1
  Cs  Cs8  1  0.109879  0.070311  0.378727  1
  Cs  Cs9  1  0.390121  0.070311  0.878727  1
  Cs  Cs10  1  0.890121  0.929689  0.621273  1
  Cs  Cs11  1  0.609879  0.929689  0.121273  1
  V  V12  1  0.200747  0.658839  0.820742  1
  V  V13  1  0.299253  0.658839  0.320742  1
  V  V14  1  0.799253  0.341161  0.179258  1
  V  V15  1  0.700747  0.341161  0.679258  1
  V  V16  1  0.307730  0.034091  0.181107  1
  V  V17  1  0.192270  0.034091  0.681107  1
  V  V18  1  0.692270  0.965909  0.818893  1
  V  V19  1  0.807730  0.965909  0.318893  1
  V  V20  1  0.284492  0.348187  0.979127  1
  V  V21  1  0.215508  0.348187  0.479127  1
  V  V22  1  0.715508  0.651813  0.020873  1
  V  V23  1  0.784492  0.651813  0.520873  1
  Te  Te24  1  0.428020  0.214769  0.052095  1
  Te  Te25  1  0.071980  0.214769  0.552095  1
  Te  Te26  1  0.571980  0.785231  0.947905  1
  Te  Te27  1  0.928020  0.785231  0.447905  1
  Te  Te28  1  0.283752  0.452149  0.810331  1
  Te  Te29  1  0.216248  0.452149  0.310331  1
  Te  Te30  1  0.716248  0.547851  0.189669  1
  Te  Te31  1  0.783752  0.547851  0.689669  1
  Te  Te32  1  0.194171  0.631362  0.449541  1
  Te  Te33  1  0.305829  0.631362  0.949541  1
  Te  Te34  1  0.805829  0.368638  0.550459  1
  Te  Te35  1  0.694171  0.368638  0.050459  1
  Te  Te36  1  0.294251  0.074627  0.541702  1
  Te  Te37  1  0.205749  0.074627  0.041702  1
  Te  Te38  1  0.705749  0.925373  0.458298  1
  Te  Te39  1  0.794251  0.925373  0.958298  1
  Te  Te40  1  0.541488  0.402773  0.718798  1
  Te  Te41  1  0.958512  0.402773  0.218798  1
  Te  Te42  1  0.458512  0.597227  0.281202  1
  Te  Te43  1  0.041488  0.597227  0.781202  1
  Te  Te44  1  0.613368  0.581345  0.521979  1
  Te  Te45  1  0.886632  0.581345  0.021979  1
  Te  Te46  1  0.386632  0.418655  0.478021  1
  Te  Te47  1  0.113368  0.418655  0.978021  1
  Te  Te48  1  0.337473  0.857606  0.761969  1
  Te  Te49  1  0.162527  0.857606  0.261969  1
  Te  Te50  1  0.662527  0.142394  0.238031  1
  Te  Te51  1  0.837473  0.142394  0.738031  1
  Te  Te52  1  0.344850  0.080581  0.316192  1
  Te  Te53  1  0.155150  0.080581  0.816192  1
  Te  Te54  1  0.655150  0.919419  0.683808  1
  Te  Te55  1  0.844850  0.919419  0.183808  1
  Te  Te56  1  0.424124  0.851510  0.311873  1
  Te  Te57  1  0.075876  0.851510  0.811873  1
  Te  Te58  1  0.575876  0.148490  0.688127  1
  Te  Te59  1  0.924124  0.148490  0.188127  1
  Te  Te60  1  0.166233  0.834581  0.634691  1
  Te  Te61  1  0.333767  0.834581  0.134691  1
  Te  Te62  1  0.833767  0.165419  0.365309  1
  Te  Te63  1  0.666233  0.165419  0.865309  1
  Te  Te64  1  0.278070  0.298920  0.637235  1
  Te  Te65  1  0.221930  0.298920  0.137235  1
  Te  Te66  1  0.721930  0.701080  0.362765  1
  Te  Te67  1  0.778070  0.701080  0.862765  1
