# generated using pymatgen
data_Ca2TbYb5Bi6
_symmetry_space_group_name_H-M   'P 1'
_cell_length_a   8.28677700
_cell_length_b   8.37941424
_cell_length_c   8.37225832
_cell_angle_alpha   109.67617163
_cell_angle_beta   109.25708415
_cell_angle_gamma   109.27257588
_symmetry_Int_Tables_number   1
_chemical_formula_structural   Ca2TbYb5Bi6
_chemical_formula_sum   'Ca2 Tb1 Yb5 Bi6'
_cell_volume   448.66621963
_cell_formula_units_Z   1
loop_
 _symmetry_equiv_pos_site_id
 _symmetry_equiv_pos_as_xyz
  1  'x, y, z'
loop_
 _atom_site_type_symbol
 _atom_site_label
 _atom_site_symmetry_multiplicity
 _atom_site_fract_x
 _atom_site_fract_y
 _atom_site_fract_z
 _atom_site_occupancy
  Ca  Ca0  1  0.851666  0.499903  0.999852  1
  Ca  Ca1  1  0.000008  0.850699  0.499431  1
  Tb  Tb2  1  0.354635  0.499768  0.999929  1
  Yb  Yb3  1  0.500122  0.002433  0.355038  1
  Yb  Yb4  1  0.500707  0.000492  0.851246  1
  Yb  Yb5  1  0.649302  0.648780  0.649433  1
  Yb  Yb6  1  0.997680  0.352590  0.497611  1
  Yb  Yb7  1  0.145014  0.144940  0.147425  1
  Bi  Bi8  1  0.128452  0.745969  0.876188  1
  Bi  Bi9  1  0.882394  0.130200  0.754134  1
  Bi  Bi10  1  0.619192  0.374341  0.246119  1
  Bi  Bi11  1  0.373500  0.254111  0.628436  1
  Bi  Bi12  1  0.744869  0.871878  0.125292  1
  Bi  Bi13  1  0.252457  0.623897  0.369865  1
