# generated using pymatgen
data_Dy4Zn3Ga5
_symmetry_space_group_name_H-M   'P 1'
_cell_length_a   4.43850300
_cell_length_b   7.18959653
_cell_length_c   7.65955124
_cell_angle_alpha   90.00596651
_cell_angle_beta   90.00000000
_cell_angle_gamma   90.00000000
_symmetry_Int_Tables_number   1
_chemical_formula_structural   Dy4Zn3Ga5
_chemical_formula_sum   'Dy4 Zn3 Ga5'
_cell_volume   244.42428901
_cell_formula_units_Z   1
loop_
 _symmetry_equiv_pos_site_id
 _symmetry_equiv_pos_as_xyz
  1  'x, y, z'
loop_
 _atom_site_type_symbol
 _atom_site_label
 _atom_site_symmetry_multiplicity
 _atom_site_fract_x
 _atom_site_fract_y
 _atom_site_fract_z
 _atom_site_occupancy
  Dy  Dy0  1  0.250000  0.996508  0.255838  1
  Dy  Dy1  1  0.250000  0.502617  0.243902  1
  Dy  Dy2  1  0.750000  0.994964  0.745312  1
  Dy  Dy3  1  0.750000  0.500908  0.755760  1
  Zn  Zn4  1  0.250000  0.292401  0.581077  1
  Zn  Zn5  1  0.250000  0.784008  0.915878  1
  Zn  Zn6  1  0.750000  0.771410  0.418030  1
  Ga  Ga7  1  0.750000  0.271086  0.084614  1
  Ga  Ga8  1  0.250000  0.213195  0.912366  1
  Ga  Ga9  1  0.250000  0.714865  0.583192  1
  Ga  Ga10  1  0.750000  0.735472  0.083101  1
  Ga  Ga11  1  0.750000  0.222566  0.420932  1
