# generated using pymatgen
data_Nd20Sn8Bi3Sb5
_symmetry_space_group_name_H-M   'P 1'
_cell_length_a   8.37647174
_cell_length_b   8.43900085
_cell_length_c   16.02136075
_cell_angle_alpha   89.97201935
_cell_angle_beta   90.02114125
_cell_angle_gamma   90.04322852
_symmetry_Int_Tables_number   1
_chemical_formula_structural   Nd20Sn8Bi3Sb5
_chemical_formula_sum   'Nd20 Sn8 Bi3 Sb5'
_cell_volume   1132.53427103
_cell_formula_units_Z   1
loop_
 _symmetry_equiv_pos_site_id
 _symmetry_equiv_pos_as_xyz
  1  'x, y, z'
loop_
 _atom_site_type_symbol
 _atom_site_label
 _atom_site_symmetry_multiplicity
 _atom_site_fract_x
 _atom_site_fract_y
 _atom_site_fract_z
 _atom_site_occupancy
  Nd  Nd0  1  0.039620  0.176863  0.393931  1
  Nd  Nd1  1  0.383366  0.839079  0.119815  1
  Nd  Nd2  1  0.112414  0.340179  0.618614  1
  Nd  Nd3  1  0.461024  0.677050  0.893790  1
  Nd  Nd4  1  0.883589  0.660865  0.119563  1
  Nd  Nd5  1  0.111894  0.333390  0.879787  1
  Nd  Nd6  1  0.212079  0.496612  0.252062  1
  Nd  Nd7  1  0.711876  0.003461  0.251996  1
  Nd  Nd8  1  0.458997  0.672066  0.605198  1
  Nd  Nd9  1  0.288434  0.996652  0.751178  1
  Nd  Nd10  1  0.617953  0.164637  0.618758  1
  Nd  Nd11  1  0.787854  0.503443  0.750214  1
  Nd  Nd12  1  0.886394  0.663963  0.382350  1
  Nd  Nd13  1  0.044893  0.174334  0.106454  1
  Nd  Nd14  1  0.960461  0.822677  0.893718  1
  Nd  Nd15  1  0.612395  0.166875  0.879960  1
  Nd  Nd16  1  0.544948  0.325899  0.106110  1
  Nd  Nd17  1  0.387601  0.833546  0.380206  1
  Nd  Nd18  1  0.953449  0.822610  0.605811  1
  Nd  Nd19  1  0.541842  0.324527  0.395828  1
  Sn  Sn20  1  0.655849  0.862160  0.749669  1
  Sn  Sn21  1  0.844004  0.361440  0.250110  1
  Sn  Sn22  1  0.583603  0.620893  0.249725  1
  Sn  Sn23  1  0.415722  0.378778  0.749255  1
  Sn  Sn24  1  0.156780  0.638655  0.749688  1
  Sn  Sn25  1  0.916456  0.120460  0.749405  1
  Sn  Sn26  1  0.344471  0.139163  0.250353  1
  Sn  Sn27  1  0.082745  0.878189  0.250160  1
  Bi  Bi28  1  0.227096  0.524265  0.044486  1
  Bi  Bi29  1  0.272593  0.024178  0.544803  1
  Bi  Bi30  1  0.727293  0.975925  0.044499  1
  Sb  Sb31  1  0.771833  0.477327  0.546163  1
  Sb  Sb32  1  0.727980  0.976967  0.454237  1
  Sb  Sb33  1  0.228345  0.522758  0.454206  1
  Sb  Sb34  1  0.272028  0.022980  0.954190  1
  Sb  Sb35  1  0.772116  0.477134  0.953706  1
