# generated using pymatgen
data_ScMn4Nb
_symmetry_space_group_name_H-M   'P 1'
_cell_length_a   4.83121200
_cell_length_b   4.83121085
_cell_length_c   8.05149900
_cell_angle_alpha   90.00000000
_cell_angle_beta   90.00000000
_cell_angle_gamma   120.00000785
_symmetry_Int_Tables_number   1
_chemical_formula_structural   ScMn4Nb
_chemical_formula_sum   'Sc2 Mn8 Nb2'
_cell_volume   162.74941206
_cell_formula_units_Z   2
loop_
 _symmetry_equiv_pos_site_id
 _symmetry_equiv_pos_as_xyz
  1  'x, y, z'
loop_
 _atom_site_type_symbol
 _atom_site_label
 _atom_site_symmetry_multiplicity
 _atom_site_fract_x
 _atom_site_fract_y
 _atom_site_fract_z
 _atom_site_occupancy
  Sc  Sc0  1  0.333333  0.666667  0.437415  1
  Sc  Sc1  1  0.666667  0.333333  0.937415  1
  Mn  Mn2  1  0.170504  0.341008  0.749701  1
  Mn  Mn3  1  0.829496  0.170504  0.249701  1
  Mn  Mn4  1  0.341008  0.170504  0.249701  1
  Mn  Mn5  1  0.658992  0.829496  0.749701  1
  Mn  Mn6  1  0.000000  0.000000  0.998308  1
  Mn  Mn7  1  0.000000  0.000000  0.498308  1
  Mn  Mn8  1  0.829496  0.658992  0.249701  1
  Mn  Mn9  1  0.170504  0.829496  0.749701  1
  Nb  Nb10  1  0.666667  0.333333  0.565173  1
  Nb  Nb11  1  0.333333  0.666667  0.065173  1
