# generated using pymatgen
data_YbLu3(TcB4)4
_symmetry_space_group_name_H-M   'P 1'
_cell_length_a   3.56681600
_cell_length_b   5.92999814
_cell_length_c   11.46445397
_cell_angle_alpha   89.96464641
_cell_angle_beta   90.00000000
_cell_angle_gamma   90.00000000
_symmetry_Int_Tables_number   1
_chemical_formula_structural   YbLu3(TcB4)4
_chemical_formula_sum   'Yb1 Lu3 Tc4 B16'
_cell_volume   242.48705308
_cell_formula_units_Z   1
loop_
 _symmetry_equiv_pos_site_id
 _symmetry_equiv_pos_as_xyz
  1  'x, y, z'
loop_
 _atom_site_type_symbol
 _atom_site_label
 _atom_site_symmetry_multiplicity
 _atom_site_fract_x
 _atom_site_fract_y
 _atom_site_fract_z
 _atom_site_occupancy
  Yb  Yb0  1  0.500000  0.871772  0.650219  1
  Lu  Lu1  1  0.500000  0.628139  0.149977  1
  Lu  Lu2  1  0.500000  0.371533  0.849299  1
  Lu  Lu3  1  0.500000  0.126914  0.350298  1
  Tc  Tc4  1  0.500000  0.631675  0.412757  1
  Tc  Tc5  1  0.500000  0.367705  0.584926  1
  Tc  Tc6  1  0.500000  0.134461  0.087839  1
  Tc  Tc7  1  0.500000  0.864822  0.914400  1
  B  B8  1  0.000000  0.978278  0.193877  1
  B  B9  1  0.000000  0.022968  0.807143  1
  B  B10  1  0.000000  0.478849  0.305954  1
  B  B11  1  0.000000  0.520540  0.693333  1
  B  B12  1  0.000000  0.789921  0.314738  1
  B  B13  1  0.000000  0.212086  0.685258  1
  B  B14  1  0.000000  0.289499  0.185746  1
  B  B15  1  0.000000  0.711414  0.814970  1
  B  B16  1  0.000000  0.865283  0.467817  1
  B  B17  1  0.000000  0.134453  0.530991  1
  B  B18  1  0.000000  0.365478  0.031356  1
  B  B19  1  0.000000  0.634339  0.969400  1
  B  B20  1  0.000000  0.885800  0.048510  1
  B  B21  1  0.000000  0.114431  0.952302  1
  B  B22  1  0.000000  0.385449  0.451498  1
  B  B23  1  0.000000  0.614192  0.547391  1
