# generated using pymatgen
data_Tb3Er5(HgIr)2
_symmetry_space_group_name_H-M   'P 1'
_cell_length_a   9.57364185
_cell_length_b   9.57364192
_cell_length_c   9.57364300
_cell_angle_alpha   59.99999972
_cell_angle_beta   59.99999947
_cell_angle_gamma   60.00000189
_symmetry_Int_Tables_number   1
_chemical_formula_structural   Tb3Er5(HgIr)2
_chemical_formula_sum   'Tb6 Er10 Hg4 Ir4'
_cell_volume   620.46400279
_cell_formula_units_Z   2
loop_
 _symmetry_equiv_pos_site_id
 _symmetry_equiv_pos_as_xyz
  1  'x, y, z'
loop_
 _atom_site_type_symbol
 _atom_site_label
 _atom_site_symmetry_multiplicity
 _atom_site_fract_x
 _atom_site_fract_y
 _atom_site_fract_z
 _atom_site_occupancy
  Tb  Tb0  1  0.188976  0.811024  0.811024  1
  Tb  Tb1  1  0.811024  0.188976  0.188976  1
  Tb  Tb2  1  0.811024  0.188976  0.811024  1
  Tb  Tb3  1  0.188976  0.811024  0.188976  1
  Tb  Tb4  1  0.811024  0.811024  0.188976  1
  Tb  Tb5  1  0.188976  0.188976  0.811024  1
  Er  Er6  1  0.599999  0.599999  0.599999  1
  Er  Er7  1  0.599999  0.599999  0.200003  1
  Er  Er8  1  0.599999  0.200003  0.599999  1
  Er  Er9  1  0.200003  0.599999  0.599999  1
  Er  Er10  1  0.060983  0.439017  0.439017  1
  Er  Er11  1  0.439017  0.060983  0.060983  1
  Er  Er12  1  0.439017  0.060983  0.439017  1
  Er  Er13  1  0.060983  0.439017  0.060983  1
  Er  Er14  1  0.439017  0.439017  0.060983  1
  Er  Er15  1  0.060983  0.060983  0.439017  1
  Hg  Hg16  1  0.833473  0.833473  0.833473  1
  Hg  Hg17  1  0.833473  0.833473  0.499583  1
  Hg  Hg18  1  0.833473  0.499583  0.833473  1
  Hg  Hg19  1  0.499583  0.833473  0.833473  1
  Ir  Ir20  1  0.391868  0.391868  0.391868  1
  Ir  Ir21  1  0.391868  0.391868  0.824397  1
  Ir  Ir22  1  0.391868  0.824397  0.391868  1
  Ir  Ir23  1  0.824397  0.391868  0.391868  1
