# generated using pymatgen
data_Sc8Ti10ReSi16Rh
_symmetry_space_group_name_H-M   'P 1'
_cell_length_a   6.83398482
_cell_length_b   6.83398376
_cell_length_c   12.48824432
_cell_angle_alpha   89.89103305
_cell_angle_beta   90.10896575
_cell_angle_gamma   89.71885706
_symmetry_Int_Tables_number   1
_chemical_formula_structural   Sc8Ti10ReSi16Rh
_chemical_formula_sum   'Sc8 Ti10 Re1 Si16 Rh1'
_cell_volume   583.23359511
_cell_formula_units_Z   1
loop_
 _symmetry_equiv_pos_site_id
 _symmetry_equiv_pos_as_xyz
  1  'x, y, z'
loop_
 _atom_site_type_symbol
 _atom_site_label
 _atom_site_symmetry_multiplicity
 _atom_site_fract_x
 _atom_site_fract_y
 _atom_site_fract_z
 _atom_site_occupancy
  Sc  Sc0  1  0.000274  0.658394  0.030898  1
  Sc  Sc1  1  0.000130  0.341174  0.530281  1
  Sc  Sc2  1  0.341174  0.000130  0.469719  1
  Sc  Sc3  1  0.161211  0.498238  0.783199  1
  Sc  Sc4  1  0.839001  0.500503  0.282750  1
  Sc  Sc5  1  0.498238  0.161211  0.216801  1
  Sc  Sc6  1  0.500503  0.839001  0.717250  1
  Sc  Sc7  1  0.658394  0.000274  0.969102  1
  Ti  Ti8  1  0.171078  0.828821  0.251089  1
  Ti  Ti9  1  0.001627  0.851686  0.628158  1
  Ti  Ti10  1  0.002107  0.150738  0.127245  1
  Ti  Ti11  1  0.851686  0.001627  0.371842  1
  Ti  Ti12  1  0.346879  0.506519  0.375167  1
  Ti  Ti13  1  0.648893  0.491744  0.874404  1
  Ti  Ti14  1  0.506519  0.346879  0.624833  1
  Ti  Ti15  1  0.491744  0.648893  0.125596  1
  Ti  Ti16  1  0.150738  0.002107  0.872755  1
  Ti  Ti17  1  0.828821  0.171078  0.748911  1
  Re  Re18  1  0.328357  0.328357  0.000000  1
  Si  Si19  1  0.044112  0.708340  0.437025  1
  Si  Si20  1  0.632188  0.293417  0.428825  1
  Si  Si21  1  0.364840  0.703830  0.929748  1
  Si  Si22  1  0.206709  0.138676  0.679202  1
  Si  Si23  1  0.293417  0.632188  0.571175  1
  Si  Si24  1  0.703830  0.364840  0.070252  1
  Si  Si25  1  0.793474  0.861330  0.179717  1
  Si  Si26  1  0.138676  0.206709  0.320798  1
  Si  Si27  1  0.956806  0.294547  0.935167  1
  Si  Si28  1  0.708340  0.044112  0.562975  1
  Si  Si29  1  0.200147  0.454582  0.183339  1
  Si  Si30  1  0.797928  0.548248  0.682143  1
  Si  Si31  1  0.454582  0.200147  0.816661  1
  Si  Si32  1  0.548248  0.797928  0.317857  1
  Si  Si33  1  0.294547  0.956806  0.064833  1
  Si  Si34  1  0.861330  0.793474  0.820283  1
  Rh  Rh35  1  0.673452  0.673452  0.500000  1
