# generated using pymatgen
data_LiZr3(B4Ru5)2
_symmetry_space_group_name_H-M   'P 1'
_cell_length_a   3.00311400
_cell_length_b   8.60093769
_cell_length_c   10.03572558
_cell_angle_alpha   88.43821901
_cell_angle_beta   90.00000000
_cell_angle_gamma   90.00000000
_symmetry_Int_Tables_number   1
_chemical_formula_structural   LiZr3(B4Ru5)2
_chemical_formula_sum   'Li1 Zr3 B8 Ru10'
_cell_volume   259.12244607
_cell_formula_units_Z   1
loop_
 _symmetry_equiv_pos_site_id
 _symmetry_equiv_pos_as_xyz
  1  'x, y, z'
loop_
 _atom_site_type_symbol
 _atom_site_label
 _atom_site_symmetry_multiplicity
 _atom_site_fract_x
 _atom_site_fract_y
 _atom_site_fract_z
 _atom_site_occupancy
  Li  Li0  1  0.500000  0.850865  0.196204  1
  Zr  Zr1  1  0.500000  0.155476  0.828833  1
  Zr  Zr2  1  0.500000  0.661253  0.676953  1
  Zr  Zr3  1  0.500000  0.344759  0.310290  1
  B  B4  1  0.500000  0.967740  0.590070  1
  B  B5  1  0.500000  0.034445  0.414968  1
  B  B6  1  0.500000  0.848389  0.906111  1
  B  B7  1  0.500000  0.134090  0.105015  1
  B  B8  1  0.500000  0.657286  0.385820  1
  B  B9  1  0.500000  0.355445  0.596579  1
  B  B10  1  0.500000  0.462029  0.910827  1
  B  B11  1  0.500000  0.536884  0.084552  1
  Ru  Ru12  1  0.000000  0.655034  0.942973  1
  Ru  Ru13  1  0.000000  0.330641  0.047298  1
  Ru  Ru14  1  0.000000  0.836967  0.456984  1
  Ru  Ru15  1  0.000000  0.167610  0.550030  1
  Ru  Ru16  1  0.000000  0.985853  0.009054  1
  Ru  Ru17  1  0.000000  0.404848  0.758389  1
  Ru  Ru18  1  0.000000  0.608213  0.228939  1
  Ru  Ru19  1  0.000000  0.503820  0.493075  1
  Ru  Ru20  1  0.000000  0.907164  0.741309  1
  Ru  Ru21  1  0.000000  0.091188  0.265727  1
