# generated using pymatgen
data_Rb2AsF5
_symmetry_space_group_name_H-M   'P 1'
_cell_length_a   7.82185823
_cell_length_b   7.82185885
_cell_length_c   6.76724400
_cell_angle_alpha   90.00000000
_cell_angle_beta   90.00000000
_cell_angle_gamma   132.17804398
_symmetry_Int_Tables_number   1
_chemical_formula_structural   Rb2AsF5
_chemical_formula_sum   'Rb4 As2 F10'
_cell_volume   306.82183612
_cell_formula_units_Z   2
loop_
 _symmetry_equiv_pos_site_id
 _symmetry_equiv_pos_as_xyz
  1  'x, y, z'
loop_
 _atom_site_type_symbol
 _atom_site_label
 _atom_site_symmetry_multiplicity
 _atom_site_fract_x
 _atom_site_fract_y
 _atom_site_fract_z
 _atom_site_occupancy
  Rb  Rb0  1  0.243626  0.756374  0.250000  1
  Rb  Rb1  1  0.756374  0.243626  0.750000  1
  Rb  Rb2  1  0.555993  0.444007  0.250000  1
  Rb  Rb3  1  0.444007  0.555993  0.750000  1
  As  As4  1  0.898769  0.101231  0.250000  1
  As  As5  1  0.101231  0.898769  0.750000  1
  F  F6  1  0.107814  0.341482  0.044637  1
  F  F7  1  0.892186  0.658518  0.955363  1
  F  F8  1  0.892186  0.658518  0.544637  1
  F  F9  1  0.658518  0.892186  0.455363  1
  F  F10  1  0.107814  0.341482  0.455363  1
  F  F11  1  0.341482  0.107814  0.544637  1
  F  F12  1  0.341482  0.107814  0.955363  1
  F  F13  1  0.658518  0.892186  0.044637  1
  F  F14  1  0.770818  0.229182  0.250000  1
  F  F15  1  0.229182  0.770818  0.750000  1
