# generated using pymatgen
data_CeSmEr2(AsPt)4
_symmetry_space_group_name_H-M   'P 1'
_cell_length_a   4.29053727
_cell_length_b   4.29211405
_cell_length_c   15.57052400
_cell_angle_alpha   89.99936147
_cell_angle_beta   90.00186326
_cell_angle_gamma   120.02880862
_symmetry_Int_Tables_number   1
_chemical_formula_structural   CeSmEr2(AsPt)4
_chemical_formula_sum   'Ce1 Sm1 Er2 As4 Pt4'
_cell_volume   248.25079408
_cell_formula_units_Z   1
loop_
 _symmetry_equiv_pos_site_id
 _symmetry_equiv_pos_as_xyz
  1  'x, y, z'
loop_
 _atom_site_type_symbol
 _atom_site_label
 _atom_site_symmetry_multiplicity
 _atom_site_fract_x
 _atom_site_fract_y
 _atom_site_fract_z
 _atom_site_occupancy
  Ce  Ce0  1  0.000002  0.000001  0.000018  1
  Sm  Sm1  1  0.000000  0.999999  0.499999  1
  Er  Er2  1  0.000332  0.000047  0.250980  1
  Er  Er3  1  0.999668  0.999954  0.749011  1
  As  As4  1  0.333480  0.666680  0.885430  1
  As  As5  1  0.666520  0.333321  0.114572  1
  As  As6  1  0.666437  0.333315  0.384017  1
  As  As7  1  0.333561  0.666685  0.615973  1
  Pt  Pt8  1  0.333460  0.666679  0.355738  1
  Pt  Pt9  1  0.666539  0.333319  0.644254  1
  Pt  Pt10  1  0.666583  0.333325  0.856547  1
  Pt  Pt11  1  0.333417  0.666675  0.143460  1
