# generated using pymatgen
data_Ta8VOs3W4
_symmetry_space_group_name_H-M   'P 1'
_cell_length_a   6.42275201
_cell_length_b   6.42670600
_cell_length_c   6.42374401
_cell_angle_alpha   89.99998217
_cell_angle_beta   90.00489712
_cell_angle_gamma   90.00000000
_symmetry_Int_Tables_number   1
_chemical_formula_structural   Ta8VOs3W4
_chemical_formula_sum   'Ta8 V1 Os3 W4'
_cell_volume   265.15377232
_cell_formula_units_Z   1
loop_
 _symmetry_equiv_pos_site_id
 _symmetry_equiv_pos_as_xyz
  1  'x, y, z'
loop_
 _atom_site_type_symbol
 _atom_site_label
 _atom_site_symmetry_multiplicity
 _atom_site_fract_x
 _atom_site_fract_y
 _atom_site_fract_z
 _atom_site_occupancy
  Ta  Ta0  1  0.501207  0.001247  0.249649  1
  Ta  Ta1  1  0.501203  0.498766  0.249646  1
  Ta  Ta2  1  0.998381  0.001262  0.249633  1
  Ta  Ta3  1  0.998376  0.498725  0.249635  1
  Ta  Ta4  1  0.998793  0.001242  0.750355  1
  Ta  Ta5  1  0.998797  0.498771  0.750355  1
  Ta  Ta6  1  0.501622  0.001262  0.750368  1
  Ta  Ta7  1  0.501624  0.498725  0.750368  1
  V  V8  1  0.749987  0.250000  0.000100  1
  Os  Os9  1  0.250002  0.750000  0.499909  1
  Os  Os10  1  0.749997  0.250000  0.500073  1
  Os  Os11  1  0.250001  0.750000  0.999914  1
  W  W12  1  0.249984  0.250000  0.000067  1
  W  W13  1  0.749984  0.750000  0.499936  1
  W  W14  1  0.250023  0.249999  0.500060  1
  W  W15  1  0.750020  0.750000  0.999931  1
