# generated using pymatgen
data_Lu5Th3(InRu)2
_symmetry_space_group_name_H-M   'P 1'
_cell_length_a   9.64655279
_cell_length_b   9.69554771
_cell_length_c   9.69554717
_cell_angle_alpha   59.66595835
_cell_angle_beta   60.16702491
_cell_angle_gamma   60.16702315
_symmetry_Int_Tables_number   1
_chemical_formula_structural   Lu5Th3(InRu)2
_chemical_formula_sum   'Lu10 Th6 In4 Ru4'
_cell_volume   641.17970910
_cell_formula_units_Z   2
loop_
 _symmetry_equiv_pos_site_id
 _symmetry_equiv_pos_as_xyz
  1  'x, y, z'
loop_
 _atom_site_type_symbol
 _atom_site_label
 _atom_site_symmetry_multiplicity
 _atom_site_fract_x
 _atom_site_fract_y
 _atom_site_fract_z
 _atom_site_occupancy
  Lu  Lu0  1  0.442782  0.057218  0.442782  1
  Lu  Lu1  1  0.057218  0.442782  0.057218  1
  Lu  Lu2  1  0.442782  0.442782  0.057218  1
  Lu  Lu3  1  0.057218  0.057218  0.442782  1
  Lu  Lu4  1  0.182239  0.817761  0.817761  1
  Lu  Lu5  1  0.817761  0.182239  0.182239  1
  Lu  Lu6  1  0.811541  0.188459  0.811541  1
  Lu  Lu7  1  0.188459  0.811541  0.188459  1
  Lu  Lu8  1  0.811541  0.811541  0.188459  1
  Lu  Lu9  1  0.188459  0.188459  0.811541  1
  Th  Th10  1  0.592367  0.600667  0.600667  1
  Th  Th11  1  0.600667  0.592367  0.206300  1
  Th  Th12  1  0.600667  0.206300  0.592367  1
  Th  Th13  1  0.206300  0.600667  0.600667  1
  Th  Th14  1  0.067836  0.432164  0.432164  1
  Th  Th15  1  0.432164  0.067836  0.067836  1
  In  In16  1  0.833863  0.835683  0.835683  1
  In  In17  1  0.835683  0.833863  0.494770  1
  In  In18  1  0.835683  0.494770  0.833863  1
  In  In19  1  0.494770  0.835683  0.835683  1
  Ru  Ru20  1  0.380559  0.395414  0.395414  1
  Ru  Ru21  1  0.395414  0.380559  0.828612  1
  Ru  Ru22  1  0.395414  0.828612  0.380559  1
  Ru  Ru23  1  0.828612  0.395414  0.395414  1
