# generated using pymatgen
data_Hf16Ta2Pt5Rh
_symmetry_space_group_name_H-M   'P 1'
_cell_length_a   8.78157572
_cell_length_b   8.88773174
_cell_length_c   8.88773231
_cell_angle_alpha   60.35176032
_cell_angle_beta   60.42802348
_cell_angle_gamma   60.42803128
_symmetry_Int_Tables_number   1
_chemical_formula_structural   Hf16Ta2Pt5Rh
_chemical_formula_sum   'Hf16 Ta2 Pt5 Rh1'
_cell_volume   494.96562067
_cell_formula_units_Z   1
loop_
 _symmetry_equiv_pos_site_id
 _symmetry_equiv_pos_as_xyz
  1  'x, y, z'
loop_
 _atom_site_type_symbol
 _atom_site_label
 _atom_site_symmetry_multiplicity
 _atom_site_fract_x
 _atom_site_fract_y
 _atom_site_fract_z
 _atom_site_occupancy
  Hf  Hf0  1  0.163950  0.613548  0.613548  1
  Hf  Hf1  1  0.615782  0.148752  0.622084  1
  Hf  Hf2  1  0.615782  0.622084  0.148752  1
  Hf  Hf3  1  0.608116  0.613532  0.613532  1
  Hf  Hf4  1  0.817523  0.817749  0.187254  1
  Hf  Hf5  1  0.177114  0.186464  0.817898  1
  Hf  Hf6  1  0.817523  0.187254  0.817749  1
  Hf  Hf7  1  0.177114  0.817898  0.186464  1
  Hf  Hf8  1  0.175249  0.818360  0.818360  1
  Hf  Hf9  1  0.817545  0.182553  0.182553  1
  Hf  Hf10  1  0.450385  0.444287  0.054484  1
  Hf  Hf11  1  0.051322  0.053632  0.444040  1
  Hf  Hf12  1  0.450385  0.054484  0.444287  1
  Hf  Hf13  1  0.051322  0.444040  0.053632  1
  Hf  Hf14  1  0.041183  0.458836  0.458836  1
  Hf  Hf15  1  0.448232  0.052750  0.052750  1
  Ta  Ta16  1  0.837051  0.491767  0.834819  1
  Ta  Ta17  1  0.837051  0.834819  0.491767  1
  Pt  Pt18  1  0.806761  0.395802  0.395802  1
  Pt  Pt19  1  0.398681  0.813036  0.389725  1
  Pt  Pt20  1  0.398681  0.389725  0.813036  1
  Pt  Pt21  1  0.402315  0.395812  0.395812  1
  Pt  Pt22  1  0.496430  0.831291  0.831291  1
  Rh  Rh23  1  0.844508  0.831524  0.831524  1
