# generated using pymatgen
data_Sc(NiH3)2
_symmetry_space_group_name_H-M   'P 1'
_cell_length_a   5.68249933
_cell_length_b   4.62550781
_cell_length_c   4.61575414
_cell_angle_alpha   90.10157210
_cell_angle_beta   90.10469192
_cell_angle_gamma   35.52906747
_symmetry_Int_Tables_number   1
_chemical_formula_structural   Sc(NiH3)2
_chemical_formula_sum   'Sc1 Ni2 H6'
_cell_volume   70.50232865
_cell_formula_units_Z   1
loop_
 _symmetry_equiv_pos_site_id
 _symmetry_equiv_pos_as_xyz
  1  'x, y, z'
loop_
 _atom_site_type_symbol
 _atom_site_label
 _atom_site_symmetry_multiplicity
 _atom_site_fract_x
 _atom_site_fract_y
 _atom_site_fract_z
 _atom_site_occupancy
  Sc  Sc0  1  0.997049  0.572829  0.466369  1
  Ni  Ni1  1  0.497848  0.571948  0.467546  1
  Ni  Ni2  1  0.497275  0.073106  0.966605  1
  H  H3  1  0.494388  0.827651  0.218409  1
  H  H4  1  0.996798  0.572307  0.968405  1
  H  H5  1  0.496969  0.843405  0.696679  1
  H  H6  1  0.498345  0.317594  0.713137  1
  H  H7  1  0.997120  0.073107  0.466702  1
  H  H8  1  0.497489  0.303831  0.235126  1
