# generated using pymatgen
data_La12Co2CuPd
_symmetry_space_group_name_H-M   'P 1'
_cell_length_a   6.63133371
_cell_length_b   7.29147359
_cell_length_c   10.17895500
_cell_angle_alpha   90.00000000
_cell_angle_beta   90.00000000
_cell_angle_gamma   89.14115069
_symmetry_Int_Tables_number   1
_chemical_formula_structural   La12Co2CuPd
_chemical_formula_sum   'La12 Co2 Cu1 Pd1'
_cell_volume   492.11952021
_cell_formula_units_Z   1
loop_
 _symmetry_equiv_pos_site_id
 _symmetry_equiv_pos_as_xyz
  1  'x, y, z'
loop_
 _atom_site_type_symbol
 _atom_site_label
 _atom_site_symmetry_multiplicity
 _atom_site_fract_x
 _atom_site_fract_y
 _atom_site_fract_z
 _atom_site_occupancy
  La  La0  1  0.836729  0.660589  0.071155  1
  La  La1  1  0.673571  0.179189  0.063481  1
  La  La2  1  0.161987  0.341629  0.929873  1
  La  La3  1  0.326969  0.820218  0.563489  1
  La  La4  1  0.874832  0.944456  0.750000  1
  La  La5  1  0.121432  0.056809  0.250000  1
  La  La6  1  0.161987  0.341629  0.570127  1
  La  La7  1  0.673571  0.179189  0.436519  1
  La  La8  1  0.326969  0.820218  0.936511  1
  La  La9  1  0.836729  0.660589  0.428845  1
  La  La10  1  0.339189  0.520331  0.250000  1
  La  La11  1  0.661932  0.474285  0.750000  1
  Co  Co12  1  0.086613  0.627519  0.750000  1
  Co  Co13  1  0.919430  0.372358  0.250000  1
  Cu  Cu14  1  0.557891  0.882859  0.250000  1
  Pd  Pd15  1  0.440168  0.118131  0.750000  1
