# generated using pymatgen
data_TbNd6Y(MoO6)4
_symmetry_space_group_name_H-M   'P 1'
_cell_length_a   5.52814908
_cell_length_b   10.19612784
_cell_length_c   10.19613690
_cell_angle_alpha   68.59695858
_cell_angle_beta   75.08096633
_cell_angle_gamma   75.08107166
_symmetry_Int_Tables_number   1
_chemical_formula_structural   TbNd6Y(MoO6)4
_chemical_formula_sum   'Tb1 Nd6 Y1 Mo4 O24'
_cell_volume   508.43092224
_cell_formula_units_Z   1
loop_
 _symmetry_equiv_pos_site_id
 _symmetry_equiv_pos_as_xyz
  1  'x, y, z'
loop_
 _atom_site_type_symbol
 _atom_site_label
 _atom_site_symmetry_multiplicity
 _atom_site_fract_x
 _atom_site_fract_y
 _atom_site_fract_z
 _atom_site_occupancy
  Tb  Tb0  1  0.249999  0.603213  0.396789  1
  Nd  Nd1  1  0.620276  0.786491  0.553081  1
  Nd  Nd2  1  0.120337  0.553006  0.786539  1
  Nd  Nd3  1  0.379664  0.213461  0.446993  1
  Nd  Nd4  1  0.879725  0.446921  0.213508  1
  Nd  Nd5  1  0.750000  0.864169  0.135831  1
  Nd  Nd6  1  0.250001  0.135847  0.864153  1
  Y  Y7  1  0.750002  0.397220  0.602780  1
  Mo  Mo8  1  0.064280  0.007360  0.297556  1
  Mo  Mo9  1  0.435720  0.702443  0.992641  1
  Mo  Mo10  1  0.935593  0.992637  0.702459  1
  Mo  Mo11  1  0.564407  0.297542  0.007364  1
  O  O12  1  0.923886  0.571070  0.606486  1
  O  O13  1  0.576114  0.393513  0.428932  1
  O  O14  1  0.075949  0.428656  0.393766  1
  O  O15  1  0.424053  0.606235  0.571343  1
  O  O16  1  0.934297  0.807284  0.337657  1
  O  O17  1  0.565699  0.662342  0.192715  1
  O  O18  1  0.065024  0.193111  0.662275  1
  O  O19  1  0.434977  0.337726  0.806888  1
  O  O20  1  0.373290  0.887810  0.328612  1
  O  O21  1  0.126707  0.671388  0.112189  1
  O  O22  1  0.626688  0.112056  0.671450  1
  O  O23  1  0.873313  0.328550  0.887945  1
  O  O24  1  0.633903  0.289601  0.176899  1
  O  O25  1  0.866098  0.823102  0.710399  1
  O  O26  1  0.366103  0.710410  0.823163  1
  O  O27  1  0.133896  0.176837  0.289590  1
  O  O28  1  0.520335  0.115948  0.044603  1
  O  O29  1  0.979665  0.955398  0.884053  1
  O  O30  1  0.763433  0.023947  0.427366  1
  O  O31  1  0.020371  0.044608  0.115922  1
  O  O32  1  0.263427  0.427308  0.023922  1
  O  O33  1  0.236574  0.976079  0.572692  1
  O  O34  1  0.736568  0.572634  0.976053  1
  O  O35  1  0.479628  0.884078  0.955392  1
