# generated using pymatgen
data_Sc12ZnCo4Rh
_symmetry_space_group_name_H-M   'P 1'
_cell_length_a   7.68827431
_cell_length_b   7.68827312
_cell_length_c   7.68827352
_cell_angle_alpha   110.89363961
_cell_angle_beta   111.31278085
_cell_angle_gamma   106.25463282
_symmetry_Int_Tables_number   1
_chemical_formula_structural   Sc12ZnCo4Rh
_chemical_formula_sum   'Sc12 Zn1 Co4 Rh1'
_cell_volume   349.01012606
_cell_formula_units_Z   1
loop_
 _symmetry_equiv_pos_site_id
 _symmetry_equiv_pos_as_xyz
  1  'x, y, z'
loop_
 _atom_site_type_symbol
 _atom_site_label
 _atom_site_symmetry_multiplicity
 _atom_site_fract_x
 _atom_site_fract_y
 _atom_site_fract_z
 _atom_site_occupancy
  Sc  Sc0  1  0.424801  0.228751  0.196049  1
  Sc  Sc1  1  0.575199  0.771249  0.803951  1
  Sc  Sc2  1  0.032702  0.228751  0.803951  1
  Sc  Sc3  1  0.967298  0.771249  0.196049  1
  Sc  Sc4  1  0.316269  0.616584  0.300314  1
  Sc  Sc5  1  0.683731  0.383416  0.699686  1
  Sc  Sc6  1  0.316269  0.015954  0.699686  1
  Sc  Sc7  1  0.683731  0.984046  0.300314  1
  Sc  Sc8  1  0.185952  0.280510  0.466462  1
  Sc  Sc9  1  0.814048  0.719489  0.533538  1
  Sc  Sc10  1  0.185952  0.719489  0.905441  1
  Sc  Sc11  1  0.814048  0.280510  0.094559  1
  Zn  Zn12  1  0.500000  0.500000  0.000000  1
  Co  Co13  1  0.364698  0.000000  0.364698  1
  Co  Co14  1  0.635302  0.000000  0.635302  1
  Co  Co15  1  0.118797  0.618797  0.500000  1
  Co  Co16  1  0.881203  0.381203  0.500000  1
  Rh  Rh17  1  0.000000  0.000000  0.000000  1
