# generated using pymatgen
data_Y2HoIn3HgPt2
_symmetry_space_group_name_H-M   'P 1'
_cell_length_a   7.80294190
_cell_length_b   7.80191006
_cell_length_c   3.91456200
_cell_angle_alpha   90.00000000
_cell_angle_beta   90.00000000
_cell_angle_gamma   120.14525216
_symmetry_Int_Tables_number   1
_chemical_formula_structural   Y2HoIn3HgPt2
_chemical_formula_sum   'Y2 Ho1 In3 Hg1 Pt2'
_cell_volume   206.07988322
_cell_formula_units_Z   1
loop_
 _symmetry_equiv_pos_site_id
 _symmetry_equiv_pos_as_xyz
  1  'x, y, z'
loop_
 _atom_site_type_symbol
 _atom_site_label
 _atom_site_symmetry_multiplicity
 _atom_site_fract_x
 _atom_site_fract_y
 _atom_site_fract_z
 _atom_site_occupancy
  Y  Y0  1  0.610489  0.021360  0.500000  1
  Y  Y1  1  0.411545  0.390133  0.500000  1
  Ho  Ho2  1  0.976567  0.588194  0.500000  1
  In  In3  1  0.744836  0.743695  0.000000  1
  In  In4  1  0.998648  0.254937  0.000000  1
  In  In5  1  0.255938  0.000625  0.000000  1
  Hg  Hg6  1  0.332223  0.666482  0.000000  1
  Pt  Pt7  1  0.669371  0.335486  0.000000  1
  Pt  Pt8  1  0.000383  0.999089  0.500000  1
