# generated using pymatgen
data_Sc4AlZn11
_symmetry_space_group_name_H-M   'P 1'
_cell_length_a   4.23321000
_cell_length_b   6.51242209
_cell_length_c   9.78136861
_cell_angle_alpha   89.96025947
_cell_angle_beta   90.00000000
_cell_angle_gamma   90.00000000
_symmetry_Int_Tables_number   1
_chemical_formula_structural   Sc4AlZn11
_chemical_formula_sum   'Sc4 Al1 Zn11'
_cell_volume   269.65710977
_cell_formula_units_Z   1
loop_
 _symmetry_equiv_pos_site_id
 _symmetry_equiv_pos_as_xyz
  1  'x, y, z'
loop_
 _atom_site_type_symbol
 _atom_site_label
 _atom_site_symmetry_multiplicity
 _atom_site_fract_x
 _atom_site_fract_y
 _atom_site_fract_z
 _atom_site_occupancy
  Sc  Sc0  1  0.250000  0.279644  0.664733  1
  Sc  Sc1  1  0.250000  0.780208  0.831248  1
  Sc  Sc2  1  0.750000  0.718900  0.333445  1
  Sc  Sc3  1  0.750000  0.218497  0.168011  1
  Al  Al4  1  0.250000  0.538844  0.102302  1
  Zn  Zn5  1  0.250000  0.037577  0.398844  1
  Zn  Zn6  1  0.750000  0.462035  0.898677  1
  Zn  Zn7  1  0.750000  0.961931  0.600846  1
  Zn  Zn8  1  0.250000  0.929349  0.150964  1
  Zn  Zn9  1  0.250000  0.425541  0.352068  1
  Zn  Zn10  1  0.750000  0.074636  0.848389  1
  Zn  Zn11  1  0.750000  0.574534  0.651023  1
  Zn  Zn12  1  0.250000  0.210844  0.956973  1
  Zn  Zn13  1  0.250000  0.712543  0.542154  1
  Zn  Zn14  1  0.750000  0.788305  0.041755  1
  Zn  Zn15  1  0.750000  0.286611  0.458569  1
