# generated using pymatgen
data_DyEr(Al7Cu3)2
_symmetry_space_group_name_H-M   'P 1'
_cell_length_a   8.18535478
_cell_length_b   8.18535444
_cell_length_c   8.18535530
_cell_angle_alpha   56.85411773
_cell_angle_beta   56.85411721
_cell_angle_gamma   56.85411720
_symmetry_Int_Tables_number   1
_chemical_formula_structural   DyEr(Al7Cu3)2
_chemical_formula_sum   'Dy1 Er1 Al14 Cu6'
_cell_volume   359.64153020
_cell_formula_units_Z   1
loop_
 _symmetry_equiv_pos_site_id
 _symmetry_equiv_pos_as_xyz
  1  'x, y, z'
loop_
 _atom_site_type_symbol
 _atom_site_label
 _atom_site_symmetry_multiplicity
 _atom_site_fract_x
 _atom_site_fract_y
 _atom_site_fract_z
 _atom_site_occupancy
  Dy  Dy0  1  0.500000  0.500000  0.500000  1
  Er  Er1  1  0.000000  0.000000  0.000000  1
  Al  Al2  1  0.422467  0.648509  0.839316  1
  Al  Al3  1  0.839316  0.422467  0.648509  1
  Al  Al4  1  0.648509  0.839316  0.422467  1
  Al  Al5  1  0.077430  0.660770  0.851583  1
  Al  Al6  1  0.851583  0.077430  0.660770  1
  Al  Al7  1  0.660770  0.851583  0.077430  1
  Al  Al8  1  0.577533  0.351491  0.160684  1
  Al  Al9  1  0.160684  0.577533  0.351491  1
  Al  Al10  1  0.249996  0.249996  0.249996  1
  Al  Al11  1  0.750004  0.750004  0.750004  1
  Al  Al12  1  0.339230  0.148417  0.922570  1
  Al  Al13  1  0.148417  0.922570  0.339230  1
  Al  Al14  1  0.922570  0.339230  0.148417  1
  Al  Al15  1  0.351491  0.160684  0.577533  1
  Cu  Cu16  1  0.750061  0.074944  0.424937  1
  Cu  Cu17  1  0.424937  0.750061  0.074944  1
  Cu  Cu18  1  0.074944  0.424937  0.750061  1
  Cu  Cu19  1  0.249939  0.925056  0.575063  1
  Cu  Cu20  1  0.575063  0.249939  0.925056  1
  Cu  Cu21  1  0.925056  0.575063  0.249939  1
