# generated using pymatgen
data_Nd19Er(IrPt)6
_symmetry_space_group_name_H-M   'P 1'
_cell_length_a   11.39534352
_cell_length_b   11.39500601
_cell_length_c   6.48895812
_cell_angle_alpha   89.97974066
_cell_angle_beta   90.10245727
_cell_angle_gamma   90.04391518
_symmetry_Int_Tables_number   1
_chemical_formula_structural   Nd19Er(IrPt)6
_chemical_formula_sum   'Nd19 Er1 Ir6 Pt6'
_cell_volume   842.58961685
_cell_formula_units_Z   1
loop_
 _symmetry_equiv_pos_site_id
 _symmetry_equiv_pos_as_xyz
  1  'x, y, z'
loop_
 _atom_site_type_symbol
 _atom_site_label
 _atom_site_symmetry_multiplicity
 _atom_site_fract_x
 _atom_site_fract_y
 _atom_site_fract_z
 _atom_site_occupancy
  Nd  Nd0  1  0.295256  0.091910  0.374451  1
  Nd  Nd1  1  0.295294  0.908386  0.874669  1
  Nd  Nd2  1  0.704204  0.088303  0.874313  1
  Nd  Nd3  1  0.704529  0.911613  0.373700  1
  Nd  Nd4  1  0.585577  0.791380  0.874380  1
  Nd  Nd5  1  0.585181  0.209650  0.375371  1
  Nd  Nd6  1  0.409608  0.791122  0.381360  1
  Nd  Nd7  1  0.409360  0.207730  0.880217  1
  Nd  Nd8  1  0.211501  0.412989  0.620093  1
  Nd  Nd9  1  0.210267  0.587212  0.121023  1
  Nd  Nd10  1  0.794333  0.410879  0.124217  1
  Nd  Nd11  1  0.793448  0.588723  0.623051  1
  Nd  Nd12  1  0.912792  0.704903  0.125172  1
  Nd  Nd13  1  0.912608  0.294889  0.625726  1
  Nd  Nd14  1  0.093023  0.704357  0.626337  1
  Nd  Nd15  1  0.092882  0.295692  0.125919  1
  Nd  Nd16  1  0.999803  0.999031  0.499883  1
  Nd  Nd17  1  0.999998  0.000852  0.000155  1
  Nd  Nd18  1  0.496823  0.499124  0.000066  1
  Er  Er19  1  0.496530  0.501029  0.500215  1
  Ir  Ir20  1  0.349623  0.349110  0.254582  1
  Ir  Ir21  1  0.349722  0.650934  0.744943  1
  Ir  Ir22  1  0.500325  0.999124  0.116843  1
  Ir  Ir23  1  0.500267  0.000703  0.616641  1
  Ir  Ir24  1  0.998842  0.500083  0.883178  1
  Ir  Ir25  1  0.998960  0.499954  0.383352  1
  Pt  Pt26  1  0.844930  0.154311  0.250389  1
  Pt  Pt27  1  0.844847  0.845847  0.750118  1
  Pt  Pt28  1  0.153579  0.154339  0.749661  1
  Pt  Pt29  1  0.153515  0.845515  0.249523  1
  Pt  Pt30  1  0.651360  0.349408  0.744509  1
  Pt  Pt31  1  0.651014  0.650898  0.255944  1
