# generated using pymatgen
data_Zr16Co4ReOs3
_symmetry_space_group_name_H-M   'P 1'
_cell_length_a   8.70679110
_cell_length_b   8.70679074
_cell_length_c   8.70586900
_cell_angle_alpha   59.99650740
_cell_angle_beta   59.99650877
_cell_angle_gamma   60.00000490
_symmetry_Int_Tables_number   1
_chemical_formula_structural   Zr16Co4ReOs3
_chemical_formula_sum   'Zr16 Co4 Re1 Os3'
_cell_volume   466.64912269
_cell_formula_units_Z   1
loop_
 _symmetry_equiv_pos_site_id
 _symmetry_equiv_pos_as_xyz
  1  'x, y, z'
loop_
 _atom_site_type_symbol
 _atom_site_label
 _atom_site_symmetry_multiplicity
 _atom_site_fract_x
 _atom_site_fract_y
 _atom_site_fract_z
 _atom_site_occupancy
  Zr  Zr0  1  0.199300  0.600574  0.599552  1
  Zr  Zr1  1  0.600574  0.199300  0.599552  1
  Zr  Zr2  1  0.600574  0.600574  0.599552  1
  Zr  Zr3  1  0.601208  0.601208  0.196376  1
  Zr  Zr4  1  0.454399  0.454399  0.045686  1
  Zr  Zr5  1  0.047206  0.047206  0.452995  1
  Zr  Zr6  1  0.454399  0.045516  0.045686  1
  Zr  Zr7  1  0.047206  0.452594  0.452995  1
  Zr  Zr8  1  0.045516  0.454399  0.045686  1
  Zr  Zr9  1  0.452594  0.047206  0.452995  1
  Zr  Zr10  1  0.814679  0.814679  0.187294  1
  Zr  Zr11  1  0.185312  0.185312  0.815128  1
  Zr  Zr12  1  0.814679  0.183349  0.187294  1
  Zr  Zr13  1  0.185312  0.814245  0.815128  1
  Zr  Zr14  1  0.183349  0.814679  0.187294  1
  Zr  Zr15  1  0.814245  0.185312  0.815128  1
  Co  Co16  1  0.830552  0.390293  0.388862  1
  Co  Co17  1  0.390293  0.830552  0.388862  1
  Co  Co18  1  0.390293  0.390293  0.388862  1
  Co  Co19  1  0.389586  0.389586  0.831243  1
  Re  Re20  1  0.830220  0.830220  0.509340  1
  Os  Os21  1  0.503763  0.832370  0.831499  1
  Os  Os22  1  0.832370  0.503763  0.831499  1
  Os  Os23  1  0.832370  0.832370  0.831499  1
