# generated using pymatgen
data_Hf17Zr(Mo4Pt)2
_symmetry_space_group_name_H-M   'P 1'
_cell_length_a   8.77904811
_cell_length_b   8.77904705
_cell_length_c   8.53420200
_cell_angle_alpha   90.00000000
_cell_angle_beta   90.00000000
_cell_angle_gamma   119.92053999
_symmetry_Int_Tables_number   1
_chemical_formula_structural   Hf17Zr(Mo4Pt)2
_chemical_formula_sum   'Hf17 Zr1 Mo8 Pt2'
_cell_volume   570.07964547
_cell_formula_units_Z   1
loop_
 _symmetry_equiv_pos_site_id
 _symmetry_equiv_pos_as_xyz
  1  'x, y, z'
loop_
 _atom_site_type_symbol
 _atom_site_label
 _atom_site_symmetry_multiplicity
 _atom_site_fract_x
 _atom_site_fract_y
 _atom_site_fract_z
 _atom_site_occupancy
  Hf  Hf0  1  0.196194  0.803806  0.447200  1
  Hf  Hf1  1  0.195465  0.392273  0.447562  1
  Hf  Hf2  1  0.607727  0.804535  0.447562  1
  Hf  Hf3  1  0.803787  0.196213  0.552831  1
  Hf  Hf4  1  0.804400  0.608087  0.553487  1
  Hf  Hf5  1  0.391913  0.195600  0.553487  1
  Hf  Hf6  1  0.803787  0.196213  0.947169  1
  Hf  Hf7  1  0.804400  0.608087  0.946513  1
  Hf  Hf8  1  0.391913  0.195600  0.946513  1
  Hf  Hf9  1  0.196194  0.803806  0.052800  1
  Hf  Hf10  1  0.195465  0.392273  0.052438  1
  Hf  Hf11  1  0.607727  0.804535  0.052438  1
  Hf  Hf12  1  0.543305  0.085506  0.250000  1
  Hf  Hf13  1  0.914494  0.456695  0.250000  1
  Hf  Hf14  1  0.456911  0.543089  0.750000  1
  Hf  Hf15  1  0.456893  0.913735  0.750000  1
  Hf  Hf16  1  0.086265  0.543107  0.750000  1
  Zr  Zr17  1  0.543539  0.456461  0.250000  1
  Mo  Mo18  1  0.888432  0.111568  0.250000  1
  Mo  Mo19  1  0.889349  0.777885  0.250000  1
  Mo  Mo20  1  0.222115  0.110651  0.250000  1
  Mo  Mo21  1  0.111433  0.888567  0.750000  1
  Mo  Mo22  1  0.111189  0.222759  0.750000  1
  Mo  Mo23  1  0.777241  0.888811  0.750000  1
  Mo  Mo24  1  0.000046  0.999954  0.500069  1
  Mo  Mo25  1  0.000046  0.999954  0.999931  1
  Pt  Pt26  1  0.333168  0.666832  0.250000  1
  Pt  Pt27  1  0.666599  0.333401  0.750000  1
