# generated using pymatgen
data_Hf4FeCo5Ir2
_symmetry_space_group_name_H-M   'P 1'
_cell_length_a   4.92482200
_cell_length_b   4.88301991
_cell_length_c   8.30881900
_cell_angle_alpha   90.00000000
_cell_angle_beta   90.00000000
_cell_angle_gamma   120.28359217
_symmetry_Int_Tables_number   1
_chemical_formula_structural   Hf4FeCo5Ir2
_chemical_formula_sum   'Hf4 Fe1 Co5 Ir2'
_cell_volume   172.54436860
_cell_formula_units_Z   1
loop_
 _symmetry_equiv_pos_site_id
 _symmetry_equiv_pos_as_xyz
  1  'x, y, z'
loop_
 _atom_site_type_symbol
 _atom_site_label
 _atom_site_symmetry_multiplicity
 _atom_site_fract_x
 _atom_site_fract_y
 _atom_site_fract_z
 _atom_site_occupancy
  Hf  Hf0  1  0.666590  0.333180  0.928273  1
  Hf  Hf1  1  0.332491  0.664982  0.069121  1
  Hf  Hf2  1  0.332491  0.664982  0.430879  1
  Hf  Hf3  1  0.666590  0.333180  0.571727  1
  Fe  Fe4  1  0.828625  0.657248  0.250000  1
  Co  Co5  1  0.170938  0.829539  0.750000  1
  Co  Co6  1  0.831485  0.173952  0.250000  1
  Co  Co7  1  0.658600  0.829539  0.750000  1
  Co  Co8  1  0.342468  0.173952  0.250000  1
  Co  Co9  1  0.171866  0.343734  0.750000  1
  Ir  Ir10  1  0.998927  0.997855  0.998481  1
  Ir  Ir11  1  0.998927  0.997855  0.501519  1
