# generated using pymatgen
data_Zr10CdInBi5Pb
_symmetry_space_group_name_H-M   'P 1'
_cell_length_a   8.98971216
_cell_length_b   8.97934018
_cell_length_c   6.01014944
_cell_angle_alpha   89.95616470
_cell_angle_beta   90.02189369
_cell_angle_gamma   119.96184551
_symmetry_Int_Tables_number   1
_chemical_formula_structural   Zr10CdInBi5Pb
_chemical_formula_sum   'Zr10 Cd1 In1 Bi5 Pb1'
_cell_volume   420.31300844
_cell_formula_units_Z   1
loop_
 _symmetry_equiv_pos_site_id
 _symmetry_equiv_pos_as_xyz
  1  'x, y, z'
loop_
 _atom_site_type_symbol
 _atom_site_label
 _atom_site_symmetry_multiplicity
 _atom_site_fract_x
 _atom_site_fract_y
 _atom_site_fract_z
 _atom_site_occupancy
  Zr  Zr0  1  0.667767  0.333799  0.000722  1
  Zr  Zr1  1  0.332233  0.666033  0.000722  1
  Zr  Zr2  1  0.332482  0.666218  0.499263  1
  Zr  Zr3  1  0.667518  0.333734  0.499263  1
  Zr  Zr4  1  0.719228  0.719418  0.750624  1
  Zr  Zr5  1  0.280772  0.000190  0.750624  1
  Zr  Zr6  1  0.000000  0.280926  0.750631  1
  Zr  Zr7  1  0.280895  0.281194  0.249585  1
  Zr  Zr8  1  0.719105  0.000299  0.249585  1
  Zr  Zr9  1  0.000000  0.719038  0.249044  1
  Cd  Cd10  1  0.000000  0.000475  0.499984  1
  In  In11  1  0.000000  0.000394  0.999838  1
  Bi  Bi12  1  0.381272  0.381977  0.749211  1
  Bi  Bi13  1  0.618728  0.000705  0.749211  1
  Bi  Bi14  1  0.000000  0.618094  0.749187  1
  Bi  Bi15  1  0.618482  0.618160  0.250761  1
  Bi  Bi16  1  0.381518  0.999678  0.250761  1
  Pb  Pb17  1  0.000000  0.379669  0.250986  1
