# generated using pymatgen
data_TbY5(Si3Os2)2
_symmetry_space_group_name_H-M   'P 1'
_cell_length_a   5.77791798
_cell_length_b   5.77791803
_cell_length_c   13.72048876
_cell_angle_alpha   89.96449072
_cell_angle_beta   90.03550970
_cell_angle_gamma   137.42458513
_symmetry_Int_Tables_number   1
_chemical_formula_structural   TbY5(Si3Os2)2
_chemical_formula_sum   'Tb1 Y5 Si6 Os4'
_cell_volume   309.89786735
_cell_formula_units_Z   1
loop_
 _symmetry_equiv_pos_site_id
 _symmetry_equiv_pos_as_xyz
  1  'x, y, z'
loop_
 _atom_site_type_symbol
 _atom_site_label
 _atom_site_symmetry_multiplicity
 _atom_site_fract_x
 _atom_site_fract_y
 _atom_site_fract_z
 _atom_site_occupancy
  Tb  Tb0  1  0.924441  0.075559  0.115681  1
  Y  Y1  1  0.640667  0.359333  0.249998  1
  Y  Y2  1  0.359375  0.640625  0.749983  1
  Y  Y3  1  0.075644  0.924356  0.884284  1
  Y  Y4  1  0.075620  0.924380  0.615676  1
  Y  Y5  1  0.924354  0.075646  0.384327  1
  Si  Si6  1  0.324240  0.675760  0.250089  1
  Si  Si7  1  0.675592  0.324408  0.750005  1
  Si  Si8  1  0.618238  0.381762  0.038026  1
  Si  Si9  1  0.381710  0.618290  0.961996  1
  Si  Si10  1  0.381787  0.618213  0.537971  1
  Si  Si11  1  0.618230  0.381770  0.462048  1
  Os  Os12  1  0.786137  0.213863  0.581957  1
  Os  Os13  1  0.213773  0.786227  0.418067  1
  Os  Os14  1  0.214017  0.785983  0.081875  1
  Os  Os15  1  0.786174  0.213826  0.918018  1
