# generated using pymatgen
data_Sr4Sc7AsSe16
_symmetry_space_group_name_H-M   'P 1'
_cell_length_a   3.98010600
_cell_length_b   12.29646893
_cell_length_c   14.39184388
_cell_angle_alpha   90.09981571
_cell_angle_beta   90.00000000
_cell_angle_gamma   90.00000000
_symmetry_Int_Tables_number   1
_chemical_formula_structural   Sr4Sc7AsSe16
_chemical_formula_sum   'Sr4 Sc7 As1 Se16'
_cell_volume   704.35375723
_cell_formula_units_Z   1
loop_
 _symmetry_equiv_pos_site_id
 _symmetry_equiv_pos_as_xyz
  1  'x, y, z'
loop_
 _atom_site_type_symbol
 _atom_site_label
 _atom_site_symmetry_multiplicity
 _atom_site_fract_x
 _atom_site_fract_y
 _atom_site_fract_z
 _atom_site_occupancy
  Sr  Sr0  1  0.250000  0.759678  0.328847  1
  Sr  Sr1  1  0.250000  0.262819  0.169208  1
  Sr  Sr2  1  0.750000  0.239554  0.669807  1
  Sr  Sr3  1  0.750000  0.737009  0.830985  1
  Sc  Sc4  1  0.250000  0.441192  0.389217  1
  Sc  Sc5  1  0.250000  0.941218  0.109150  1
  Sc  Sc6  1  0.750000  0.557380  0.609011  1
  Sc  Sc7  1  0.750000  0.057766  0.890766  1
  Sc  Sc8  1  0.250000  0.419161  0.903214  1
  Sc  Sc9  1  0.250000  0.919051  0.599804  1
  Sc  Sc10  1  0.750000  0.580801  0.096828  1
  As  As11  1  0.750000  0.075102  0.403525  1
  Se  Se12  1  0.250000  0.202818  0.841394  1
  Se  Se13  1  0.250000  0.703456  0.658788  1
  Se  Se14  1  0.750000  0.797374  0.158999  1
  Se  Se15  1  0.750000  0.302001  0.337202  1
  Se  Se16  1  0.250000  0.119462  0.531591  1
  Se  Se17  1  0.250000  0.624347  0.971510  1
  Se  Se18  1  0.750000  0.879581  0.468529  1
  Se  Se19  1  0.750000  0.375650  0.028101  1
  Se  Se20  1  0.250000  0.030092  0.285946  1
  Se  Se21  1  0.250000  0.531051  0.214611  1
  Se  Se22  1  0.750000  0.970680  0.716573  1
  Se  Se23  1  0.750000  0.470904  0.784753  1
  Se  Se24  1  0.250000  0.411474  0.574399  1
  Se  Se25  1  0.250000  0.911099  0.925311  1
  Se  Se26  1  0.750000  0.591358  0.425728  1
  Se  Se27  1  0.750000  0.087923  0.076202  1
