# generated using pymatgen
data_NdDy3(OsO4)4
_symmetry_space_group_name_H-M   'P 1'
_cell_length_a   5.40409183
_cell_length_b   7.46969693
_cell_length_c   7.70781700
_cell_angle_alpha   79.65705337
_cell_angle_beta   93.83680392
_cell_angle_gamma   91.00583765
_symmetry_Int_Tables_number   1
_chemical_formula_structural   NdDy3(OsO4)4
_chemical_formula_sum   'Nd1 Dy3 Os4 O16'
_cell_volume   305.39418913
_cell_formula_units_Z   1
loop_
 _symmetry_equiv_pos_site_id
 _symmetry_equiv_pos_as_xyz
  1  'x, y, z'
loop_
 _atom_site_type_symbol
 _atom_site_label
 _atom_site_symmetry_multiplicity
 _atom_site_fract_x
 _atom_site_fract_y
 _atom_site_fract_z
 _atom_site_occupancy
  Nd  Nd0  1  0.741614  0.891078  0.373293  1
  Dy  Dy1  1  0.265775  0.110411  0.618353  1
  Dy  Dy2  1  0.811124  0.398226  0.330364  1
  Dy  Dy3  1  0.197455  0.602113  0.673865  1
  Os  Os4  1  0.756652  0.291800  0.836677  1
  Os  Os5  1  0.243605  0.703036  0.161166  1
  Os  Os6  1  0.286163  0.202125  0.162835  1
  Os  Os7  1  0.715652  0.797088  0.835392  1
  O  O8  1  0.935419  0.796340  0.040522  1
  O  O9  1  0.056298  0.211535  0.966805  1
  O  O10  1  0.365970  0.948248  0.174214  1
  O  O11  1  0.620703  0.049471  0.827862  1
  O  O12  1  0.151116  0.448336  0.166410  1
  O  O13  1  0.839852  0.553729  0.823288  1
  O  O14  1  0.596746  0.297148  0.061470  1
  O  O15  1  0.402585  0.703234  0.937631  1
  O  O16  1  0.949117  0.321693  0.615538  1
  O  O17  1  0.059466  0.665376  0.389847  1
  O  O18  1  0.505831  0.185687  0.388177  1
  O  O19  1  0.487761  0.824039  0.610178  1
  O  O20  1  0.547328  0.623637  0.294169  1
  O  O21  1  0.450534  0.367660  0.702930  1
  O  O22  1  0.032331  0.127608  0.340367  1
  O  O23  1  0.980903  0.880382  0.668647  1
