# generated using pymatgen
data_Nd13Th3Mg3CdIr4
_symmetry_space_group_name_H-M   'P 1'
_cell_length_a   10.03564411
_cell_length_b   10.05646151
_cell_length_c   10.05646100
_cell_angle_alpha   60.00000498
_cell_angle_beta   59.93136242
_cell_angle_gamma   59.93136536
_symmetry_Int_Tables_number   1
_chemical_formula_structural   Nd13Th3Mg3CdIr4
_chemical_formula_sum   'Nd13 Th3 Mg3 Cd1 Ir4'
_cell_volume   716.91770853
_cell_formula_units_Z   1
loop_
 _symmetry_equiv_pos_site_id
 _symmetry_equiv_pos_as_xyz
  1  'x, y, z'
loop_
 _atom_site_type_symbol
 _atom_site_label
 _atom_site_symmetry_multiplicity
 _atom_site_fract_x
 _atom_site_fract_y
 _atom_site_fract_z
 _atom_site_occupancy
  Nd  Nd0  1  0.958832  0.347056  0.347056  1
  Nd  Nd1  1  0.810445  0.189968  0.189968  1
  Nd  Nd2  1  0.191017  0.809656  0.809656  1
  Nd  Nd3  1  0.191017  0.809656  0.189670  1
  Nd  Nd4  1  0.810445  0.189968  0.809621  1
  Nd  Nd5  1  0.191017  0.189670  0.809656  1
  Nd  Nd6  1  0.810445  0.809621  0.189968  1
  Nd  Nd7  1  0.938814  0.563315  0.563315  1
  Nd  Nd8  1  0.562945  0.936738  0.936738  1
  Nd  Nd9  1  0.562945  0.936738  0.563579  1
  Nd  Nd10  1  0.938814  0.563315  0.934557  1
  Nd  Nd11  1  0.562945  0.563579  0.936738  1
  Nd  Nd12  1  0.938814  0.934557  0.563315  1
  Th  Th13  1  0.342853  0.344997  0.344997  1
  Th  Th14  1  0.342853  0.344997  0.967154  1
  Th  Th15  1  0.342853  0.967154  0.344997  1
  Mg  Mg16  1  0.576190  0.579457  0.579457  1
  Mg  Mg17  1  0.576190  0.579457  0.264894  1
  Mg  Mg18  1  0.576190  0.264894  0.579457  1
  Cd  Cd19  1  0.259045  0.580318  0.580318  1
  Ir  Ir20  1  0.150095  0.140704  0.140704  1
  Ir  Ir21  1  0.150095  0.140704  0.568496  1
  Ir  Ir22  1  0.150095  0.568496  0.140704  1
  Ir  Ir23  1  0.565043  0.144985  0.144985  1
