# generated using pymatgen
data_Ac2La18Si15Cl
_symmetry_space_group_name_H-M   'P 1'
_cell_length_a   8.01737287
_cell_length_b   8.05787253
_cell_length_c   15.52388200
_cell_angle_alpha   88.84918218
_cell_angle_beta   85.27299209
_cell_angle_gamma   89.97000245
_symmetry_Int_Tables_number   1
_chemical_formula_structural   Ac2La18Si15Cl
_chemical_formula_sum   'Ac2 La18 Si15 Cl1'
_cell_volume   999.27544148
_cell_formula_units_Z   1
loop_
 _symmetry_equiv_pos_site_id
 _symmetry_equiv_pos_as_xyz
  1  'x, y, z'
loop_
 _atom_site_type_symbol
 _atom_site_label
 _atom_site_symmetry_multiplicity
 _atom_site_fract_x
 _atom_site_fract_y
 _atom_site_fract_z
 _atom_site_occupancy
  Ac  Ac0  1  0.662658  0.006111  0.746154  1
  Ac  Ac1  1  0.532395  0.309936  0.102445  1
  La  La2  1  0.159908  0.516906  0.746772  1
  La  La3  1  0.856093  0.351195  0.612627  1
  La  La4  1  0.461636  0.692361  0.894959  1
  La  La5  1  0.962716  0.813445  0.896196  1
  La  La6  1  0.183231  0.674529  0.121868  1
  La  La7  1  0.683243  0.814642  0.121784  1
  La  La8  1  0.316782  0.184831  0.881477  1
  La  La9  1  0.143570  0.658247  0.385437  1
  La  La10  1  0.038323  0.184804  0.107229  1
  La  La11  1  0.360384  0.173500  0.614025  1
  La  La12  1  0.837399  0.488082  0.238352  1
  La  La13  1  0.337765  0.997039  0.255411  1
  La  La14  1  0.494258  0.301857  0.397187  1
  La  La15  1  0.818846  0.322960  0.880009  1
  La  La16  1  0.010458  0.841501  0.606752  1
  La  La17  1  0.483646  0.703033  0.610424  1
  La  La18  1  0.001124  0.163455  0.395014  1
  La  La19  1  0.639286  0.825119  0.387430  1
  Si  Si20  1  0.453411  0.597021  0.256568  1
  Si  Si21  1  0.226611  0.372211  0.252942  1
  Si  Si22  1  0.545508  0.410132  0.751121  1
  Si  Si23  1  0.632001  0.021283  0.958626  1
  Si  Si24  1  0.048134  0.117472  0.750759  1
  Si  Si25  1  0.769589  0.622751  0.750808  1
  Si  Si26  1  0.729377  0.109764  0.253413  1
  Si  Si27  1  0.295790  0.962682  0.456004  1
  Si  Si28  1  0.953881  0.890224  0.253127  1
  Si  Si29  1  0.367082  0.967819  0.041973  1
  Si  Si30  1  0.716367  0.038864  0.538733  1
  Si  Si31  1  0.134705  0.477039  0.957579  1
  Si  Si32  1  0.208333  0.479482  0.548254  1
  Si  Si33  1  0.873104  0.525109  0.040970  1
  Si  Si34  1  0.264685  0.888430  0.754012  1
  Cl  Cl35  1  0.797702  0.496166  0.433556  1
