# generated using pymatgen
data_Tb6Mn5AsO18
_symmetry_space_group_name_H-M   'P 1'
_cell_length_a   6.27462841
_cell_length_b   6.26770998
_cell_length_c   11.71809024
_cell_angle_alpha   89.59093112
_cell_angle_beta   90.81725645
_cell_angle_gamma   120.03651024
_symmetry_Int_Tables_number   1
_chemical_formula_structural   Tb6Mn5AsO18
_chemical_formula_sum   'Tb6 Mn5 As1 O18'
_cell_volume   398.91493606
_cell_formula_units_Z   1
loop_
 _symmetry_equiv_pos_site_id
 _symmetry_equiv_pos_as_xyz
  1  'x, y, z'
loop_
 _atom_site_type_symbol
 _atom_site_label
 _atom_site_symmetry_multiplicity
 _atom_site_fract_x
 _atom_site_fract_y
 _atom_site_fract_z
 _atom_site_occupancy
  Tb  Tb0  1  0.990666  0.000000  0.283171  1
  Tb  Tb1  1  0.000270  0.000000  0.777534  1
  Tb  Tb2  1  0.330216  0.663375  0.245793  1
  Tb  Tb3  1  0.677378  0.340911  0.735978  1
  Tb  Tb4  1  0.336466  0.659089  0.735978  1
  Tb  Tb5  1  0.666843  0.336625  0.245793  1
  Mn  Mn6  1  0.332700  0.328550  0.507808  1
  Mn  Mn7  1  0.004150  0.671450  0.507808  1
  Mn  Mn8  1  0.998850  0.334831  0.006256  1
  Mn  Mn9  1  0.664020  0.665169  0.006256  1
  Mn  Mn10  1  0.663783  0.000000  0.508476  1
  As  As11  1  0.334133  0.000000  0.008916  1
  O  O12  1  0.298477  0.000000  0.168657  1
  O  O13  1  0.309116  0.300919  0.670117  1
  O  O14  1  0.008197  0.699081  0.670117  1
  O  O15  1  0.997526  0.315633  0.178112  1
  O  O16  1  0.681893  0.684367  0.178112  1
  O  O17  1  0.688932  0.000000  0.670360  1
  O  O18  1  0.635630  0.000000  0.345926  1
  O  O19  1  0.650195  0.646900  0.835362  1
  O  O20  1  0.003296  0.353100  0.835362  1
  O  O21  1  0.003250  0.647258  0.346096  1
  O  O22  1  0.355992  0.352742  0.346096  1
  O  O23  1  0.368555  0.000000  0.851452  1
  O  O24  1  0.996207  0.000000  0.483694  1
  O  O25  1  0.050669  0.000000  0.984299  1
  O  O26  1  0.332981  0.715441  0.027653  1
  O  O27  1  0.669439  0.336808  0.527589  1
  O  O28  1  0.332631  0.663192  0.527589  1
  O  O29  1  0.617540  0.284559  0.027653  1
