# generated using pymatgen
data_Y3ScAl2Pd3
_symmetry_space_group_name_H-M   'P 1'
_cell_length_a   7.17760972
_cell_length_b   7.23648898
_cell_length_c   4.23391000
_cell_angle_alpha   90.00000000
_cell_angle_beta   90.00000000
_cell_angle_gamma   120.27173239
_symmetry_Int_Tables_number   1
_chemical_formula_structural   Y3ScAl2Pd3
_chemical_formula_sum   'Y3 Sc1 Al2 Pd3'
_cell_volume   189.92595061
_cell_formula_units_Z   1
loop_
 _symmetry_equiv_pos_site_id
 _symmetry_equiv_pos_as_xyz
  1  'x, y, z'
loop_
 _atom_site_type_symbol
 _atom_site_label
 _atom_site_symmetry_multiplicity
 _atom_site_fract_x
 _atom_site_fract_y
 _atom_site_fract_z
 _atom_site_occupancy
  Y  Y0  1  0.430327  0.417695  0.500000  1
  Y  Y1  1  0.569673  0.987368  0.500000  1
  Y  Y2  1  0.000000  0.605171  0.500000  1
  Sc  Sc3  1  0.000000  0.236370  0.000000  1
  Al  Al4  1  0.759251  0.756803  0.000000  1
  Al  Al5  1  0.240749  0.997552  0.000000  1
  Pd  Pd6  1  0.663073  0.333468  0.000000  1
  Pd  Pd7  1  0.000000  0.995176  0.500000  1
  Pd  Pd8  1  0.336927  0.670396  0.000000  1
