# generated using pymatgen
data_RbNaCO3
_symmetry_space_group_name_H-M   'P 1'
_cell_length_a   6.34854594
_cell_length_b   6.27670249
_cell_length_c   10.65288121
_cell_angle_alpha   107.09201599
_cell_angle_beta   107.27620281
_cell_angle_gamma   90.03717614
_symmetry_Int_Tables_number   1
_chemical_formula_structural   RbNaCO3
_chemical_formula_sum   'Rb4 Na4 C4 O12'
_cell_volume   385.63916349
_cell_formula_units_Z   4
loop_
 _symmetry_equiv_pos_site_id
 _symmetry_equiv_pos_as_xyz
  1  'x, y, z'
loop_
 _atom_site_type_symbol
 _atom_site_label
 _atom_site_symmetry_multiplicity
 _atom_site_fract_x
 _atom_site_fract_y
 _atom_site_fract_z
 _atom_site_occupancy
  Rb  Rb0  1  0.424469  0.675151  0.349053  1
  Rb  Rb1  1  0.573141  0.325565  0.650676  1
  Rb  Rb2  1  0.073124  0.824971  0.650625  1
  Rb  Rb3  1  0.924676  0.175585  0.349117  1
  Na  Na4  1  0.387881  0.747733  0.999556  1
  Na  Na5  1  0.110234  0.247672  0.000161  1
  Na  Na6  1  0.609910  0.248156  0.999403  1
  Na  Na7  1  0.888362  0.748294  0.000201  1
  C  C8  1  0.861756  0.613387  0.224294  1
  C  C9  1  0.135787  0.386693  0.775336  1
  C  C10  1  0.361869  0.113213  0.224293  1
  C  C11  1  0.636063  0.887445  0.775256  1
  O  O12  1  0.569379  0.820961  0.641967  1
  O  O13  1  0.701915  0.706767  0.155674  1
  O  O14  1  0.454141  0.208037  0.156624  1
  O  O15  1  0.951153  0.451992  0.153448  1
  O  O16  1  0.069472  0.318571  0.642051  1
  O  O17  1  0.546076  0.795032  0.845027  1
  O  O18  1  0.426340  0.176625  0.357596  1
  O  O19  1  0.045426  0.549081  0.844293  1
  O  O20  1  0.295543  0.295425  0.845652  1
  O  O21  1  0.795503  0.049562  0.844809  1
  O  O22  1  0.929481  0.678582  0.357567  1
  O  O23  1  0.201760  0.952132  0.152568  1
