# generated using pymatgen
data_Rb2NbAgTe4
_symmetry_space_group_name_H-M   'P 1'
_cell_length_a   15.32752363
_cell_length_b   13.69251422
_cell_length_c   8.24958836
_cell_angle_alpha   84.76627986
_cell_angle_beta   62.82354463
_cell_angle_gamma   32.41016761
_symmetry_Int_Tables_number   1
_chemical_formula_structural   Rb2NbAgTe4
_chemical_formula_sum   'Rb4 Nb2 Ag2 Te8'
_cell_volume   649.41327545
_cell_formula_units_Z   2
loop_
 _symmetry_equiv_pos_site_id
 _symmetry_equiv_pos_as_xyz
  1  'x, y, z'
loop_
 _atom_site_type_symbol
 _atom_site_label
 _atom_site_symmetry_multiplicity
 _atom_site_fract_x
 _atom_site_fract_y
 _atom_site_fract_z
 _atom_site_occupancy
  Rb  Rb0  1  0.319292  0.319292  0.680708  1
  Rb  Rb1  1  0.930708  0.930708  0.569292  1
  Rb  Rb2  1  0.680708  0.680708  0.319292  1
  Rb  Rb3  1  0.569292  0.569292  0.930708  1
  Nb  Nb4  1  0.750000  0.750000  0.750000  1
  Nb  Nb5  1  0.500000  0.500000  0.500000  1
  Ag  Ag6  1  0.250000  0.250000  0.250000  1
  Ag  Ag7  1  0.000000  0.000000  0.000000  1
  Te  Te8  1  0.360293  0.022639  0.932994  1
  Te  Te9  1  0.565926  0.317006  0.227361  1
  Te  Te10  1  0.227361  0.889707  0.565926  1
  Te  Te11  1  0.317006  0.565926  0.889707  1
  Te  Te12  1  0.684074  0.932994  0.022639  1
  Te  Te13  1  0.932994  0.684074  0.360293  1
  Te  Te14  1  0.022639  0.360293  0.684074  1
  Te  Te15  1  0.889707  0.227361  0.317006  1
