# generated using pymatgen
data_Cs2OsO5
_symmetry_space_group_name_H-M   'P 1'
_cell_length_a   6.37259533
_cell_length_b   7.14563500
_cell_length_c   8.45976672
_cell_angle_alpha   90.00000000
_cell_angle_beta   112.12577678
_cell_angle_gamma   90.00000000
_symmetry_Int_Tables_number   1
_chemical_formula_structural   Cs2OsO5
_chemical_formula_sum   'Cs4 Os2 O10'
_cell_volume   356.85765137
_cell_formula_units_Z   2
loop_
 _symmetry_equiv_pos_site_id
 _symmetry_equiv_pos_as_xyz
  1  'x, y, z'
loop_
 _atom_site_type_symbol
 _atom_site_label
 _atom_site_symmetry_multiplicity
 _atom_site_fract_x
 _atom_site_fract_y
 _atom_site_fract_z
 _atom_site_occupancy
  Cs  Cs0  1  0.541934  0.000000  0.083868  1
  Cs  Cs1  1  0.235442  0.000000  0.470888  1
  Cs  Cs2  1  0.764556  0.500000  0.529111  1
  Cs  Cs3  1  0.458065  0.500000  0.916133  1
  Os  Os4  1  0.134714  0.500000  0.269433  1
  Os  Os5  1  0.865284  0.000000  0.730568  1
  O  O6  1  0.910511  0.325166  0.214394  1
  O  O7  1  0.910511  0.674835  0.214394  1
  O  O8  1  0.303883  0.325166  0.214394  1
  O  O9  1  0.303883  0.674835  0.214394  1
  O  O10  1  0.696116  0.174834  0.785604  1
  O  O11  1  0.696116  0.825166  0.785604  1
  O  O12  1  0.089487  0.174834  0.785604  1
  O  O13  1  0.089487  0.825166  0.785604  1
  O  O14  1  0.247879  0.500000  0.495761  1
  O  O15  1  0.752119  0.000000  0.504240  1
