# generated using pymatgen
data_CaTb3(Si4Tc3)2
_symmetry_space_group_name_H-M   'P 1'
_cell_length_a   6.82567111
_cell_length_b   6.74924747
_cell_length_c   6.80806463
_cell_angle_alpha   70.13100283
_cell_angle_beta   90.00446359
_cell_angle_gamma   89.81542799
_symmetry_Int_Tables_number   1
_chemical_formula_structural   CaTb3(Si4Tc3)2
_chemical_formula_sum   'Ca1 Tb3 Si8 Tc6'
_cell_volume   294.96313323
_cell_formula_units_Z   1
loop_
 _symmetry_equiv_pos_site_id
 _symmetry_equiv_pos_as_xyz
  1  'x, y, z'
loop_
 _atom_site_type_symbol
 _atom_site_label
 _atom_site_symmetry_multiplicity
 _atom_site_fract_x
 _atom_site_fract_y
 _atom_site_fract_z
 _atom_site_occupancy
  Ca  Ca0  1  0.333183  0.555790  0.814551  1
  Tb  Tb1  1  0.832920  0.941479  0.192427  1
  Tb  Tb2  1  0.666397  0.442848  0.190222  1
  Tb  Tb3  1  0.168215  0.058344  0.807037  1
  Si  Si4  1  0.550329  0.880560  0.894749  1
  Si  Si5  1  0.051295  0.619196  0.103670  1
  Si  Si6  1  0.449409  0.120449  0.102655  1
  Si  Si7  1  0.951657  0.381484  0.894483  1
  Si  Si8  1  0.143768  0.864567  0.490444  1
  Si  Si9  1  0.638943  0.630844  0.515204  1
  Si  Si10  1  0.858547  0.132265  0.511857  1
  Si  Si11  1  0.357604  0.371704  0.488317  1
  Tc  Tc12  1  0.500533  0.002289  0.498031  1
  Tc  Tc13  1  0.996476  0.500360  0.496198  1
  Tc  Tc14  1  0.846772  0.757609  0.759623  1
  Tc  Tc15  1  0.345952  0.745151  0.238651  1
  Tc  Tc16  1  0.151849  0.239669  0.241447  1
  Tc  Tc17  1  0.656150  0.255391  0.760432  1
