# generated using pymatgen
data_RbDy2LuS5
_symmetry_space_group_name_H-M   'P 1'
_cell_length_a   3.99312200
_cell_length_b   12.02489000
_cell_length_c   21.31690100
_cell_angle_alpha   90.00000000
_cell_angle_beta   90.00000000
_cell_angle_gamma   90.00000000
_symmetry_Int_Tables_number   1
_chemical_formula_structural   RbDy2LuS5
_chemical_formula_sum   'Rb4 Dy8 Lu4 S20'
_cell_volume   1023.57049761
_cell_formula_units_Z   4
loop_
 _symmetry_equiv_pos_site_id
 _symmetry_equiv_pos_as_xyz
  1  'x, y, z'
loop_
 _atom_site_type_symbol
 _atom_site_label
 _atom_site_symmetry_multiplicity
 _atom_site_fract_x
 _atom_site_fract_y
 _atom_site_fract_z
 _atom_site_occupancy
  Rb  Rb0  1  0.250000  0.848888  0.095948  1
  Rb  Rb1  1  0.750000  0.151112  0.904052  1
  Rb  Rb2  1  0.750000  0.348888  0.404052  1
  Rb  Rb3  1  0.250000  0.651112  0.595948  1
  Dy  Dy4  1  0.750000  0.797680  0.826919  1
  Dy  Dy5  1  0.250000  0.202320  0.173081  1
  Dy  Dy6  1  0.250000  0.297680  0.673081  1
  Dy  Dy7  1  0.750000  0.702320  0.326919  1
  Dy  Dy8  1  0.250000  0.957462  0.696642  1
  Dy  Dy9  1  0.750000  0.042538  0.303358  1
  Dy  Dy10  1  0.750000  0.457462  0.803358  1
  Dy  Dy11  1  0.250000  0.542538  0.196642  1
  Lu  Lu12  1  0.750000  0.392529  0.052233  1
  Lu  Lu13  1  0.250000  0.607471  0.947767  1
  Lu  Lu14  1  0.250000  0.892529  0.447767  1
  Lu  Lu15  1  0.750000  0.107471  0.552233  1
  S  S16  1  0.250000  0.953207  0.567403  1
  S  S17  1  0.750000  0.046793  0.432597  1
  S  S18  1  0.750000  0.453207  0.932597  1
  S  S19  1  0.250000  0.546793  0.067403  1
  S  S20  1  0.750000  0.756309  0.953493  1
  S  S21  1  0.250000  0.243691  0.046507  1
  S  S22  1  0.250000  0.256309  0.546507  1
  S  S23  1  0.750000  0.743691  0.453493  1
  S  S24  1  0.250000  0.948070  0.825204  1
  S  S25  1  0.750000  0.051930  0.174796  1
  S  S26  1  0.750000  0.448070  0.674796  1
  S  S27  1  0.250000  0.551930  0.325204  1
  S  S28  1  0.750000  0.125880  0.680595  1
  S  S29  1  0.250000  0.874120  0.319405  1
  S  S30  1  0.250000  0.625880  0.819405  1
  S  S31  1  0.750000  0.374120  0.180595  1
  S  S32  1  0.750000  0.691151  0.198274  1
  S  S33  1  0.250000  0.308849  0.801726  1
  S  S34  1  0.250000  0.191151  0.301726  1
  S  S35  1  0.750000  0.808849  0.698274  1
