# generated using pymatgen
data_Ca12Hg5Rh
_symmetry_space_group_name_H-M   'P 1'
_cell_length_a   9.62131190
_cell_length_b   9.62131268
_cell_length_c   9.62131106
_cell_angle_alpha   124.60049598
_cell_angle_beta   79.72092034
_cell_angle_gamma   127.63233313
_symmetry_Int_Tables_number   1
_chemical_formula_structural   Ca12Hg5Rh
_chemical_formula_sum   'Ca12 Hg5 Rh1'
_cell_volume   560.90759381
_cell_formula_units_Z   1
loop_
 _symmetry_equiv_pos_site_id
 _symmetry_equiv_pos_as_xyz
  1  'x, y, z'
loop_
 _atom_site_type_symbol
 _atom_site_label
 _atom_site_symmetry_multiplicity
 _atom_site_fract_x
 _atom_site_fract_y
 _atom_site_fract_z
 _atom_site_occupancy
  Ca  Ca0  1  0.609410  0.609410  0.000000  1
  Ca  Ca1  1  0.754530  0.110658  0.109067  1
  Ca  Ca2  1  0.413996  0.202403  0.211594  1
  Ca  Ca3  1  0.245669  0.465262  0.219593  1
  Ca  Ca4  1  0.010535  0.704540  0.305995  1
  Ca  Ca5  1  0.001591  0.110657  0.356128  1
  Ca  Ca6  1  0.585340  0.085339  0.500000  1
  Ca  Ca7  1  0.754530  0.645464  0.643872  1
  Ca  Ca8  1  0.398544  0.704540  0.694005  1
  Ca  Ca9  1  0.245668  0.026075  0.780408  1
  Ca  Ca10  1  0.990809  0.202403  0.788406  1
  Ca  Ca11  1  0.001591  0.645464  0.890933  1
  Hg  Hg12  1  0.330997  0.739022  0.073426  1
  Hg  Hg13  1  0.665596  0.739022  0.408025  1
  Hg  Hg14  1  0.009103  0.509103  0.500000  1
  Hg  Hg15  1  0.330997  0.257570  0.591976  1
  Hg  Hg16  1  0.665596  0.257570  0.926574  1
  Rh  Rh17  1  0.987201  0.987201  0.000000  1
