# generated using pymatgen
data_Pr2YLu7(Si5Ir2)4
_symmetry_space_group_name_H-M   'P 1'
_cell_length_a   12.61923401
_cell_length_b   12.61365855
_cell_length_c   4.24612200
_cell_angle_alpha   90.00000000
_cell_angle_beta   90.00000000
_cell_angle_gamma   89.91475270
_symmetry_Int_Tables_number   1
_chemical_formula_structural   Pr2YLu7(Si5Ir2)4
_chemical_formula_sum   'Pr2 Y1 Lu7 Si20 Ir8'
_cell_volume   675.87448555
_cell_formula_units_Z   1
loop_
 _symmetry_equiv_pos_site_id
 _symmetry_equiv_pos_as_xyz
  1  'x, y, z'
loop_
 _atom_site_type_symbol
 _atom_site_label
 _atom_site_symmetry_multiplicity
 _atom_site_fract_x
 _atom_site_fract_y
 _atom_site_fract_z
 _atom_site_occupancy
  Pr  Pr0  1  0.115426  0.615331  0.500000  1
  Pr  Pr1  1  0.384334  0.115458  0.500000  1
  Y  Y2  1  0.616435  0.883556  0.500000  1
  Lu  Lu3  1  0.500892  0.500024  0.000000  1
  Lu  Lu4  1  0.999314  0.000554  0.000000  1
  Lu  Lu5  1  0.676702  0.176381  0.500000  1
  Lu  Lu6  1  0.324183  0.823805  0.500000  1
  Lu  Lu7  1  0.175325  0.324067  0.500000  1
  Lu  Lu8  1  0.823674  0.675752  0.500000  1
  Lu  Lu9  1  0.883047  0.383090  0.500000  1
  Si  Si10  1  0.567752  0.066749  0.000000  1
  Si  Si11  1  0.433398  0.932412  0.000000  1
  Si  Si12  1  0.066259  0.432760  0.000000  1
  Si  Si13  1  0.932604  0.566377  0.000000  1
  Si  Si14  1  0.663511  0.700470  0.000000  1
  Si  Si15  1  0.337267  0.299242  0.000000  1
  Si  Si16  1  0.162574  0.799264  0.000000  1
  Si  Si17  1  0.836478  0.201532  0.000000  1
  Si  Si18  1  0.299984  0.662981  0.000000  1
  Si  Si19  1  0.702257  0.336744  0.000000  1
  Si  Si20  1  0.199425  0.163368  0.000000  1
  Si  Si21  1  0.798151  0.836989  0.000000  1
  Si  Si22  1  0.655257  0.503656  0.500000  1
  Si  Si23  1  0.346349  0.495871  0.500000  1
  Si  Si24  1  0.153777  0.996471  0.500000  1
  Si  Si25  1  0.845255  0.004325  0.500000  1
  Si  Si26  1  0.496967  0.654584  0.500000  1
  Si  Si27  1  0.504751  0.346120  0.500000  1
  Si  Si28  1  0.003144  0.155203  0.500000  1
  Si  Si29  1  0.995416  0.846361  0.500000  1
  Ir  Ir30  1  0.745884  0.521009  0.000000  1
  Ir  Ir31  1  0.257551  0.475763  0.000000  1
  Ir  Ir32  1  0.242098  0.976041  0.000000  1
  Ir  Ir33  1  0.755852  0.022410  0.000000  1
  Ir  Ir34  1  0.478253  0.744001  0.000000  1
  Ir  Ir35  1  0.524582  0.257829  0.000000  1
  Ir  Ir36  1  0.020561  0.245849  0.000000  1
  Ir  Ir37  1  0.975311  0.757602  0.000000  1
