# generated using pymatgen
data_Y4Ga6NiPd
_symmetry_space_group_name_H-M   'P 1'
_cell_length_a   7.03968900
_cell_length_b   8.78967489
_cell_length_c   8.78967500
_cell_angle_alpha   119.99999666
_cell_angle_beta   90.00000000
_cell_angle_gamma   90.00000000
_symmetry_Int_Tables_number   1
_chemical_formula_structural   Y4Ga6NiPd
_chemical_formula_sum   'Y8 Ga12 Ni2 Pd2'
_cell_volume   471.00958874
_cell_formula_units_Z   2
loop_
 _symmetry_equiv_pos_site_id
 _symmetry_equiv_pos_as_xyz
  1  'x, y, z'
loop_
 _atom_site_type_symbol
 _atom_site_label
 _atom_site_symmetry_multiplicity
 _atom_site_fract_x
 _atom_site_fract_y
 _atom_site_fract_z
 _atom_site_occupancy
  Y  Y0  1  0.753298  0.000000  0.000000  1
  Y  Y1  1  0.246702  0.000000  0.000000  1
  Y  Y2  1  0.751336  0.482109  0.517891  1
  Y  Y3  1  0.248664  0.517891  0.482109  1
  Y  Y4  1  0.751336  0.035783  0.517891  1
  Y  Y5  1  0.248664  0.964217  0.482109  1
  Y  Y6  1  0.751336  0.482109  0.964217  1
  Y  Y7  1  0.248664  0.517891  0.035783  1
  Ga  Ga8  1  0.957125  0.828372  0.171628  1
  Ga  Ga9  1  0.042875  0.171628  0.828372  1
  Ga  Ga10  1  0.957125  0.343257  0.171628  1
  Ga  Ga11  1  0.457566  0.166988  0.833012  1
  Ga  Ga12  1  0.042875  0.656743  0.828372  1
  Ga  Ga13  1  0.542434  0.833012  0.166988  1
  Ga  Ga14  1  0.957125  0.828372  0.656743  1
  Ga  Ga15  1  0.457566  0.666025  0.833012  1
  Ga  Ga16  1  0.042875  0.171628  0.343257  1
  Ga  Ga17  1  0.542434  0.333975  0.166988  1
  Ga  Ga18  1  0.457566  0.166988  0.333975  1
  Ga  Ga19  1  0.542434  0.833012  0.666025  1
  Ni  Ni20  1  0.973009  0.666667  0.333333  1
  Ni  Ni21  1  0.026991  0.333333  0.666667  1
  Pd  Pd22  1  0.467031  0.333333  0.666667  1
  Pd  Pd23  1  0.532969  0.666667  0.333333  1
