# generated using pymatgen
data_K2CrP2Se7
_symmetry_space_group_name_H-M   'P 1'
_cell_length_a   9.46010688
_cell_length_b   9.46010682
_cell_length_c   8.94728340
_cell_angle_alpha   75.49190112
_cell_angle_beta   75.49190222
_cell_angle_gamma   70.01127472
_symmetry_Int_Tables_number   1
_chemical_formula_structural   K2CrP2Se7
_chemical_formula_sum   'K4 Cr2 P4 Se14'
_cell_volume   716.43061279
_cell_formula_units_Z   2
loop_
 _symmetry_equiv_pos_site_id
 _symmetry_equiv_pos_as_xyz
  1  'x, y, z'
loop_
 _atom_site_type_symbol
 _atom_site_label
 _atom_site_symmetry_multiplicity
 _atom_site_fract_x
 _atom_site_fract_y
 _atom_site_fract_z
 _atom_site_occupancy
  K  K0  1  0.607826  0.058689  0.159713  1
  K  K1  1  0.941311  0.392174  0.840287  1
  K  K2  1  0.392174  0.941311  0.840287  1
  K  K3  1  0.058689  0.607826  0.159713  1
  Cr  Cr4  1  0.676912  0.323088  0.500000  1
  Cr  Cr5  1  0.323088  0.676912  0.500000  1
  P  P6  1  0.945846  0.945846  0.437279  1
  P  P7  1  0.054154  0.054154  0.562721  1
  P  P8  1  0.394161  0.394161  0.809688  1
  P  P9  1  0.605839  0.605839  0.190312  1
  Se  Se10  1  0.707505  0.353982  0.203901  1
  Se  Se11  1  0.646018  0.292495  0.796099  1
  Se  Se12  1  0.292495  0.646018  0.796099  1
  Se  Se13  1  0.353982  0.707505  0.203901  1
  Se  Se14  1  0.003950  0.003950  0.182605  1
  Se  Se15  1  0.996050  0.996050  0.817395  1
  Se  Se16  1  0.696422  0.039644  0.529560  1
  Se  Se17  1  0.960356  0.303578  0.470440  1
  Se  Se18  1  0.303578  0.960356  0.470440  1
  Se  Se19  1  0.039644  0.696422  0.529560  1
  Se  Se20  1  0.267422  0.267422  0.002218  1
  Se  Se21  1  0.732578  0.732578  0.997782  1
  Se  Se22  1  0.380827  0.380827  0.559151  1
  Se  Se23  1  0.619173  0.619173  0.440849  1
