# generated using pymatgen
data_Ca12LuTi12Fe7O48
_symmetry_space_group_name_H-M   'P 1'
_cell_length_a   10.99774247
_cell_length_b   10.99037902
_cell_length_c   10.99037931
_cell_angle_alpha   109.45764913
_cell_angle_beta   109.48479133
_cell_angle_gamma   109.48479044
_symmetry_Int_Tables_number   1
_chemical_formula_structural   Ca12LuTi12Fe7O48
_chemical_formula_sum   'Ca12 Lu1 Ti12 Fe7 O48'
_cell_volume   1022.43152978
_cell_formula_units_Z   1
loop_
 _symmetry_equiv_pos_site_id
 _symmetry_equiv_pos_as_xyz
  1  'x, y, z'
loop_
 _atom_site_type_symbol
 _atom_site_label
 _atom_site_symmetry_multiplicity
 _atom_site_fract_x
 _atom_site_fract_y
 _atom_site_fract_z
 _atom_site_occupancy
  Ca  Ca0  1  0.244391  0.371004  0.124725  1
  Ca  Ca1  1  0.755609  0.628996  0.875275  1
  Ca  Ca2  1  0.748377  0.123491  0.375400  1
  Ca  Ca3  1  0.124885  0.251908  0.376509  1
  Ca  Ca4  1  0.373388  0.753721  0.128996  1
  Ca  Ca5  1  0.251623  0.876509  0.624600  1
  Ca  Ca6  1  0.875115  0.748092  0.623491  1
  Ca  Ca7  1  0.626612  0.246279  0.871004  1
  Ca  Ca8  1  0.372977  0.124600  0.248092  1
  Ca  Ca9  1  0.627023  0.875400  0.751908  1
  Ca  Ca10  1  0.119666  0.375275  0.746279  1
  Ca  Ca11  1  0.880334  0.624725  0.253721  1
  Lu  Lu12  1  0.500000  0.500000  0.000000  1
  Ti  Ti13  1  0.249700  0.624364  0.374562  1
  Ti  Ti14  1  0.750300  0.375636  0.625438  1
  Ti  Ti15  1  0.755952  0.881267  0.126592  1
  Ti  Ti16  1  0.374685  0.245325  0.618733  1
  Ti  Ti17  1  0.625315  0.754675  0.381267  1
  Ti  Ti18  1  0.244048  0.118733  0.873408  1
  Ti  Ti19  1  0.125337  0.750198  0.875636  1
  Ti  Ti20  1  0.874663  0.249802  0.124364  1
  Ti  Ti21  1  0.629359  0.373408  0.254675  1
  Ti  Ti22  1  0.370641  0.626592  0.745325  1
  Ti  Ti23  1  0.875139  0.125438  0.749802  1
  Ti  Ti24  1  0.124861  0.874562  0.250198  1
  Fe  Fe25  1  0.000000  0.000000  0.000000  1
  Fe  Fe26  1  0.500000  0.000000  0.500000  1
  Fe  Fe27  1  0.000000  0.500000  0.500000  1
  Fe  Fe28  1  0.500000  0.000000  0.000000  1
  Fe  Fe29  1  0.500000  0.500000  0.500000  1
  Fe  Fe30  1  0.000000  0.000000  0.500000  1
  Fe  Fe31  1  0.000000  0.500000  0.000000  1
  O  O32  1  0.484688  0.382644  0.299775  1
  O  O33  1  0.515312  0.617356  0.700225  1
  O  O34  1  0.582570  0.179907  0.203674  1
  O  O35  1  0.918566  0.118430  0.600586  1
  O  O36  1  0.300136  0.482156  0.381570  1
  O  O37  1  0.317586  0.918663  0.299217  1
  O  O38  1  0.417430  0.820093  0.796326  1
  O  O39  1  0.081434  0.881570  0.399414  1
  O  O40  1  0.699864  0.517844  0.618430  1
  O  O41  1  0.682414  0.081337  0.700783  1
  O  O42  1  0.016031  0.317664  0.898568  1
  O  O43  1  0.198367  0.580904  0.182336  1
  O  O44  1  0.115632  0.015339  0.199336  1
  O  O45  1  0.983969  0.682336  0.101432  1
  O  O46  1  0.801633  0.419096  0.817664  1
  O  O47  1  0.884368  0.984661  0.800664  1
  O  O48  1  0.602044  0.917131  0.117356  1
  O  O49  1  0.179841  0.479366  0.595270  1
  O  O50  1  0.397956  0.082869  0.882644  1
  O  O51  1  0.820159  0.520634  0.404730  1
  O  O52  1  0.902662  0.023767  0.320093  1
  O  O53  1  0.372296  0.587099  0.894581  1
  O  O54  1  0.097338  0.976233  0.679907  1
  O  O55  1  0.627704  0.412901  0.105419  1
  O  O56  1  0.378896  0.296326  0.476233  1
  O  O57  1  0.584571  0.904730  0.384095  1
  O  O58  1  0.621104  0.703674  0.523767  1
  O  O59  1  0.415429  0.095270  0.615905  1
  O  O60  1  0.117463  0.601432  0.919096  1
  O  O61  1  0.018368  0.200783  0.119447  1
  O  O62  1  0.882537  0.398568  0.080904  1
  O  O63  1  0.981632  0.799217  0.880553  1
  O  O64  1  0.317980  0.899414  0.017844  1
  O  O65  1  0.916296  0.300664  0.316003  1
  O  O66  1  0.682020  0.100586  0.982156  1
  O  O67  1  0.083704  0.699336  0.683997  1
  O  O68  1  0.184913  0.200225  0.582869  1
  O  O69  1  0.477715  0.605419  0.192518  1
  O  O70  1  0.815087  0.799775  0.417131  1
  O  O71  1  0.522285  0.394581  0.807482  1
  O  O72  1  0.285196  0.307482  0.912901  1
  O  O73  1  0.714804  0.692518  0.087099  1
  O  O74  1  0.200475  0.115905  0.020634  1
  O  O75  1  0.799525  0.884095  0.979366  1
  O  O76  1  0.898923  0.380553  0.581337  1
  O  O77  1  0.101077  0.619447  0.418663  1
  O  O78  1  0.600293  0.183997  0.484661  1
  O  O79  1  0.399707  0.816003  0.515339  1
