# generated using pymatgen
data_Ba6Fe2ReO12
_symmetry_space_group_name_H-M   'P 1'
_cell_length_a   9.19444373
_cell_length_b   9.19444311
_cell_length_c   7.30956953
_cell_angle_alpha   67.94504583
_cell_angle_beta   67.94504556
_cell_angle_gamma   36.80398116
_symmetry_Int_Tables_number   1
_chemical_formula_structural   Ba6Fe2ReO12
_chemical_formula_sum   'Ba6 Fe2 Re1 O12'
_cell_volume   339.97179703
_cell_formula_units_Z   1
loop_
 _symmetry_equiv_pos_site_id
 _symmetry_equiv_pos_as_xyz
  1  'x, y, z'
loop_
 _atom_site_type_symbol
 _atom_site_label
 _atom_site_symmetry_multiplicity
 _atom_site_fract_x
 _atom_site_fract_y
 _atom_site_fract_z
 _atom_site_occupancy
  Ba  Ba0  1  0.874405  0.874405  0.718370  1
  Ba  Ba1  1  0.220286  0.220286  0.711161  1
  Ba  Ba2  1  0.548280  0.548280  0.706509  1
  Ba  Ba3  1  0.451720  0.451720  0.293491  1
  Ba  Ba4  1  0.779714  0.779714  0.288839  1
  Ba  Ba5  1  0.125595  0.125595  0.281630  1
  Fe  Fe6  1  0.669676  0.669676  0.999136  1
  Fe  Fe7  1  0.330324  0.330324  0.000864  1
  Re  Re8  1  0.000000  0.000000  0.000000  1
  O  O9  1  0.951480  0.951480  0.291918  1
  O  O10  1  0.286108  0.286108  0.305981  1
  O  O11  1  0.612098  0.612098  0.306944  1
  O  O12  1  0.387902  0.387902  0.693056  1
  O  O13  1  0.713892  0.713892  0.694019  1
  O  O14  1  0.048520  0.048520  0.708082  1
  O  O15  1  0.500000  0.000000  0.000000  1
  O  O16  1  0.841054  0.316112  0.000923  1
  O  O17  1  0.158946  0.683888  0.999077  1
  O  O18  1  0.000000  0.500000  0.000000  1
  O  O19  1  0.316112  0.841054  0.000923  1
  O  O20  1  0.683888  0.158946  0.999077  1
