# generated using pymatgen
data_Pr2AlP5Pd21
_symmetry_space_group_name_H-M   'P 1'
_cell_length_a   8.69595433
_cell_length_b   8.69805487
_cell_length_c   8.69805500
_cell_angle_alpha   59.98402134
_cell_angle_beta   60.00798181
_cell_angle_gamma   60.00797552
_symmetry_Int_Tables_number   1
_chemical_formula_structural   Pr2AlP5Pd21
_chemical_formula_sum   'Pr2 Al1 P5 Pd21'
_cell_volume   465.20719669
_cell_formula_units_Z   1
loop_
 _symmetry_equiv_pos_site_id
 _symmetry_equiv_pos_as_xyz
  1  'x, y, z'
loop_
 _atom_site_type_symbol
 _atom_site_label
 _atom_site_symmetry_multiplicity
 _atom_site_fract_x
 _atom_site_fract_y
 _atom_site_fract_z
 _atom_site_occupancy
  Pr  Pr0  1  0.748963  0.751037  0.751037  1
  Pr  Pr1  1  0.248963  0.251037  0.251037  1
  Al  Al2  1  0.257371  0.742629  0.742629  1
  P  P3  1  0.735518  0.739648  0.264482  1
  P  P4  1  0.260352  0.739648  0.264482  1
  P  P5  1  0.739120  0.260880  0.260880  1
  P  P6  1  0.260352  0.264482  0.739648  1
  P  P7  1  0.735518  0.264482  0.739648  1
  Pd  Pd8  1  0.004516  0.995484  0.995484  1
  Pd  Pd9  1  0.613880  0.612230  0.160011  1
  Pd  Pd10  1  0.613880  0.160011  0.612230  1
  Pd  Pd11  1  0.157184  0.611672  0.611672  1
  Pd  Pd12  1  0.619473  0.611672  0.611672  1
  Pd  Pd13  1  0.388328  0.380527  0.842816  1
  Pd  Pd14  1  0.388328  0.842816  0.380527  1
  Pd  Pd15  1  0.839989  0.386120  0.386120  1
  Pd  Pd16  1  0.387770  0.386120  0.386120  1
  Pd  Pd17  1  0.000745  0.999255  0.342260  1
  Pd  Pd18  1  0.657740  0.999255  0.342260  1
  Pd  Pd19  1  0.001551  0.655207  0.341691  1
  Pd  Pd20  1  0.657740  0.342260  0.999255  1
  Pd  Pd21  1  0.000745  0.342260  0.999255  1
  Pd  Pd22  1  0.001551  0.341691  0.655207  1
  Pd  Pd23  1  0.348164  0.651836  0.009505  1
  Pd  Pd24  1  0.348164  0.009505  0.651836  1
  Pd  Pd25  1  0.344793  0.998449  0.998449  1
  Pd  Pd26  1  0.990495  0.009505  0.651836  1
  Pd  Pd27  1  0.990495  0.651836  0.009505  1
  Pd  Pd28  1  0.658309  0.998449  0.998449  1
