# generated using pymatgen
data_Tb16Cd3AgIr4
_symmetry_space_group_name_H-M   'P 1'
_cell_length_a   9.67506407
_cell_length_b   9.67506435
_cell_length_c   9.67506443
_cell_angle_alpha   59.97209639
_cell_angle_beta   59.97209574
_cell_angle_gamma   59.97209796
_symmetry_Int_Tables_number   1
_chemical_formula_structural   Tb16Cd3AgIr4
_chemical_formula_sum   'Tb16 Cd3 Ag1 Ir4'
_cell_volume   639.98779845
_cell_formula_units_Z   1
loop_
 _symmetry_equiv_pos_site_id
 _symmetry_equiv_pos_as_xyz
  1  'x, y, z'
loop_
 _atom_site_type_symbol
 _atom_site_label
 _atom_site_symmetry_multiplicity
 _atom_site_fract_x
 _atom_site_fract_y
 _atom_site_fract_z
 _atom_site_occupancy
  Tb  Tb0  1  0.598180  0.598180  0.598180  1
  Tb  Tb1  1  0.600230  0.600230  0.201768  1
  Tb  Tb2  1  0.600230  0.201768  0.600230  1
  Tb  Tb3  1  0.201768  0.600230  0.600230  1
  Tb  Tb4  1  0.059769  0.439525  0.439525  1
  Tb  Tb5  1  0.438310  0.059912  0.059912  1
  Tb  Tb6  1  0.439525  0.059769  0.439525  1
  Tb  Tb7  1  0.059912  0.438310  0.059912  1
  Tb  Tb8  1  0.439525  0.439525  0.059769  1
  Tb  Tb9  1  0.059912  0.059912  0.438310  1
  Tb  Tb10  1  0.186504  0.811769  0.811769  1
  Tb  Tb11  1  0.811756  0.187572  0.187572  1
  Tb  Tb12  1  0.811769  0.186504  0.811769  1
  Tb  Tb13  1  0.187572  0.811756  0.187572  1
  Tb  Tb14  1  0.811769  0.811769  0.186504  1
  Tb  Tb15  1  0.187572  0.187572  0.811756  1
  Cd  Cd16  1  0.831329  0.831329  0.507516  1
  Cd  Cd17  1  0.831329  0.507516  0.831329  1
  Cd  Cd18  1  0.507516  0.831329  0.831329  1
  Ag  Ag19  1  0.832452  0.832452  0.832452  1
  Ir  Ir20  1  0.391677  0.391677  0.391677  1
  Ir  Ir21  1  0.392771  0.392771  0.825853  1
  Ir  Ir22  1  0.392771  0.825853  0.392771  1
  Ir  Ir23  1  0.825853  0.392771  0.392771  1
