# generated using pymatgen
data_Y2MnCo5P4
_symmetry_space_group_name_H-M   'P 1'
_cell_length_a   3.70038900
_cell_length_b   10.56578200
_cell_length_c   12.16796100
_cell_angle_alpha   90.00000000
_cell_angle_beta   90.00000000
_cell_angle_gamma   90.00000000
_symmetry_Int_Tables_number   1
_chemical_formula_structural   Y2MnCo5P4
_chemical_formula_sum   'Y6 Mn3 Co15 P12'
_cell_volume   475.73689765
_cell_formula_units_Z   3
loop_
 _symmetry_equiv_pos_site_id
 _symmetry_equiv_pos_as_xyz
  1  'x, y, z'
loop_
 _atom_site_type_symbol
 _atom_site_label
 _atom_site_symmetry_multiplicity
 _atom_site_fract_x
 _atom_site_fract_y
 _atom_site_fract_z
 _atom_site_occupancy
  Y  Y0  1  0.000000  0.500000  0.523192  1
  Y  Y1  1  0.500000  0.000000  0.477331  1
  Y  Y2  1  0.500000  0.818185  0.204825  1
  Y  Y3  1  0.500000  0.181815  0.204825  1
  Y  Y4  1  0.000000  0.680602  0.795797  1
  Y  Y5  1  0.000000  0.319398  0.795797  1
  Mn  Mn6  1  0.500000  0.500000  0.154815  1
  Mn  Mn7  1  0.000000  0.000000  0.841439  1
  Mn  Mn8  1  0.000000  0.500000  0.988751  1
  Co  Co9  1  0.500000  0.500000  0.699601  1
  Co  Co10  1  0.000000  0.000000  0.297926  1
  Co  Co11  1  0.500000  0.000000  0.013267  1
  Co  Co12  1  0.500000  0.330513  0.994383  1
  Co  Co13  1  0.500000  0.669487  0.994383  1
  Co  Co14  1  0.000000  0.165025  0.005115  1
  Co  Co15  1  0.000000  0.834975  0.005115  1
  Co  Co16  1  0.500000  0.295996  0.430574  1
  Co  Co17  1  0.500000  0.704004  0.430574  1
  Co  Co18  1  0.000000  0.203436  0.569962  1
  Co  Co19  1  0.000000  0.796564  0.569962  1
  Co  Co20  1  0.500000  0.879888  0.709522  1
  Co  Co21  1  0.500000  0.120112  0.709522  1
  Co  Co22  1  0.000000  0.620979  0.291504  1
  Co  Co23  1  0.000000  0.379021  0.291504  1
  P  P24  1  0.500000  0.500000  0.882894  1
  P  P25  1  0.000000  0.000000  0.117275  1
  P  P26  1  0.500000  0.500000  0.345438  1
  P  P27  1  0.000000  0.000000  0.655221  1
  P  P28  1  0.500000  0.310228  0.616376  1
  P  P29  1  0.500000  0.689772  0.616376  1
  P  P30  1  0.000000  0.189122  0.384224  1
  P  P31  1  0.000000  0.810878  0.384224  1
  P  P32  1  0.500000  0.847342  0.893007  1
  P  P33  1  0.500000  0.152658  0.893007  1
  P  P34  1  0.000000  0.654742  0.106138  1
  P  P35  1  0.000000  0.345258  0.106138  1
