# generated using pymatgen
data_Lu12CoTc3
_symmetry_space_group_name_H-M   'P 1'
_cell_length_a   6.12356380
_cell_length_b   7.16533068
_cell_length_c   8.91244600
_cell_angle_alpha   90.00000000
_cell_angle_beta   90.00000000
_cell_angle_gamma   90.18060838
_symmetry_Int_Tables_number   1
_chemical_formula_structural   Lu12CoTc3
_chemical_formula_sum   'Lu12 Co1 Tc3'
_cell_volume   391.05265467
_cell_formula_units_Z   1
loop_
 _symmetry_equiv_pos_site_id
 _symmetry_equiv_pos_as_xyz
  1  'x, y, z'
loop_
 _atom_site_type_symbol
 _atom_site_label
 _atom_site_symmetry_multiplicity
 _atom_site_fract_x
 _atom_site_fract_y
 _atom_site_fract_z
 _atom_site_occupancy
  Lu  Lu0  1  0.331167  0.678639  0.062581  1
  Lu  Lu1  1  0.163064  0.175805  0.440066  1
  Lu  Lu2  1  0.664341  0.326847  0.563821  1
  Lu  Lu3  1  0.832165  0.820671  0.937819  1
  Lu  Lu4  1  0.664341  0.326847  0.936179  1
  Lu  Lu5  1  0.832165  0.820671  0.562181  1
  Lu  Lu6  1  0.331167  0.678639  0.437419  1
  Lu  Lu7  1  0.163064  0.175805  0.059934  1
  Lu  Lu8  1  0.875013  0.539027  0.250000  1
  Lu  Lu9  1  0.625274  0.041121  0.250000  1
  Lu  Lu10  1  0.139841  0.458527  0.750000  1
  Lu  Lu11  1  0.376142  0.951324  0.750000  1
  Co  Co12  1  0.538390  0.615800  0.750000  1
  Tc  Tc13  1  0.039861  0.887109  0.250000  1
  Tc  Tc14  1  0.459793  0.390044  0.250000  1
  Tc  Tc15  1  0.964211  0.113124  0.750000  1
