# generated using pymatgen
data_La3YbInIr
_symmetry_space_group_name_H-M   'P 1'
_cell_length_a   10.06924152
_cell_length_b   10.06903977
_cell_length_c   10.13034895
_cell_angle_alpha   60.17435077
_cell_angle_beta   60.17241584
_cell_angle_gamma   60.01084010
_symmetry_Int_Tables_number   1
_chemical_formula_structural   La3YbInIr
_chemical_formula_sum   'La12 Yb4 In4 Ir4'
_cell_volume   728.22094535
_cell_formula_units_Z   4
loop_
 _symmetry_equiv_pos_site_id
 _symmetry_equiv_pos_as_xyz
  1  'x, y, z'
loop_
 _atom_site_type_symbol
 _atom_site_label
 _atom_site_symmetry_multiplicity
 _atom_site_fract_x
 _atom_site_fract_y
 _atom_site_fract_z
 _atom_site_occupancy
  La  La0  1  0.434139  0.063627  0.434129  1
  La  La1  1  0.063573  0.434105  0.434218  1
  La  La2  1  0.807734  0.807757  0.192726  1
  La  La3  1  0.195215  0.805591  0.196500  1
  La  La4  1  0.805673  0.195245  0.196472  1
  La  La5  1  0.193834  0.193787  0.809525  1
  La  La6  1  0.803429  0.194402  0.808172  1
  La  La7  1  0.194420  0.803393  0.808169  1
  La  La8  1  0.652768  0.652753  0.042247  1
  La  La9  1  0.652726  0.042719  0.651132  1
  La  La10  1  0.042672  0.652728  0.651156  1
  La  La11  1  0.652198  0.652270  0.652954  1
  Yb  Yb12  1  0.439017  0.438948  0.058057  1
  Yb  Yb13  1  0.061826  0.439945  0.058192  1
  Yb  Yb14  1  0.439972  0.061768  0.058155  1
  Yb  Yb15  1  0.060320  0.060295  0.439999  1
  In  In16  1  0.417663  0.417660  0.748874  1
  In  In17  1  0.419696  0.743610  0.420372  1
  In  In18  1  0.743597  0.419769  0.420362  1
  In  In19  1  0.419357  0.419340  0.423365  1
  Ir  Ir20  1  0.860768  0.860813  0.417800  1
  Ir  Ir21  1  0.859293  0.419947  0.859171  1
  Ir  Ir22  1  0.419934  0.859328  0.859231  1
  Ir  Ir23  1  0.860177  0.860197  0.859022  1
