# generated using pymatgen
data_Ta3Nb2B2P
_symmetry_space_group_name_H-M   'P 1'
_cell_length_a   7.25560541
_cell_length_b   7.25829390
_cell_length_c   7.26133106
_cell_angle_alpha   129.37641778
_cell_angle_beta   129.36402080
_cell_angle_gamma   74.39608155
_symmetry_Int_Tables_number   1
_chemical_formula_structural   Ta3Nb2B2P
_chemical_formula_sum   'Ta6 Nb4 B4 P2'
_cell_volume   222.77092343
_cell_formula_units_Z   2
loop_
 _symmetry_equiv_pos_site_id
 _symmetry_equiv_pos_as_xyz
  1  'x, y, z'
loop_
 _atom_site_type_symbol
 _atom_site_label
 _atom_site_symmetry_multiplicity
 _atom_site_fract_x
 _atom_site_fract_y
 _atom_site_fract_z
 _atom_site_occupancy
  Ta  Ta0  1  0.000995  0.000769  0.000976  1
  Ta  Ta1  1  0.499777  0.500726  0.999745  1
  Ta  Ta2  1  0.026739  0.191976  0.499666  1
  Ta  Ta3  1  0.526485  0.026639  0.834615  1
  Ta  Ta4  1  0.691561  0.526963  0.499696  1
  Ta  Ta5  1  0.973383  0.807889  0.500201  1
  Nb  Nb6  1  0.809025  0.308722  0.835512  1
  Nb  Nb7  1  0.191113  0.691254  0.164406  1
  Nb  Nb8  1  0.473768  0.973454  0.165191  1
  Nb  Nb9  1  0.308694  0.473190  0.500199  1
  B  B10  1  0.113784  0.615064  0.729685  1
  B  B11  1  0.882474  0.383741  0.267856  1
  B  B12  1  0.617390  0.883044  0.501244  1
  B  B13  1  0.383803  0.115772  0.501246  1
  P  P14  1  0.250503  0.249582  0.999061  1
  P  P15  1  0.750507  0.751214  0.000700  1
