# generated using pymatgen
data_Hf2GeH
_symmetry_space_group_name_H-M   'P 1'
_cell_length_a   5.41317213
_cell_length_b   5.41317114
_cell_length_c   5.41317136
_cell_angle_alpha   105.22985939
_cell_angle_beta   105.22986276
_cell_angle_gamma   118.33434919
_symmetry_Int_Tables_number   1
_chemical_formula_structural   Hf2GeH
_chemical_formula_sum   'Hf4 Ge2 H2'
_cell_volume   119.88302581
_cell_formula_units_Z   2
loop_
 _symmetry_equiv_pos_site_id
 _symmetry_equiv_pos_as_xyz
  1  'x, y, z'
loop_
 _atom_site_type_symbol
 _atom_site_label
 _atom_site_symmetry_multiplicity
 _atom_site_fract_x
 _atom_site_fract_y
 _atom_site_fract_z
 _atom_site_occupancy
  Hf  Hf0  1  0.161576  0.661576  0.823153  1
  Hf  Hf1  1  0.838424  0.338424  0.176847  1
  Hf  Hf2  1  0.338424  0.161576  0.500000  1
  Hf  Hf3  1  0.661576  0.838424  0.500000  1
  Ge  Ge4  1  0.250000  0.250000  0.000000  1
  Ge  Ge5  1  0.750000  0.750000  0.000000  1
  H  H6  1  0.750000  0.250000  0.500000  1
  H  H7  1  0.250000  0.750000  0.500000  1
