# generated using pymatgen
data_Er6Tm10Cd4NiRu3
_symmetry_space_group_name_H-M   'P 1'
_cell_length_a   9.43568158
_cell_length_b   9.53853125
_cell_length_c   9.53853200
_cell_angle_alpha   59.99999741
_cell_angle_beta   59.63876583
_cell_angle_gamma   59.63876614
_symmetry_Int_Tables_number   1
_chemical_formula_structural   Er6Tm10Cd4NiRu3
_chemical_formula_sum   'Er6 Tm10 Cd4 Ni1 Ru3'
_cell_volume   603.70996283
_cell_formula_units_Z   1
loop_
 _symmetry_equiv_pos_site_id
 _symmetry_equiv_pos_as_xyz
  1  'x, y, z'
loop_
 _atom_site_type_symbol
 _atom_site_label
 _atom_site_symmetry_multiplicity
 _atom_site_fract_x
 _atom_site_fract_y
 _atom_site_fract_z
 _atom_site_occupancy
  Er  Er0  1  0.937637  0.561712  0.561712  1
  Er  Er1  1  0.559265  0.937090  0.937090  1
  Er  Er2  1  0.559265  0.937090  0.566555  1
  Er  Er3  1  0.937637  0.561712  0.938939  1
  Er  Er4  1  0.559265  0.566555  0.937090  1
  Er  Er5  1  0.937637  0.938939  0.561712  1
  Tm  Tm6  1  0.351627  0.345407  0.345407  1
  Tm  Tm7  1  0.351627  0.345407  0.957558  1
  Tm  Tm8  1  0.351627  0.957558  0.345407  1
  Tm  Tm9  1  0.962678  0.345774  0.345774  1
  Tm  Tm10  1  0.810880  0.188417  0.188417  1
  Tm  Tm11  1  0.185383  0.812329  0.812329  1
  Tm  Tm12  1  0.185383  0.812329  0.189961  1
  Tm  Tm13  1  0.810880  0.188417  0.812287  1
  Tm  Tm14  1  0.185383  0.189961  0.812329  1
  Tm  Tm15  1  0.810880  0.812287  0.188417  1
  Cd  Cd16  1  0.578463  0.580402  0.580402  1
  Cd  Cd17  1  0.578463  0.580402  0.260732  1
  Cd  Cd18  1  0.578463  0.260732  0.580402  1
  Cd  Cd19  1  0.256055  0.581314  0.581314  1
  Ni  Ni20  1  0.577292  0.140903  0.140903  1
  Ru  Ru21  1  0.144737  0.139382  0.139382  1
  Ru  Ru22  1  0.144737  0.139382  0.576500  1
  Ru  Ru23  1  0.144737  0.576500  0.139382  1
