# generated using pymatgen
data_AgMoS2O9
_symmetry_space_group_name_H-M   'P 1'
_cell_length_a   5.25461700
_cell_length_b   8.23480280
_cell_length_c   9.01986573
_cell_angle_alpha   74.04277239
_cell_angle_beta   90.00000000
_cell_angle_gamma   90.00000000
_symmetry_Int_Tables_number   1
_chemical_formula_structural   AgMoS2O9
_chemical_formula_sum   'Ag2 Mo2 S4 O18'
_cell_volume   375.25701043
_cell_formula_units_Z   2
loop_
 _symmetry_equiv_pos_site_id
 _symmetry_equiv_pos_as_xyz
  1  'x, y, z'
loop_
 _atom_site_type_symbol
 _atom_site_label
 _atom_site_symmetry_multiplicity
 _atom_site_fract_x
 _atom_site_fract_y
 _atom_site_fract_z
 _atom_site_occupancy
  Ag  Ag0  1  0.250000  0.458160  0.236499  1
  Ag  Ag1  1  0.750000  0.541840  0.763501  1
  Mo  Mo2  1  0.250000  0.939723  0.264196  1
  Mo  Mo3  1  0.750000  0.060277  0.735804  1
  S  S4  1  0.250000  0.326888  0.633212  1
  S  S5  1  0.750000  0.673112  0.366788  1
  S  S6  1  0.250000  0.823089  0.913002  1
  S  S7  1  0.750000  0.176911  0.086998  1
  O  O8  1  0.250000  0.287532  0.485134  1
  O  O9  1  0.750000  0.712468  0.514866  1
  O  O10  1  0.250000  0.503306  0.631934  1
  O  O11  1  0.750000  0.496694  0.368066  1
  O  O12  1  0.018768  0.244043  0.729425  1
  O  O13  1  0.518768  0.755957  0.270575  1
  O  O14  1  0.981232  0.755957  0.270575  1
  O  O15  1  0.481232  0.244043  0.729425  1
  O  O16  1  0.250000  0.932741  0.017878  1
  O  O17  1  0.750000  0.067259  0.982122  1
  O  O18  1  0.250000  0.642519  0.987553  1
  O  O19  1  0.750000  0.357481  0.012447  1
  O  O20  1  0.017132  0.864352  0.810130  1
  O  O21  1  0.517132  0.135648  0.189870  1
  O  O22  1  0.982868  0.135648  0.189870  1
  O  O23  1  0.482868  0.864352  0.810130  1
  O  O24  1  0.250000  0.925645  0.454210  1
  O  O25  1  0.750000  0.074355  0.545790  1
