# generated using pymatgen
data_Tb4Er5Lu(In2Pt)4
_symmetry_space_group_name_H-M   'P 1'
_cell_length_a   3.62242400
_cell_length_b   8.15074572
_cell_length_c   18.20489500
_cell_angle_alpha   89.72339095
_cell_angle_beta   90.00000000
_cell_angle_gamma   90.00000000
_symmetry_Int_Tables_number   1
_chemical_formula_structural   Tb4Er5Lu(In2Pt)4
_chemical_formula_sum   'Tb4 Er5 Lu1 In8 Pt4'
_cell_volume   537.50157890
_cell_formula_units_Z   1
loop_
 _symmetry_equiv_pos_site_id
 _symmetry_equiv_pos_as_xyz
  1  'x, y, z'
loop_
 _atom_site_type_symbol
 _atom_site_label
 _atom_site_symmetry_multiplicity
 _atom_site_fract_x
 _atom_site_fract_y
 _atom_site_fract_z
 _atom_site_occupancy
  Tb  Tb0  1  0.000000  0.257953  0.719133  1
  Tb  Tb1  1  0.000000  0.740797  0.281474  1
  Tb  Tb2  1  0.000000  0.999734  0.000319  1
  Tb  Tb3  1  0.000000  0.500631  0.499215  1
  Er  Er4  1  0.000000  0.883284  0.584703  1
  Er  Er5  1  0.000000  0.383462  0.914730  1
  Er  Er6  1  0.000000  0.616819  0.085735  1
  Er  Er7  1  0.000000  0.242493  0.220518  1
  Er  Er8  1  0.000000  0.757796  0.779452  1
  Lu  Lu9  1  0.000000  0.116590  0.413719  1
  In  In10  1  0.500000  0.418029  0.351088  1
  In  In11  1  0.500000  0.578744  0.648804  1
  In  In12  1  0.500000  0.077286  0.850522  1
  In  In13  1  0.500000  0.923062  0.150452  1
  In  In14  1  0.500000  0.293579  0.067131  1
  In  In15  1  0.500000  0.706510  0.933033  1
  In  In16  1  0.500000  0.204905  0.564531  1
  In  In17  1  0.500000  0.797354  0.434277  1
  Pt  Pt18  1  0.500000  0.026776  0.305435  1
  Pt  Pt19  1  0.500000  0.974272  0.695497  1
  Pt  Pt20  1  0.500000  0.476459  0.803797  1
  Pt  Pt21  1  0.500000  0.523468  0.196436  1
