# generated using pymatgen
data_Tb4HgPt
_symmetry_space_group_name_H-M   'P 1'
_cell_length_a   9.70691886
_cell_length_b   9.70691906
_cell_length_c   9.70691800
_cell_angle_alpha   59.99999681
_cell_angle_beta   59.99999613
_cell_angle_gamma   59.99999810
_symmetry_Int_Tables_number   1
_chemical_formula_structural   Tb4HgPt
_chemical_formula_sum   'Tb16 Hg4 Pt4'
_cell_volume   646.73913538
_cell_formula_units_Z   4
loop_
 _symmetry_equiv_pos_site_id
 _symmetry_equiv_pos_as_xyz
  1  'x, y, z'
loop_
 _atom_site_type_symbol
 _atom_site_label
 _atom_site_symmetry_multiplicity
 _atom_site_fract_x
 _atom_site_fract_y
 _atom_site_fract_z
 _atom_site_occupancy
  Tb  Tb0  1  0.353690  0.353690  0.353690  1
  Tb  Tb1  1  0.353690  0.353690  0.938931  1
  Tb  Tb2  1  0.353690  0.938931  0.353690  1
  Tb  Tb3  1  0.938931  0.353690  0.353690  1
  Tb  Tb4  1  0.809571  0.190429  0.190429  1
  Tb  Tb5  1  0.190429  0.809571  0.809571  1
  Tb  Tb6  1  0.190429  0.809571  0.190429  1
  Tb  Tb7  1  0.809571  0.190429  0.809571  1
  Tb  Tb8  1  0.190429  0.190429  0.809571  1
  Tb  Tb9  1  0.809571  0.809571  0.190429  1
  Tb  Tb10  1  0.935766  0.564234  0.564234  1
  Tb  Tb11  1  0.564234  0.935766  0.935766  1
  Tb  Tb12  1  0.564234  0.935766  0.564234  1
  Tb  Tb13  1  0.935766  0.564234  0.935766  1
  Tb  Tb14  1  0.564234  0.564234  0.935766  1
  Tb  Tb15  1  0.935766  0.935766  0.564234  1
  Hg  Hg16  1  0.586508  0.586508  0.586508  1
  Hg  Hg17  1  0.586508  0.586508  0.240474  1
  Hg  Hg18  1  0.586508  0.240474  0.586508  1
  Hg  Hg19  1  0.240474  0.586508  0.586508  1
  Pt  Pt20  1  0.143688  0.143688  0.143688  1
  Pt  Pt21  1  0.143688  0.143688  0.568937  1
  Pt  Pt22  1  0.143688  0.568937  0.143688  1
  Pt  Pt23  1  0.568937  0.143688  0.143688  1
