# generated using pymatgen
data_Al2Os3W
_symmetry_space_group_name_H-M   'P 1'
_cell_length_a   4.34241600
_cell_length_b   4.34241587
_cell_length_c   5.30649100
_cell_angle_alpha   90.00000000
_cell_angle_beta   90.00000000
_cell_angle_gamma   119.99998574
_symmetry_Int_Tables_number   1
_chemical_formula_structural   Al2Os3W
_chemical_formula_sum   'Al2 Os3 W1'
_cell_volume   86.65646439
_cell_formula_units_Z   1
loop_
 _symmetry_equiv_pos_site_id
 _symmetry_equiv_pos_as_xyz
  1  'x, y, z'
loop_
 _atom_site_type_symbol
 _atom_site_label
 _atom_site_symmetry_multiplicity
 _atom_site_fract_x
 _atom_site_fract_y
 _atom_site_fract_z
 _atom_site_occupancy
  Al  Al0  1  0.333333  0.666667  0.159139  1
  Al  Al1  1  0.666667  0.333333  0.840861  1
  Os  Os2  1  0.333333  0.666667  0.661898  1
  Os  Os3  1  0.666667  0.333333  0.338102  1
  Os  Os4  1  0.000000  0.000000  0.000000  1
  W  W5  1  0.000000  0.000000  0.500000  1
