# generated using pymatgen
data_Y6Sc2(Al2Os)7
_symmetry_space_group_name_H-M   'P 1'
_cell_length_a   8.99747130
_cell_length_b   9.00208653
_cell_length_c   9.00208700
_cell_angle_alpha   60.07661875
_cell_angle_beta   60.01695960
_cell_angle_gamma   60.01696375
_symmetry_Int_Tables_number   1
_chemical_formula_structural   Y6Sc2(Al2Os)7
_chemical_formula_sum   'Y6 Sc2 Al14 Os7'
_cell_volume   516.00526231
_cell_formula_units_Z   1
loop_
 _symmetry_equiv_pos_site_id
 _symmetry_equiv_pos_as_xyz
  1  'x, y, z'
loop_
 _atom_site_type_symbol
 _atom_site_label
 _atom_site_symmetry_multiplicity
 _atom_site_fract_x
 _atom_site_fract_y
 _atom_site_fract_z
 _atom_site_occupancy
  Y  Y0  1  0.706333  0.710450  0.288387  1
  Y  Y1  1  0.294830  0.710450  0.288387  1
  Y  Y2  1  0.701989  0.298011  0.298011  1
  Y  Y3  1  0.294830  0.288387  0.710450  1
  Y  Y4  1  0.706333  0.288387  0.710450  1
  Y  Y5  1  0.287000  0.713000  0.713000  1
  Sc  Sc6  1  0.879614  0.886387  0.354383  1
  Sc  Sc7  1  0.879614  0.354383  0.886387  1
  Al  Al8  1  0.367537  0.878695  0.878695  1
  Al  Al9  1  0.875072  0.878695  0.878695  1
  Al  Al10  1  0.120432  0.127080  0.632056  1
  Al  Al11  1  0.120432  0.632056  0.127080  1
  Al  Al12  1  0.638493  0.120255  0.120255  1
  Al  Al13  1  0.120997  0.120255  0.120255  1
  Al  Al14  1  0.667728  0.670100  0.994447  1
  Al  Al15  1  0.667728  0.994447  0.670100  1
  Al  Al16  1  0.994347  0.669018  0.669018  1
  Al  Al17  1  0.667617  0.669018  0.669018  1
  Al  Al18  1  0.332256  0.330185  0.005302  1
  Al  Al19  1  0.332256  0.005302  0.330185  1
  Al  Al20  1  0.004143  0.331069  0.331069  1
  Al  Al21  1  0.333717  0.331069  0.331069  1
  Os  Os22  1  0.011136  0.988864  0.988864  1
  Os  Os23  1  0.002646  0.001112  0.502654  1
  Os  Os24  1  0.493588  0.001112  0.502654  1
  Os  Os25  1  0.003257  0.496743  0.496743  1
  Os  Os26  1  0.493588  0.502654  0.001112  1
  Os  Os27  1  0.002646  0.502654  0.001112  1
  Os  Os28  1  0.499840  0.000160  0.000160  1
