# generated using pymatgen
data_La6Nd2BPd24
_symmetry_space_group_name_H-M   'P 1'
_cell_length_a   8.52615292
_cell_length_b   8.52615284
_cell_length_c   8.52615200
_cell_angle_alpha   90.02658434
_cell_angle_beta   89.97341566
_cell_angle_gamma   89.97342128
_symmetry_Int_Tables_number   1
_chemical_formula_structural   La6Nd2BPd24
_chemical_formula_sum   'La6 Nd2 B1 Pd24'
_cell_volume   619.81083133
_cell_formula_units_Z   1
loop_
 _symmetry_equiv_pos_site_id
 _symmetry_equiv_pos_as_xyz
  1  'x, y, z'
loop_
 _atom_site_type_symbol
 _atom_site_label
 _atom_site_symmetry_multiplicity
 _atom_site_fract_x
 _atom_site_fract_y
 _atom_site_fract_z
 _atom_site_occupancy
  La  La0  1  0.253130  0.253149  0.253149  1
  La  La1  1  0.746870  0.746851  0.746851  1
  La  La2  1  0.746851  0.746870  0.253149  1
  La  La3  1  0.746851  0.253149  0.746870  1
  La  La4  1  0.253149  0.253130  0.746851  1
  La  La5  1  0.253149  0.746851  0.253130  1
  Nd  Nd6  1  0.252350  0.747650  0.747650  1
  Nd  Nd7  1  0.747650  0.252350  0.252350  1
  B  B8  1  0.000000  0.000000  0.000000  1
  Pd  Pd9  1  0.249937  0.500584  0.999398  1
  Pd  Pd10  1  0.750063  0.499416  0.000602  1
  Pd  Pd11  1  0.999398  0.249937  0.499416  1
  Pd  Pd12  1  0.500584  0.249937  0.000602  1
  Pd  Pd13  1  0.000602  0.750063  0.500584  1
  Pd  Pd14  1  0.499416  0.750063  0.999398  1
  Pd  Pd15  1  0.500584  0.000602  0.249937  1
  Pd  Pd16  1  0.249937  0.999398  0.500584  1
  Pd  Pd17  1  0.499416  0.999398  0.750063  1
  Pd  Pd18  1  0.750063  0.000602  0.499416  1
  Pd  Pd19  1  0.999398  0.499416  0.249937  1
  Pd  Pd20  1  0.000602  0.500584  0.750063  1
  Pd  Pd21  1  0.250279  0.500903  0.500903  1
  Pd  Pd22  1  0.749721  0.499097  0.499097  1
  Pd  Pd23  1  0.500903  0.250279  0.499097  1
  Pd  Pd24  1  0.499097  0.749721  0.500903  1
  Pd  Pd25  1  0.500903  0.499097  0.250279  1
  Pd  Pd26  1  0.499097  0.500903  0.749721  1
  Pd  Pd27  1  0.255221  0.999225  0.999225  1
  Pd  Pd28  1  0.744779  0.000775  0.000775  1
  Pd  Pd29  1  0.999225  0.255221  0.000775  1
  Pd  Pd30  1  0.000775  0.744779  0.999225  1
  Pd  Pd31  1  0.999225  0.000775  0.255221  1
  Pd  Pd32  1  0.000775  0.999225  0.744779  1
