# generated using pymatgen
data_Lu20ZnGaSb10
_symmetry_space_group_name_H-M   'P 1'
_cell_length_a   7.90920862
_cell_length_b   9.10266000
_cell_length_c   11.57556290
_cell_angle_alpha   90.00000000
_cell_angle_beta   89.95478058
_cell_angle_gamma   90.00000000
_symmetry_Int_Tables_number   1
_chemical_formula_structural   Lu20ZnGaSb10
_chemical_formula_sum   'Lu20 Zn1 Ga1 Sb10'
_cell_volume   833.38050354
_cell_formula_units_Z   1
loop_
 _symmetry_equiv_pos_site_id
 _symmetry_equiv_pos_as_xyz
  1  'x, y, z'
loop_
 _atom_site_type_symbol
 _atom_site_label
 _atom_site_symmetry_multiplicity
 _atom_site_fract_x
 _atom_site_fract_y
 _atom_site_fract_z
 _atom_site_occupancy
  Lu  Lu0  1  0.188625  0.566715  0.442264  1
  Lu  Lu1  1  0.689100  0.933456  0.058002  1
  Lu  Lu2  1  0.807074  0.048722  0.560169  1
  Lu  Lu3  1  0.306505  0.449967  0.939689  1
  Lu  Lu4  1  0.807074  0.451278  0.560169  1
  Lu  Lu5  1  0.306505  0.050033  0.939689  1
  Lu  Lu6  1  0.188625  0.933285  0.442264  1
  Lu  Lu7  1  0.689100  0.566544  0.058002  1
  Lu  Lu8  1  0.037768  0.750000  0.992045  1
  Lu  Lu9  1  0.538053  0.750000  0.507559  1
  Lu  Lu10  1  0.974176  0.250000  0.008820  1
  Lu  Lu11  1  0.474515  0.250000  0.491311  1
  Lu  Lu12  1  0.179994  0.750000  0.714741  1
  Lu  Lu13  1  0.680223  0.750000  0.785365  1
  Lu  Lu14  1  0.810560  0.250000  0.281041  1
  Lu  Lu15  1  0.310140  0.250000  0.218879  1
  Lu  Lu16  1  0.852985  0.750000  0.292872  1
  Lu  Lu17  1  0.352455  0.750000  0.207982  1
  Lu  Lu18  1  0.152854  0.250000  0.715551  1
  Lu  Lu19  1  0.652945  0.250000  0.784293  1
  Zn  Zn20  1  0.913469  0.750000  0.538984  1
  Ga  Ga21  1  0.413709  0.750000  0.961256  1
  Sb  Sb22  1  0.938672  0.499010  0.823913  1
  Sb  Sb23  1  0.438567  0.001588  0.676191  1
  Sb  Sb24  1  0.060445  0.998145  0.175507  1
  Sb  Sb25  1  0.560157  0.501819  0.324036  1
  Sb  Sb26  1  0.060445  0.501855  0.175507  1
  Sb  Sb27  1  0.560157  0.998181  0.324036  1
  Sb  Sb28  1  0.938672  0.000990  0.823913  1
  Sb  Sb29  1  0.438567  0.498412  0.676191  1
  Sb  Sb30  1  0.089015  0.250000  0.459333  1
  Sb  Sb31  1  0.588853  0.250000  0.040425  1
