# generated using pymatgen
data_Dy9TmSi5Bi
_symmetry_space_group_name_H-M   'P 1'
_cell_length_a   8.53436214
_cell_length_b   8.58088121
_cell_length_c   6.35822504
_cell_angle_alpha   90.01302481
_cell_angle_beta   89.99422626
_cell_angle_gamma   119.84058495
_symmetry_Int_Tables_number   1
_chemical_formula_structural   Dy9TmSi5Bi
_chemical_formula_sum   'Dy9 Tm1 Si5 Bi1'
_cell_volume   403.89164779
_cell_formula_units_Z   1
loop_
 _symmetry_equiv_pos_site_id
 _symmetry_equiv_pos_as_xyz
  1  'x, y, z'
loop_
 _atom_site_type_symbol
 _atom_site_label
 _atom_site_symmetry_multiplicity
 _atom_site_fract_x
 _atom_site_fract_y
 _atom_site_fract_z
 _atom_site_occupancy
  Dy  Dy0  1  0.984821  0.744461  0.750345  1
  Dy  Dy1  1  0.997834  0.243414  0.249605  1
  Dy  Dy2  1  0.754622  0.756337  0.249700  1
  Dy  Dy3  1  0.767557  0.000188  0.750248  1
  Dy  Dy4  1  0.240419  0.255354  0.750243  1
  Dy  Dy5  1  0.240867  0.000149  0.249844  1
  Dy  Dy6  1  0.330468  0.653532  0.494961  1
  Dy  Dy7  1  0.330723  0.653958  0.005053  1
  Dy  Dy8  1  0.676879  0.346319  0.495100  1
  Tm  Tm9  1  0.677213  0.346724  0.004981  1
  Si  Si10  1  0.393549  0.389862  0.248982  1
  Si  Si11  1  0.001706  0.609154  0.248780  1
  Si  Si12  1  0.997573  0.393866  0.751105  1
  Si  Si13  1  0.604577  0.605048  0.751033  1
  Si  Si14  1  0.607212  0.000773  0.249312  1
  Bi  Bi15  1  0.393975  0.000862  0.750709  1
