# generated using pymatgen
data_Sc2U(Co3B2)3
_symmetry_space_group_name_H-M   'P 1'
_cell_length_a   5.70435270
_cell_length_b   5.70435250
_cell_length_c   5.70435209
_cell_angle_alpha   94.59532097
_cell_angle_beta   94.59532205
_cell_angle_gamma   94.59530899
_symmetry_Int_Tables_number   1
_chemical_formula_structural   Sc2U(Co3B2)3
_chemical_formula_sum   'Sc2 U1 Co9 B6'
_cell_volume   183.72528967
_cell_formula_units_Z   1
loop_
 _symmetry_equiv_pos_site_id
 _symmetry_equiv_pos_as_xyz
  1  'x, y, z'
loop_
 _atom_site_type_symbol
 _atom_site_label
 _atom_site_symmetry_multiplicity
 _atom_site_fract_x
 _atom_site_fract_y
 _atom_site_fract_z
 _atom_site_occupancy
  Sc  Sc0  1  0.667802  0.667802  0.667802  1
  Sc  Sc1  1  0.332198  0.332198  0.332198  1
  U  U2  1  0.000000  0.000000  0.000000  1
  Co  Co3  1  0.500000  0.000000  0.000000  1
  Co  Co4  1  0.000000  0.500000  0.000000  1
  Co  Co5  1  0.000000  0.000000  0.500000  1
  Co  Co6  1  0.695436  0.195368  0.695436  1
  Co  Co7  1  0.695436  0.695436  0.195368  1
  Co  Co8  1  0.195368  0.695436  0.695436  1
  Co  Co9  1  0.304564  0.804632  0.304564  1
  Co  Co10  1  0.304564  0.304564  0.804632  1
  Co  Co11  1  0.804632  0.304564  0.304564  1
  B  B12  1  0.379072  0.000000  0.620928  1
  B  B13  1  0.620928  0.379072  0.000000  1
  B  B14  1  0.000000  0.620928  0.379072  1
  B  B15  1  0.620928  0.000000  0.379072  1
  B  B16  1  0.379072  0.620928  0.000000  1
  B  B17  1  0.000000  0.379072  0.620928  1
