# generated using pymatgen
data_La14PrY(CdRu)4
_symmetry_space_group_name_H-M   'P 1'
_cell_length_a   10.05102599
_cell_length_b   10.10413996
_cell_length_c   10.04449482
_cell_angle_alpha   59.67647385
_cell_angle_beta   60.09199246
_cell_angle_gamma   59.58074202
_symmetry_Int_Tables_number   1
_chemical_formula_structural   La14PrY(CdRu)4
_chemical_formula_sum   'La14 Pr1 Y1 Cd4 Ru4'
_cell_volume   717.72640949
_cell_formula_units_Z   1
loop_
 _symmetry_equiv_pos_site_id
 _symmetry_equiv_pos_as_xyz
  1  'x, y, z'
loop_
 _atom_site_type_symbol
 _atom_site_label
 _atom_site_symmetry_multiplicity
 _atom_site_fract_x
 _atom_site_fract_y
 _atom_site_fract_z
 _atom_site_occupancy
  La  La0  1  0.060201  0.061352  0.440673  1
  La  La1  1  0.440328  0.062143  0.060590  1
  La  La2  1  0.843469  0.847909  0.843619  1
  La  La3  1  0.690756  0.310439  0.315534  1
  La  La4  1  0.060799  0.438591  0.442334  1
  La  La5  1  0.315312  0.684731  0.691058  1
  La  La6  1  0.316347  0.310146  0.690853  1
  La  La7  1  0.847526  0.845987  0.458397  1
  La  La8  1  0.690650  0.685016  0.315278  1
  La  La9  1  0.458301  0.845444  0.847805  1
  La  La10  1  0.059394  0.442088  0.058734  1
  La  La11  1  0.843206  0.462371  0.843799  1
  La  La12  1  0.443414  0.058370  0.442679  1
  La  La13  1  0.312144  0.688677  0.311453  1
  Pr  Pr14  1  0.441836  0.437604  0.060594  1
  Y  Y15  1  0.691051  0.308581  0.692442  1
  Cd  Cd16  1  0.078773  0.762752  0.078052  1
  Cd  Cd17  1  0.074347  0.080921  0.763473  1
  Cd  Cd18  1  0.762979  0.081691  0.074384  1
  Cd  Cd19  1  0.078260  0.079665  0.078198  1
  Ru  Ru20  1  0.632730  0.088424  0.632786  1
  Ru  Ru21  1  0.632881  0.645493  0.632393  1
  Ru  Ru22  1  0.635495  0.635937  0.089701  1
  Ru  Ru23  1  0.089799  0.635664  0.635173  1
