# generated using pymatgen
data_LaTlPd4
_symmetry_space_group_name_H-M   'P 1'
_cell_length_a   5.49651900
_cell_length_b   5.49651860
_cell_length_c   5.49651900
_cell_angle_alpha   119.99999639
_cell_angle_beta   90.00000000
_cell_angle_gamma   119.99999639
_symmetry_Int_Tables_number   1
_chemical_formula_structural   LaTlPd4
_chemical_formula_sum   'La1 Tl1 Pd4'
_cell_volume   117.42166080
_cell_formula_units_Z   1
loop_
 _symmetry_equiv_pos_site_id
 _symmetry_equiv_pos_as_xyz
  1  'x, y, z'
loop_
 _atom_site_type_symbol
 _atom_site_label
 _atom_site_symmetry_multiplicity
 _atom_site_fract_x
 _atom_site_fract_y
 _atom_site_fract_z
 _atom_site_occupancy
  La  La0  1  0.750001  0.500001  0.250000  1
  Tl  Tl1  1  0.000000  0.000000  0.000000  1
  Pd  Pd2  1  0.374608  0.749217  0.123824  1
  Pd  Pd3  1  0.876176  0.250784  0.625392  1
  Pd  Pd4  1  0.374608  0.250784  0.625393  1
  Pd  Pd5  1  0.374608  0.749217  0.625393  1
