# generated using pymatgen
data_YHo3Er4(WO6)4
_symmetry_space_group_name_H-M   'P 1'
_cell_length_a   5.37728200
_cell_length_b   7.68045745
_cell_length_c   11.42187912
_cell_angle_alpha   75.41461544
_cell_angle_beta   90.00000000
_cell_angle_gamma   90.00000000
_symmetry_Int_Tables_number   1
_chemical_formula_structural   YHo3Er4(WO6)4
_chemical_formula_sum   'Y1 Ho3 Er4 W4 O24'
_cell_volume   456.52141863
_cell_formula_units_Z   1
loop_
 _symmetry_equiv_pos_site_id
 _symmetry_equiv_pos_as_xyz
  1  'x, y, z'
loop_
 _atom_site_type_symbol
 _atom_site_label
 _atom_site_symmetry_multiplicity
 _atom_site_fract_x
 _atom_site_fract_y
 _atom_site_fract_z
 _atom_site_occupancy
  Y  Y0  1  0.684328  0.500000  0.250000  1
  Ho  Ho1  1  0.315884  0.500000  0.750000  1
  Ho  Ho2  1  0.740544  0.000000  0.250000  1
  Ho  Ho3  1  0.259534  0.000000  0.750000  1
  Er  Er4  1  0.183472  0.205639  0.421905  1
  Er  Er5  1  0.183472  0.794361  0.078095  1
  Er  Er6  1  0.816652  0.794064  0.578266  1
  Er  Er7  1  0.816652  0.205936  0.921734  1
  W  W8  1  0.255984  0.276059  0.114568  1
  W  W9  1  0.255984  0.723941  0.385432  1
  W  W10  1  0.743987  0.723712  0.884949  1
  W  W11  1  0.743987  0.276288  0.615051  1
  O  O12  1  0.457535  0.207915  0.273727  1
  O  O13  1  0.457535  0.792085  0.226273  1
  O  O14  1  0.542015  0.791440  0.726297  1
  O  O15  1  0.542015  0.208560  0.773703  1
  O  O16  1  0.044545  0.059650  0.104101  1
  O  O17  1  0.044545  0.940350  0.395899  1
  O  O18  1  0.955429  0.940389  0.895785  1
  O  O19  1  0.955429  0.059611  0.604215  1
  O  O20  1  0.981107  0.288420  0.229013  1
  O  O21  1  0.981107  0.711580  0.270987  1
  O  O22  1  0.019869  0.710622  0.771051  1
  O  O23  1  0.019869  0.289378  0.728949  1
  O  O24  1  0.850036  0.365367  0.451501  1
  O  O25  1  0.850036  0.634633  0.048499  1
  O  O26  1  0.150534  0.634478  0.549009  1
  O  O27  1  0.150534  0.365522  0.950991  1
  O  O28  1  0.638974  0.510887  0.614637  1
  O  O29  1  0.638974  0.489113  0.885363  1
  O  O30  1  0.359523  0.488931  0.385939  1
  O  O31  1  0.359523  0.511069  0.114061  1
  O  O32  1  0.463932  0.153613  0.569032  1
  O  O33  1  0.463932  0.846387  0.930968  1
  O  O34  1  0.536261  0.846399  0.430975  1
  O  O35  1  0.536261  0.153601  0.069025  1
