# generated using pymatgen
data_Pt4(I3Br)3
_symmetry_space_group_name_H-M   'P 1'
_cell_length_a   6.94131926
_cell_length_b   7.05117094
_cell_length_c   13.38076637
_cell_angle_alpha   83.97794568
_cell_angle_beta   85.12308344
_cell_angle_gamma   119.88798295
_symmetry_Int_Tables_number   1
_chemical_formula_structural   Pt4(I3Br)3
_chemical_formula_sum   'Pt4 I9 Br3'
_cell_volume   557.47311748
_cell_formula_units_Z   1
loop_
 _symmetry_equiv_pos_site_id
 _symmetry_equiv_pos_as_xyz
  1  'x, y, z'
loop_
 _atom_site_type_symbol
 _atom_site_label
 _atom_site_symmetry_multiplicity
 _atom_site_fract_x
 _atom_site_fract_y
 _atom_site_fract_z
 _atom_site_occupancy
  Pt  Pt0  1  0.907462  0.093300  0.250584  1
  Pt  Pt1  1  0.092287  0.903694  0.749346  1
  Pt  Pt2  1  0.500022  0.000215  0.498364  1
  Pt  Pt3  1  0.000864  0.495810  0.998346  1
  I  I4  1  0.062335  0.192167  0.861395  1
  I  I5  1  0.160126  0.651439  0.617061  1
  I  I6  1  0.346098  0.842090  0.878703  1
  I  I7  1  0.845574  0.342269  0.377408  1
  I  I8  1  0.652542  0.159747  0.121325  1
  I  I9  1  0.750231  0.556694  0.876354  1
  I  I10  1  0.443581  0.240401  0.622001  1
  I  I11  1  0.249208  0.445884  0.125195  1
  I  I12  1  0.556109  0.755000  0.376686  1
  Br  Br13  1  0.179816  0.065117  0.356826  1
  Br  Br14  1  0.932944  0.825425  0.146575  1
  Br  Br15  1  0.820801  0.930746  0.643833  1
