# generated using pymatgen
data_Dy2AgPd2
_symmetry_space_group_name_H-M   'P 1'
_cell_length_a   3.70261200
_cell_length_b   7.68847100
_cell_length_c   7.68847100
_cell_angle_alpha   90.00000000
_cell_angle_beta   90.00000000
_cell_angle_gamma   90.00000000
_symmetry_Int_Tables_number   1
_chemical_formula_structural   Dy2AgPd2
_chemical_formula_sum   'Dy4 Ag2 Pd4'
_cell_volume   218.87097145
_cell_formula_units_Z   2
loop_
 _symmetry_equiv_pos_site_id
 _symmetry_equiv_pos_as_xyz
  1  'x, y, z'
loop_
 _atom_site_type_symbol
 _atom_site_label
 _atom_site_symmetry_multiplicity
 _atom_site_fract_x
 _atom_site_fract_y
 _atom_site_fract_z
 _atom_site_occupancy
  Dy  Dy0  1  0.500000  0.170458  0.670458  1
  Dy  Dy1  1  0.500000  0.829542  0.329542  1
  Dy  Dy2  1  0.500000  0.329542  0.170458  1
  Dy  Dy3  1  0.500000  0.670458  0.829542  1
  Ag  Ag4  1  0.000000  0.000000  0.000000  1
  Ag  Ag5  1  0.000000  0.500000  0.500000  1
  Pd  Pd6  1  0.000000  0.630773  0.130773  1
  Pd  Pd7  1  0.000000  0.369227  0.869227  1
  Pd  Pd8  1  0.000000  0.869227  0.630773  1
  Pd  Pd9  1  0.000000  0.130773  0.369227  1
