# generated using pymatgen
data_Tb5Y14Er(CoBi2)4
_symmetry_space_group_name_H-M   'P 1'
_cell_length_a   8.06432807
_cell_length_b   8.85993013
_cell_length_c   12.43731025
_cell_angle_alpha   89.98869753
_cell_angle_beta   90.01106261
_cell_angle_gamma   89.95338801
_symmetry_Int_Tables_number   1
_chemical_formula_structural   Tb5Y14Er(CoBi2)4
_chemical_formula_sum   'Tb5 Y14 Er1 Co4 Bi8'
_cell_volume   888.63781807
_cell_formula_units_Z   1
loop_
 _symmetry_equiv_pos_site_id
 _symmetry_equiv_pos_as_xyz
  1  'x, y, z'
loop_
 _atom_site_type_symbol
 _atom_site_label
 _atom_site_symmetry_multiplicity
 _atom_site_fract_x
 _atom_site_fract_y
 _atom_site_fract_z
 _atom_site_occupancy
  Tb  Tb0  1  0.323941  0.534711  0.563242  1
  Tb  Tb1  1  0.175935  0.966346  0.062686  1
  Tb  Tb2  1  0.675802  0.466823  0.437803  1
  Tb  Tb3  1  0.823969  0.034222  0.936911  1
  Tb  Tb4  1  0.676163  0.033913  0.437858  1
  Y  Y5  1  0.652579  0.750368  0.698433  1
  Y  Y6  1  0.347516  0.249795  0.301370  1
  Y  Y7  1  0.152620  0.250043  0.801380  1
  Y  Y8  1  0.847151  0.749973  0.198560  1
  Y  Y9  1  0.120352  0.748789  0.809057  1
  Y  Y10  1  0.879564  0.250938  0.190451  1
  Y  Y11  1  0.619215  0.248965  0.690997  1
  Y  Y12  1  0.378447  0.751442  0.308981  1
  Y  Y13  1  0.545209  0.750844  0.997991  1
  Y  Y14  1  0.454794  0.249211  0.001970  1
  Y  Y15  1  0.047904  0.249217  0.502075  1
  Y  Y16  1  0.957748  0.750326  0.498116  1
  Y  Y17  1  0.823993  0.464947  0.936423  1
  Y  Y18  1  0.175897  0.534723  0.063364  1
  Er  Er19  1  0.327032  0.964579  0.562801  1
  Co  Co20  1  0.940131  0.751116  0.991326  1
  Co  Co21  1  0.059896  0.248899  0.008451  1
  Co  Co22  1  0.438665  0.249619  0.508986  1
  Co  Co23  1  0.556919  0.750767  0.491685  1
  Bi  Bi24  1  0.930317  0.007777  0.673714  1
  Bi  Bi25  1  0.070338  0.992187  0.325373  1
  Bi  Bi26  1  0.427778  0.991202  0.825550  1
  Bi  Bi27  1  0.071033  0.508214  0.325765  1
  Bi  Bi28  1  0.571563  0.008520  0.174354  1
  Bi  Bi29  1  0.928055  0.491189  0.673797  1
  Bi  Bi30  1  0.569453  0.492344  0.174039  1
  Bi  Bi31  1  0.430023  0.507992  0.826489  1
