# generated using pymatgen
data_ReTc(Os2Ru)2
_symmetry_space_group_name_H-M   'P 1'
_cell_length_a   5.52114012
_cell_length_b   5.52113903
_cell_length_c   4.35216800
_cell_angle_alpha   90.00000000
_cell_angle_beta   90.00000000
_cell_angle_gamma   120.07315492
_symmetry_Int_Tables_number   1
_chemical_formula_structural   ReTc(Os2Ru)2
_chemical_formula_sum   'Re1 Tc1 Os4 Ru2'
_cell_volume   114.80825606
_cell_formula_units_Z   1
loop_
 _symmetry_equiv_pos_site_id
 _symmetry_equiv_pos_as_xyz
  1  'x, y, z'
loop_
 _atom_site_type_symbol
 _atom_site_label
 _atom_site_symmetry_multiplicity
 _atom_site_fract_x
 _atom_site_fract_y
 _atom_site_fract_z
 _atom_site_occupancy
  Re  Re0  1  0.334105  0.665895  0.750000  1
  Tc  Tc1  1  0.665737  0.334263  0.250000  1
  Os  Os2  1  0.168319  0.331204  0.250000  1
  Os  Os3  1  0.668796  0.831681  0.250000  1
  Os  Os4  1  0.829107  0.663560  0.750000  1
  Os  Os5  1  0.336440  0.170893  0.750000  1
  Ru  Ru6  1  0.165744  0.834256  0.250000  1
  Ru  Ru7  1  0.831751  0.168249  0.750000  1
