# generated using pymatgen
data_Tm2Co9P6Os
_symmetry_space_group_name_H-M   'P 1'
_cell_length_a   3.66976200
_cell_length_b   10.31384100
_cell_length_c   11.71465200
_cell_angle_alpha   90.00000000
_cell_angle_beta   90.00000000
_cell_angle_gamma   90.00000000
_symmetry_Int_Tables_number   1
_chemical_formula_structural   Tm2Co9P6Os
_chemical_formula_sum   'Tm4 Co18 P12 Os2'
_cell_volume   443.39186733
_cell_formula_units_Z   2
loop_
 _symmetry_equiv_pos_site_id
 _symmetry_equiv_pos_as_xyz
  1  'x, y, z'
loop_
 _atom_site_type_symbol
 _atom_site_label
 _atom_site_symmetry_multiplicity
 _atom_site_fract_x
 _atom_site_fract_y
 _atom_site_fract_z
 _atom_site_occupancy
  Tm  Tm0  1  0.250000  0.582260  0.702038  1
  Tm  Tm1  1  0.250000  0.917740  0.202038  1
  Tm  Tm2  1  0.750000  0.413973  0.295364  1
  Tm  Tm3  1  0.750000  0.086027  0.795364  1
  Co  Co4  1  0.750000  0.282565  0.008819  1
  Co  Co5  1  0.750000  0.217435  0.508819  1
  Co  Co6  1  0.250000  0.406781  0.487450  1
  Co  Co7  1  0.250000  0.093219  0.987450  1
  Co  Co8  1  0.750000  0.591478  0.510998  1
  Co  Co9  1  0.750000  0.908522  0.010998  1
  Co  Co10  1  0.250000  0.220612  0.177077  1
  Co  Co11  1  0.250000  0.279388  0.677077  1
  Co  Co12  1  0.750000  0.777304  0.822617  1
  Co  Co13  1  0.750000  0.722696  0.322617  1
  Co  Co14  1  0.250000  0.887401  0.701974  1
  Co  Co15  1  0.250000  0.612599  0.201974  1
  Co  Co16  1  0.750000  0.116021  0.300806  1
  Co  Co17  1  0.750000  0.383979  0.800806  1
  Co  Co18  1  0.250000  0.464911  0.932332  1
  Co  Co19  1  0.250000  0.035089  0.432332  1
  Co  Co20  1  0.750000  0.533644  0.068985  1
  Co  Co21  1  0.750000  0.966356  0.568985  1
  P  P22  1  0.250000  0.416435  0.112848  1
  P  P23  1  0.250000  0.083565  0.612848  1
  P  P24  1  0.750000  0.578325  0.885835  1
  P  P25  1  0.750000  0.921675  0.385835  1
  P  P26  1  0.250000  0.269231  0.869401  1
  P  P27  1  0.250000  0.230769  0.369401  1
  P  P28  1  0.750000  0.730337  0.132660  1
  P  P29  1  0.750000  0.769663  0.632660  1
  P  P30  1  0.250000  0.593212  0.389626  1
  P  P31  1  0.250000  0.906788  0.889626  1
  P  P32  1  0.750000  0.398242  0.609213  1
  P  P33  1  0.750000  0.101758  0.109213  1
  Os  Os34  1  0.250000  0.715678  0.991957  1
  Os  Os35  1  0.250000  0.784322  0.491957  1
