# generated using pymatgen
data_TbTa3(NbCl6)3
_symmetry_space_group_name_H-M   'P 1'
_cell_length_a   10.16573722
_cell_length_b   10.16596639
_cell_length_c   10.16791802
_cell_angle_alpha   55.98424298
_cell_angle_beta   55.97649540
_cell_angle_gamma   55.97195482
_symmetry_Int_Tables_number   1
_chemical_formula_structural   TbTa3(NbCl6)3
_chemical_formula_sum   'Tb1 Ta3 Nb3 Cl18'
_cell_volume   673.77874024
_cell_formula_units_Z   1
loop_
 _symmetry_equiv_pos_site_id
 _symmetry_equiv_pos_as_xyz
  1  'x, y, z'
loop_
 _atom_site_type_symbol
 _atom_site_label
 _atom_site_symmetry_multiplicity
 _atom_site_fract_x
 _atom_site_fract_y
 _atom_site_fract_z
 _atom_site_occupancy
  Tb  Tb0  1  0.999607  0.999903  0.000941  1
  Ta  Ta1  1  0.408877  0.301207  0.648747  1
  Ta  Ta2  1  0.350855  0.591435  0.698541  1
  Ta  Ta3  1  0.699113  0.350987  0.590734  1
  Nb  Nb4  1  0.300307  0.650108  0.407852  1
  Nb  Nb5  1  0.649927  0.408741  0.299587  1
  Nb  Nb6  1  0.591655  0.700090  0.349584  1
  Cl  Cl7  1  0.566759  0.160764  0.444566  1
  Cl  Cl8  1  0.224443  0.371237  0.906790  1
  Cl  Cl9  1  0.908272  0.223022  0.373322  1
  Cl  Cl10  1  0.370261  0.909386  0.223182  1
  Cl  Cl11  1  0.777142  0.629512  0.090721  1
  Cl  Cl12  1  0.092467  0.775565  0.631512  1
  Cl  Cl13  1  0.703022  0.958099  0.160589  1
  Cl  Cl14  1  0.953750  0.162245  0.702411  1
  Cl  Cl15  1  0.163441  0.700850  0.954547  1
  Cl  Cl16  1  0.298678  0.045513  0.837736  1
  Cl  Cl17  1  0.041289  0.839350  0.297820  1
  Cl  Cl18  1  0.840487  0.296611  0.041883  1
  Cl  Cl19  1  0.558096  0.431547  0.837404  1
  Cl  Cl20  1  0.162540  0.439117  0.570502  1
  Cl  Cl21  1  0.441628  0.568570  0.160695  1
  Cl  Cl22  1  0.429752  0.837307  0.560981  1
  Cl  Cl23  1  0.839079  0.555522  0.433515  1
  Cl  Cl24  1  0.628556  0.093310  0.775838  1
