# generated using pymatgen
data_Lu5Si9P3Ir19
_symmetry_space_group_name_H-M   'P 1'
_cell_length_a   12.79405700
_cell_length_b   12.79405642
_cell_length_c   3.92655800
_cell_angle_alpha   90.00000000
_cell_angle_beta   90.00000000
_cell_angle_gamma   119.99999891
_symmetry_Int_Tables_number   1
_chemical_formula_structural   Lu5Si9P3Ir19
_chemical_formula_sum   'Lu5 Si9 P3 Ir19'
_cell_volume   556.62049887
_cell_formula_units_Z   1
loop_
 _symmetry_equiv_pos_site_id
 _symmetry_equiv_pos_as_xyz
  1  'x, y, z'
loop_
 _atom_site_type_symbol
 _atom_site_label
 _atom_site_symmetry_multiplicity
 _atom_site_fract_x
 _atom_site_fract_y
 _atom_site_fract_z
 _atom_site_occupancy
  Lu  Lu0  1  0.666667  0.333333  0.000000  1
  Lu  Lu1  1  0.333333  0.666667  0.000000  1
  Lu  Lu2  1  0.814546  0.814546  0.500000  1
  Lu  Lu3  1  0.185454  0.000000  0.500000  1
  Lu  Lu4  1  0.000000  0.185454  0.500000  1
  Si  Si5  1  0.686068  0.167780  0.500000  1
  Si  Si6  1  0.832220  0.518288  0.500000  1
  Si  Si7  1  0.481712  0.313932  0.500000  1
  Si  Si8  1  0.167780  0.686068  0.500000  1
  Si  Si9  1  0.518288  0.832220  0.500000  1
  Si  Si10  1  0.313932  0.481712  0.500000  1
  Si  Si11  1  0.633721  0.633721  0.000000  1
  Si  Si12  1  0.366279  0.000000  0.000000  1
  Si  Si13  1  0.000000  0.366279  0.000000  1
  P  P14  1  0.177764  0.177764  0.000000  1
  P  P15  1  0.822236  0.000000  0.000000  1
  P  P16  1  0.000000  0.822236  0.000000  1
  Ir  Ir17  1  0.807628  0.179788  0.000000  1
  Ir  Ir18  1  0.820212  0.627840  0.000000  1
  Ir  Ir19  1  0.372160  0.192372  0.000000  1
  Ir  Ir20  1  0.179788  0.807628  0.000000  1
  Ir  Ir21  1  0.627840  0.820212  0.000000  1
  Ir  Ir22  1  0.192372  0.372160  0.000000  1
  Ir  Ir23  1  0.447210  0.447210  0.000000  1
  Ir  Ir24  1  0.552790  0.000000  0.000000  1
  Ir  Ir25  1  0.000000  0.552790  0.000000  1
  Ir  Ir26  1  0.277450  0.277450  0.500000  1
  Ir  Ir27  1  0.722550  0.000000  0.500000  1
  Ir  Ir28  1  0.000000  0.722550  0.500000  1
  Ir  Ir29  1  0.871689  0.359458  0.500000  1
  Ir  Ir30  1  0.640542  0.512232  0.500000  1
  Ir  Ir31  1  0.487768  0.128311  0.500000  1
  Ir  Ir32  1  0.359458  0.871689  0.500000  1
  Ir  Ir33  1  0.512232  0.640542  0.500000  1
  Ir  Ir34  1  0.128311  0.487768  0.500000  1
  Ir  Ir35  1  0.000000  0.000000  0.000000  1
