# generated using pymatgen
data_Sr5Pu5O18
_symmetry_space_group_name_H-M   'P 1'
_cell_length_a   6.98579380
_cell_length_b   7.69594923
_cell_length_c   8.69125571
_cell_angle_alpha   100.25224792
_cell_angle_beta   97.55200012
_cell_angle_gamma   107.36389879
_symmetry_Int_Tables_number   1
_chemical_formula_structural   Sr5Pu5O18
_chemical_formula_sum   'Sr5 Pu5 O18'
_cell_volume   430.29265657
_cell_formula_units_Z   1
loop_
 _symmetry_equiv_pos_site_id
 _symmetry_equiv_pos_as_xyz
  1  'x, y, z'
loop_
 _atom_site_type_symbol
 _atom_site_label
 _atom_site_symmetry_multiplicity
 _atom_site_fract_x
 _atom_site_fract_y
 _atom_site_fract_z
 _atom_site_occupancy
  Sr  Sr0  1  0.803789  0.105844  0.581488  1
  Sr  Sr1  1  0.601007  0.696844  0.193468  1
  Sr  Sr2  1  0.398993  0.303156  0.806532  1
  Sr  Sr3  1  0.196211  0.894156  0.418512  1
  Sr  Sr4  1  0.000000  0.500000  0.000000  1
  Pu  Pu5  1  0.000000  0.000000  0.000000  1
  Pu  Pu6  1  0.786756  0.577631  0.584736  1
  Pu  Pu7  1  0.617899  0.197940  0.194128  1
  Pu  Pu8  1  0.382101  0.802060  0.805872  1
  Pu  Pu9  1  0.213244  0.422369  0.415264  1
  O  O10  1  0.824130  0.782160  0.469290  1
  O  O11  1  0.020873  0.226620  0.171773  1
  O  O12  1  0.664470  0.394484  0.068902  1
  O  O13  1  0.455605  0.996040  0.682820  1
  O  O14  1  0.864365  0.352867  0.410300  1
  O  O15  1  0.499797  0.393133  0.348550  1
  O  O16  1  0.248874  0.607535  0.282982  1
  O  O17  1  0.977977  0.825443  0.150713  1
  O  O18  1  0.668198  0.946274  0.994365  1
  O  O19  1  0.331802  0.053726  0.005635  1
  O  O20  1  0.022023  0.174557  0.849287  1
  O  O21  1  0.751126  0.392465  0.717018  1
  O  O22  1  0.500203  0.606867  0.651450  1
  O  O23  1  0.135635  0.647133  0.589700  1
  O  O24  1  0.544395  0.003960  0.317180  1
  O  O25  1  0.335530  0.605516  0.931098  1
  O  O26  1  0.979127  0.773380  0.828227  1
  O  O27  1  0.175870  0.217840  0.530710  1
