# generated using pymatgen
data_ScBe17Nb
_symmetry_space_group_name_H-M   'P 1'
_cell_length_a   5.61334805
_cell_length_b   5.61334752
_cell_length_c   5.61334725
_cell_angle_alpha   82.94242848
_cell_angle_beta   82.94242219
_cell_angle_gamma   82.94242767
_symmetry_Int_Tables_number   1
_chemical_formula_structural   ScBe17Nb
_chemical_formula_sum   'Sc1 Be17 Nb1'
_cell_volume   173.15856212
_cell_formula_units_Z   1
loop_
 _symmetry_equiv_pos_site_id
 _symmetry_equiv_pos_as_xyz
  1  'x, y, z'
loop_
 _atom_site_type_symbol
 _atom_site_label
 _atom_site_symmetry_multiplicity
 _atom_site_fract_x
 _atom_site_fract_y
 _atom_site_fract_z
 _atom_site_occupancy
  Sc  Sc0  1  0.161843  0.161843  0.161843  1
  Be  Be1  1  0.403832  0.403832  0.403832  1
  Be  Be2  1  0.598991  0.598991  0.598991  1
  Be  Be3  1  0.502544  0.502544  0.999309  1
  Be  Be4  1  0.502544  0.999309  0.502544  1
  Be  Be5  1  0.999309  0.502544  0.502544  1
  Be  Be6  1  0.500637  0.789731  0.209052  1
  Be  Be7  1  0.789731  0.209052  0.500637  1
  Be  Be8  1  0.209052  0.500637  0.789731  1
  Be  Be9  1  0.500637  0.209052  0.789731  1
  Be  Be10  1  0.209052  0.789731  0.500637  1
  Be  Be11  1  0.789731  0.500637  0.209052  1
  Be  Be12  1  0.660717  0.153635  0.153635  1
  Be  Be13  1  0.153635  0.153635  0.660717  1
  Be  Be14  1  0.153635  0.660717  0.153635  1
  Be  Be15  1  0.843223  0.341694  0.843223  1
  Be  Be16  1  0.341694  0.843223  0.843223  1
  Be  Be17  1  0.843223  0.843223  0.341694  1
  Nb  Nb18  1  0.835970  0.835970  0.835970  1
