# generated using pymatgen
data_La4Al3GaIr4
_symmetry_space_group_name_H-M   'P 1'
_cell_length_a   4.28213200
_cell_length_b   7.28517999
_cell_length_c   16.30185827
_cell_angle_alpha   89.84177633
_cell_angle_beta   90.00000000
_cell_angle_gamma   90.00000000
_symmetry_Int_Tables_number   1
_chemical_formula_structural   La4Al3GaIr4
_chemical_formula_sum   'La8 Al6 Ga2 Ir8'
_cell_volume   508.55250031
_cell_formula_units_Z   2
loop_
 _symmetry_equiv_pos_site_id
 _symmetry_equiv_pos_as_xyz
  1  'x, y, z'
loop_
 _atom_site_type_symbol
 _atom_site_label
 _atom_site_symmetry_multiplicity
 _atom_site_fract_x
 _atom_site_fract_y
 _atom_site_fract_z
 _atom_site_occupancy
  La  La0  1  0.250000  0.513041  0.778653  1
  La  La1  1  0.750000  0.486959  0.221347  1
  La  La2  1  0.750000  0.982467  0.280170  1
  La  La3  1  0.250000  0.017533  0.719830  1
  La  La4  1  0.250000  0.654705  0.560441  1
  La  La5  1  0.750000  0.345295  0.439559  1
  La  La6  1  0.750000  0.845426  0.059296  1
  La  La7  1  0.250000  0.154574  0.940704  1
  Al  Al8  1  0.750000  0.844264  0.850421  1
  Al  Al9  1  0.250000  0.155736  0.149579  1
  Al  Al10  1  0.250000  0.506695  0.060939  1
  Al  Al11  1  0.750000  0.493305  0.939061  1
  Al  Al12  1  0.750000  0.995101  0.560647  1
  Al  Al13  1  0.250000  0.004899  0.439353  1
  Ga  Ga14  1  0.250000  0.653058  0.351545  1
  Ga  Ga15  1  0.750000  0.346942  0.648455  1
  Ir  Ir16  1  0.250000  0.775390  0.176700  1
  Ir  Ir17  1  0.750000  0.224610  0.823300  1
  Ir  Ir18  1  0.750000  0.735974  0.680026  1
  Ir  Ir19  1  0.250000  0.264026  0.319974  1
  Ir  Ir20  1  0.250000  0.715206  0.927210  1
  Ir  Ir21  1  0.750000  0.284794  0.072790  1
  Ir  Ir22  1  0.750000  0.784634  0.430444  1
  Ir  Ir23  1  0.250000  0.215366  0.569556  1
