# generated using pymatgen
data_Nd2U(SnRh)3
_symmetry_space_group_name_H-M   'P 1'
_cell_length_a   7.54640041
_cell_length_b   7.65657745
_cell_length_c   4.01736900
_cell_angle_alpha   90.00000000
_cell_angle_beta   90.00000000
_cell_angle_gamma   120.48414059
_symmetry_Int_Tables_number   1
_chemical_formula_structural   Nd2U(SnRh)3
_chemical_formula_sum   'Nd2 U1 Sn3 Rh3'
_cell_volume   200.03566108
_cell_formula_units_Z   1
loop_
 _symmetry_equiv_pos_site_id
 _symmetry_equiv_pos_as_xyz
  1  'x, y, z'
loop_
 _atom_site_type_symbol
 _atom_site_label
 _atom_site_symmetry_multiplicity
 _atom_site_fract_x
 _atom_site_fract_y
 _atom_site_fract_z
 _atom_site_occupancy
  Nd  Nd0  1  0.409563  0.410978  0.500000  1
  Nd  Nd1  1  0.590437  0.001415  0.500000  1
  U  U2  1  0.000000  0.583884  0.500000  1
  Sn  Sn3  1  0.737697  0.745764  0.000000  1
  Sn  Sn4  1  0.262303  0.008067  0.000000  1
  Sn  Sn5  1  0.000000  0.242134  0.000000  1
  Rh  Rh6  1  0.708546  0.368594  0.000000  1
  Rh  Rh7  1  0.291454  0.660049  0.000000  1
  Rh  Rh8  1  0.000000  0.979115  0.500000  1
