# generated using pymatgen
data_Tm4Ge(B7Ir6)2
_symmetry_space_group_name_H-M   'P 1'
_cell_length_a   3.49379429
_cell_length_b   7.81978079
_cell_length_c   13.52789662
_cell_angle_alpha   89.88812393
_cell_angle_beta   90.02840359
_cell_angle_gamma   90.05068617
_symmetry_Int_Tables_number   1
_chemical_formula_structural   Tm4Ge(B7Ir6)2
_chemical_formula_sum   'Tm4 Ge1 B14 Ir12'
_cell_volume   369.59078559
_cell_formula_units_Z   1
loop_
 _symmetry_equiv_pos_site_id
 _symmetry_equiv_pos_as_xyz
  1  'x, y, z'
loop_
 _atom_site_type_symbol
 _atom_site_label
 _atom_site_symmetry_multiplicity
 _atom_site_fract_x
 _atom_site_fract_y
 _atom_site_fract_z
 _atom_site_occupancy
  Tm  Tm0  1  0.251568  0.498996  0.834613  1
  Tm  Tm1  1  0.252713  0.000953  0.331693  1
  Tm  Tm2  1  0.747287  0.999047  0.668307  1
  Tm  Tm3  1  0.748432  0.501004  0.165387  1
  Ge  Ge4  1  0.500000  0.500000  0.500000  1
  B  B5  1  0.500000  0.000000  0.000000  1
  B  B6  1  0.000000  0.000000  0.000000  1
  B  B7  1  0.755273  0.325433  0.727065  1
  B  B8  1  0.754145  0.828370  0.220333  1
  B  B9  1  0.752243  0.753170  0.804340  1
  B  B10  1  0.754483  0.248722  0.299021  1
  B  B11  1  0.749987  0.423349  0.975064  1
  B  B12  1  0.761031  0.920208  0.474808  1
  B  B13  1  0.245855  0.171630  0.779667  1
  B  B14  1  0.244727  0.674567  0.272935  1
  B  B15  1  0.245517  0.751278  0.700979  1
  B  B16  1  0.247757  0.246830  0.195660  1
  B  B17  1  0.238969  0.079792  0.525192  1
  B  B18  1  0.250013  0.576651  0.024936  1
  Ir  Ir19  1  0.746457  0.594602  0.673034  1
  Ir  Ir20  1  0.749920  0.090744  0.159786  1
  Ir  Ir21  1  0.750612  0.706582  0.964342  1
  Ir  Ir22  1  0.743594  0.199946  0.461257  1
  Ir  Ir23  1  0.748149  0.198849  0.875314  1
  Ir  Ir24  1  0.746788  0.707463  0.366082  1
  Ir  Ir25  1  0.250080  0.909256  0.840214  1
  Ir  Ir26  1  0.253543  0.405398  0.326966  1
  Ir  Ir27  1  0.256406  0.800054  0.538743  1
  Ir  Ir28  1  0.249388  0.293418  0.035658  1
  Ir  Ir29  1  0.253212  0.292537  0.633918  1
  Ir  Ir30  1  0.251851  0.801151  0.124686  1
