# generated using pymatgen
data_HfZr17(CoRe4)2
_symmetry_space_group_name_H-M   'P 1'
_cell_length_a   8.66001039
_cell_length_b   8.66834700
_cell_length_c   8.55650607
_cell_angle_alpha   89.99999742
_cell_angle_beta   89.98743569
_cell_angle_gamma   120.03185266
_symmetry_Int_Tables_number   1
_chemical_formula_structural   HfZr17(CoRe4)2
_chemical_formula_sum   'Hf1 Zr17 Co2 Re8'
_cell_volume   556.08643008
_cell_formula_units_Z   1
loop_
 _symmetry_equiv_pos_site_id
 _symmetry_equiv_pos_as_xyz
  1  'x, y, z'
loop_
 _atom_site_type_symbol
 _atom_site_label
 _atom_site_symmetry_multiplicity
 _atom_site_fract_x
 _atom_site_fract_y
 _atom_site_fract_z
 _atom_site_occupancy
  Hf  Hf0  1  0.603890  0.801946  0.059260  1
  Zr  Zr1  1  0.199047  0.800950  0.441477  1
  Zr  Zr2  1  0.199047  0.398098  0.441477  1
  Zr  Zr3  1  0.601577  0.800789  0.440787  1
  Zr  Zr4  1  0.800762  0.199082  0.558621  1
  Zr  Zr5  1  0.800762  0.601678  0.558621  1
  Zr  Zr6  1  0.398195  0.199097  0.558480  1
  Zr  Zr7  1  0.800418  0.198520  0.941774  1
  Zr  Zr8  1  0.800418  0.601897  0.941774  1
  Zr  Zr9  1  0.397804  0.198902  0.941364  1
  Zr  Zr10  1  0.199919  0.800875  0.058562  1
  Zr  Zr11  1  0.199919  0.399045  0.058562  1
  Zr  Zr12  1  0.542307  0.458473  0.249375  1
  Zr  Zr13  1  0.542307  0.083833  0.249375  1
  Zr  Zr14  1  0.915721  0.457861  0.249872  1
  Zr  Zr15  1  0.458145  0.542754  0.750644  1
  Zr  Zr16  1  0.458145  0.915392  0.750644  1
  Zr  Zr17  1  0.084337  0.542169  0.749999  1
  Co  Co18  1  0.334341  0.667171  0.249049  1
  Co  Co19  1  0.666705  0.333352  0.749988  1
  Re  Re20  1  0.891030  0.107803  0.249609  1
  Re  Re21  1  0.891030  0.783229  0.249609  1
  Re  Re22  1  0.216369  0.108185  0.249943  1
  Re  Re23  1  0.107961  0.891632  0.750051  1
  Re  Re24  1  0.107961  0.216329  0.750051  1
  Re  Re25  1  0.782440  0.891219  0.750870  1
  Re  Re26  1  0.999733  0.999867  0.499955  1
  Re  Re27  1  0.999711  0.999856  0.000207  1
