# generated using pymatgen
data_La2PrNd2Sn3Cl
_symmetry_space_group_name_H-M   'P 1'
_cell_length_a   9.57205587
_cell_length_b   9.56498029
_cell_length_c   6.82610600
_cell_angle_alpha   90.00000000
_cell_angle_beta   90.00000000
_cell_angle_gamma   119.97554728
_symmetry_Int_Tables_number   1
_chemical_formula_structural   La2PrNd2Sn3Cl
_chemical_formula_sum   'La4 Pr2 Nd4 Sn6 Cl2'
_cell_volume   541.37715090
_cell_formula_units_Z   2
loop_
 _symmetry_equiv_pos_site_id
 _symmetry_equiv_pos_as_xyz
  1  'x, y, z'
loop_
 _atom_site_type_symbol
 _atom_site_label
 _atom_site_symmetry_multiplicity
 _atom_site_fract_x
 _atom_site_fract_y
 _atom_site_fract_z
 _atom_site_occupancy
  La  La0  1  0.999874  0.261095  0.250000  1
  La  La1  1  0.999874  0.738779  0.750000  1
  La  La2  1  0.260864  0.261014  0.750000  1
  La  La3  1  0.260864  0.999850  0.250000  1
  Pr  Pr4  1  0.738666  0.999866  0.750000  1
  Pr  Pr5  1  0.738666  0.738800  0.250000  1
  Nd  Nd6  1  0.666874  0.333437  0.000000  1
  Nd  Nd7  1  0.333970  0.666986  0.500000  1
  Nd  Nd8  1  0.666874  0.333437  0.500000  1
  Nd  Nd9  1  0.333970  0.666986  0.000000  1
  Sn  Sn10  1  0.610975  0.612051  0.750000  1
  Sn  Sn11  1  0.998974  0.611062  0.250000  1
  Sn  Sn12  1  0.610975  0.998924  0.250000  1
  Sn  Sn13  1  0.390469  0.000126  0.750000  1
  Sn  Sn14  1  0.998974  0.387912  0.750000  1
  Sn  Sn15  1  0.390469  0.390343  0.250000  1
  Cl  Cl16  1  0.999333  0.999667  0.500000  1
  Cl  Cl17  1  0.999333  0.999667  0.000000  1
