# generated using pymatgen
data_Ac4Zn10SiGe
_symmetry_space_group_name_H-M   'P 1'
_cell_length_a   8.69388200
_cell_length_b   8.69388235
_cell_length_c   9.16539800
_cell_angle_alpha   90.00000000
_cell_angle_beta   90.00000000
_cell_angle_gamma   149.06106912
_symmetry_Int_Tables_number   1
_chemical_formula_structural   Ac4Zn10SiGe
_chemical_formula_sum   'Ac4 Zn10 Si1 Ge1'
_cell_volume   356.16139650
_cell_formula_units_Z   1
loop_
 _symmetry_equiv_pos_site_id
 _symmetry_equiv_pos_as_xyz
  1  'x, y, z'
loop_
 _atom_site_type_symbol
 _atom_site_label
 _atom_site_symmetry_multiplicity
 _atom_site_fract_x
 _atom_site_fract_y
 _atom_site_fract_z
 _atom_site_occupancy
  Ac  Ac0  1  0.205670  0.794330  0.250000  1
  Ac  Ac1  1  0.793758  0.206242  0.750000  1
  Ac  Ac2  1  0.000034  0.999966  0.497887  1
  Ac  Ac3  1  0.000034  0.999966  0.002113  1
  Zn  Zn4  1  0.815554  0.184446  0.390646  1
  Zn  Zn5  1  0.184315  0.815685  0.608628  1
  Zn  Zn6  1  0.815554  0.184446  0.109354  1
  Zn  Zn7  1  0.184315  0.815685  0.891372  1
  Zn  Zn8  1  0.649402  0.350598  0.480284  1
  Zn  Zn9  1  0.348805  0.651195  0.515810  1
  Zn  Zn10  1  0.649402  0.350598  0.019716  1
  Zn  Zn11  1  0.348805  0.651195  0.984190  1
  Zn  Zn12  1  0.410036  0.589964  0.250000  1
  Zn  Zn13  1  0.593441  0.406559  0.750000  1
  Si  Si14  1  0.560857  0.439143  0.250000  1
  Ge  Ge15  1  0.440013  0.559987  0.750000  1
