# generated using pymatgen
data_Na2Yb(B3Rh4)2
_symmetry_space_group_name_H-M   'P 1'
_cell_length_a   9.78510796
_cell_length_b   8.93085447
_cell_length_c   5.59297600
_cell_angle_alpha   81.19424968
_cell_angle_beta   64.41434624
_cell_angle_gamma   34.39141026
_symmetry_Int_Tables_number   1
_chemical_formula_structural   Na2Yb(B3Rh4)2
_chemical_formula_sum   'Na2 Yb1 B6 Rh8'
_cell_volume   228.32245294
_cell_formula_units_Z   1
loop_
 _symmetry_equiv_pos_site_id
 _symmetry_equiv_pos_as_xyz
  1  'x, y, z'
loop_
 _atom_site_type_symbol
 _atom_site_label
 _atom_site_symmetry_multiplicity
 _atom_site_fract_x
 _atom_site_fract_y
 _atom_site_fract_z
 _atom_site_occupancy
  Na  Na0  1  0.312989  0.312989  0.687011  1
  Na  Na1  1  0.687011  0.687011  0.312989  1
  Yb  Yb2  1  0.500000  0.500000  0.500000  1
  B  B3  1  0.667189  0.989441  0.010559  1
  B  B4  1  0.989441  0.667189  0.332811  1
  B  B5  1  0.332811  0.010559  0.989441  1
  B  B6  1  0.010559  0.332811  0.667189  1
  B  B7  1  0.169327  0.830673  0.169327  1
  B  B8  1  0.830673  0.169327  0.830673  1
  Rh  Rh9  1  0.585160  0.585160  0.914840  1
  Rh  Rh10  1  0.912782  0.912782  0.087218  1
  Rh  Rh11  1  0.414840  0.414840  0.085160  1
  Rh  Rh12  1  0.085160  0.085160  0.414840  1
  Rh  Rh13  1  0.914840  0.914840  0.585160  1
  Rh  Rh14  1  0.250000  0.250000  0.250000  1
  Rh  Rh15  1  0.087218  0.087218  0.912782  1
  Rh  Rh16  1  0.750000  0.750000  0.750000  1
