# generated using pymatgen
data_LaNd3Cd2Cu3Ir
_symmetry_space_group_name_H-M   'P 1'
_cell_length_a   7.79418450
_cell_length_b   7.79418390
_cell_length_c   3.87073400
_cell_angle_alpha   90.00000000
_cell_angle_beta   90.00000000
_cell_angle_gamma   90.42701753
_symmetry_Int_Tables_number   1
_chemical_formula_structural   LaNd3Cd2Cu3Ir
_chemical_formula_sum   'La1 Nd3 Cd2 Cu3 Ir1'
_cell_volume   235.13787886
_cell_formula_units_Z   1
loop_
 _symmetry_equiv_pos_site_id
 _symmetry_equiv_pos_as_xyz
  1  'x, y, z'
loop_
 _atom_site_type_symbol
 _atom_site_label
 _atom_site_symmetry_multiplicity
 _atom_site_fract_x
 _atom_site_fract_y
 _atom_site_fract_z
 _atom_site_occupancy
  La  La0  1  0.688965  0.188965  0.000000  1
  Nd  Nd1  1  0.324739  0.824739  0.000000  1
  Nd  Nd2  1  0.165210  0.319905  0.000000  1
  Nd  Nd3  1  0.819905  0.665210  0.000000  1
  Cd  Cd4  1  0.491448  0.504015  0.500000  1
  Cd  Cd5  1  0.004015  0.991448  0.500000  1
  Cu  Cu6  1  0.122214  0.622214  0.500000  1
  Cu  Cu7  1  0.384087  0.116503  0.500000  1
  Cu  Cu8  1  0.616503  0.884087  0.500000  1
  Ir  Ir9  1  0.882914  0.382914  0.500000  1
