# generated using pymatgen
data_CeCu3AgRh
_symmetry_space_group_name_H-M   'P 1'
_cell_length_a   5.03865885
_cell_length_b   5.03865914
_cell_length_c   5.25907870
_cell_angle_alpha   61.37703354
_cell_angle_beta   61.37704399
_cell_angle_gamma   59.99999450
_symmetry_Int_Tables_number   1
_chemical_formula_structural   CeCu3AgRh
_chemical_formula_sum   'Ce1 Cu3 Ag1 Rh1'
_cell_volume   96.32901356
_cell_formula_units_Z   1
loop_
 _symmetry_equiv_pos_site_id
 _symmetry_equiv_pos_as_xyz
  1  'x, y, z'
loop_
 _atom_site_type_symbol
 _atom_site_label
 _atom_site_symmetry_multiplicity
 _atom_site_fract_x
 _atom_site_fract_y
 _atom_site_fract_z
 _atom_site_occupancy
  Ce  Ce0  1  0.997765  0.997765  0.006705  1
  Cu  Cu1  1  0.626993  0.130485  0.615528  1
  Cu  Cu2  1  0.130485  0.626993  0.615528  1
  Cu  Cu3  1  0.626993  0.626993  0.615528  1
  Ag  Ag4  1  0.239529  0.239529  0.281414  1
  Rh  Rh5  1  0.628235  0.628235  0.115296  1
