# generated using pymatgen
data_Dy5Lu11Cd4TcNi3
_symmetry_space_group_name_H-M   'P 1'
_cell_length_a   9.49226688
_cell_length_b   9.46219382
_cell_length_c   9.46219375
_cell_angle_alpha   59.37008857
_cell_angle_beta   59.34692102
_cell_angle_gamma   59.34691589
_symmetry_Int_Tables_number   1
_chemical_formula_structural   Dy5Lu11Cd4TcNi3
_chemical_formula_sum   'Dy5 Lu11 Cd4 Tc1 Ni3'
_cell_volume   592.12232674
_cell_formula_units_Z   1
loop_
 _symmetry_equiv_pos_site_id
 _symmetry_equiv_pos_as_xyz
  1  'x, y, z'
loop_
 _atom_site_type_symbol
 _atom_site_label
 _atom_site_symmetry_multiplicity
 _atom_site_fract_x
 _atom_site_fract_y
 _atom_site_fract_z
 _atom_site_occupancy
  Dy  Dy0  1  0.802323  0.193100  0.193100  1
  Dy  Dy1  1  0.817190  0.184067  0.814200  1
  Dy  Dy2  1  0.191699  0.804266  0.189845  1
  Dy  Dy3  1  0.817190  0.814200  0.184067  1
  Dy  Dy4  1  0.191699  0.189845  0.804266  1
  Lu  Lu5  1  0.597283  0.596445  0.596445  1
  Lu  Lu6  1  0.601481  0.604955  0.204951  1
  Lu  Lu7  1  0.601481  0.204951  0.604955  1
  Lu  Lu8  1  0.201413  0.603449  0.603449  1
  Lu  Lu9  1  0.062461  0.435284  0.435284  1
  Lu  Lu10  1  0.435386  0.062768  0.062768  1
  Lu  Lu11  1  0.435480  0.061342  0.436773  1
  Lu  Lu12  1  0.063436  0.434724  0.062088  1
  Lu  Lu13  1  0.435480  0.436773  0.061342  1
  Lu  Lu14  1  0.063436  0.062088  0.434724  1
  Lu  Lu15  1  0.189538  0.811180  0.811180  1
  Cd  Cd16  1  0.830943  0.828634  0.828634  1
  Cd  Cd17  1  0.828185  0.829330  0.507052  1
  Cd  Cd18  1  0.828185  0.507052  0.829330  1
  Cd  Cd19  1  0.505077  0.829515  0.829515  1
  Tc  Tc20  1  0.394887  0.394900  0.394900  1
  Ni  Ni21  1  0.390181  0.394583  0.824976  1
  Ni  Ni22  1  0.390181  0.824976  0.394583  1
  Ni  Ni23  1  0.825380  0.391574  0.391574  1
