# generated using pymatgen
data_Li3Ni2H5
_symmetry_space_group_name_H-M   'P 1'
_cell_length_a   4.98389676
_cell_length_b   3.00114769
_cell_length_c   7.01771838
_cell_angle_alpha   129.91468334
_cell_angle_beta   80.68378477
_cell_angle_gamma   107.51051268
_symmetry_Int_Tables_number   1
_chemical_formula_structural   Li3Ni2H5
_chemical_formula_sum   'Li3 Ni2 H5'
_cell_volume   76.70923749
_cell_formula_units_Z   1
loop_
 _symmetry_equiv_pos_site_id
 _symmetry_equiv_pos_as_xyz
  1  'x, y, z'
loop_
 _atom_site_type_symbol
 _atom_site_label
 _atom_site_symmetry_multiplicity
 _atom_site_fract_x
 _atom_site_fract_y
 _atom_site_fract_z
 _atom_site_occupancy
  Li  Li0  1  0.298175  0.389210  0.661141  1
  Li  Li1  1  0.139785  0.044084  0.150985  1
  Li  Li2  1  0.718489  0.717482  0.407277  1
  Ni  Ni3  1  0.548349  0.567310  0.031050  1
  Ni  Ni4  1  0.890115  0.869062  0.783401  1
  H  H5  1  0.432260  0.921907  0.305929  1
  H  H6  1  0.719677  0.253929  0.764079  1
  H  H7  1  0.721355  0.185115  0.051382  1
  H  H8  1  0.999614  0.507332  0.506151  1
  H  H9  1  0.220405  0.215153  0.904474  1
