# generated using pymatgen
data_MnCd(SO4)2
_symmetry_space_group_name_H-M   'P 1'
_cell_length_a   4.95343341
_cell_length_b   4.95343242
_cell_length_c   7.13034362
_cell_angle_alpha   89.91227058
_cell_angle_beta   90.08770518
_cell_angle_gamma   114.50644193
_symmetry_Int_Tables_number   1
_chemical_formula_structural   MnCd(SO4)2
_chemical_formula_sum   'Mn1 Cd1 S2 O8'
_cell_volume   159.19263248
_cell_formula_units_Z   1
loop_
 _symmetry_equiv_pos_site_id
 _symmetry_equiv_pos_as_xyz
  1  'x, y, z'
loop_
 _atom_site_type_symbol
 _atom_site_label
 _atom_site_symmetry_multiplicity
 _atom_site_fract_x
 _atom_site_fract_y
 _atom_site_fract_z
 _atom_site_occupancy
  Mn  Mn0  1  0.999999  0.999999  0.500000  1
  Cd  Cd1  1  0.000000  0.000000  0.000000  1
  S  S2  1  0.648370  0.351630  0.256024  1
  S  S3  1  0.351630  0.648370  0.743976  1
  O  O4  1  0.229293  0.313290  0.737587  1
  O  O5  1  0.770707  0.686710  0.262413  1
  O  O6  1  0.313290  0.229293  0.262413  1
  O  O7  1  0.686710  0.770707  0.737587  1
  O  O8  1  0.264405  0.735595  0.923659  1
  O  O9  1  0.752995  0.247006  0.422072  1
  O  O10  1  0.735595  0.264405  0.076341  1
  O  O11  1  0.247005  0.752995  0.577928  1
