# generated using pymatgen
data_Mg(Si2Ir3)2
_symmetry_space_group_name_H-M   'P 1'
_cell_length_a   7.05368000
_cell_length_b   7.05367994
_cell_length_c   3.75776400
_cell_angle_alpha   90.00000000
_cell_angle_beta   90.00000000
_cell_angle_gamma   120.00000028
_symmetry_Int_Tables_number   1
_chemical_formula_structural   Mg(Si2Ir3)2
_chemical_formula_sum   'Mg1 Si4 Ir6'
_cell_volume   161.91669666
_cell_formula_units_Z   1
loop_
 _symmetry_equiv_pos_site_id
 _symmetry_equiv_pos_as_xyz
  1  'x, y, z'
loop_
 _atom_site_type_symbol
 _atom_site_label
 _atom_site_symmetry_multiplicity
 _atom_site_fract_x
 _atom_site_fract_y
 _atom_site_fract_z
 _atom_site_occupancy
  Mg  Mg0  1  0.000000  0.000000  0.000000  1
  Si  Si1  1  0.803531  0.196469  0.500000  1
  Si  Si2  1  0.392938  0.196469  0.500000  1
  Si  Si3  1  0.333333  0.666667  0.000000  1
  Si  Si4  1  0.803531  0.607062  0.500000  1
  Ir  Ir5  1  0.193276  0.806724  0.500000  1
  Ir  Ir6  1  0.193276  0.386553  0.500000  1
  Ir  Ir7  1  0.532986  0.065971  0.000000  1
  Ir  Ir8  1  0.934029  0.467014  0.000000  1
  Ir  Ir9  1  0.532986  0.467014  0.000000  1
  Ir  Ir10  1  0.613447  0.806724  0.500000  1
