# generated using pymatgen
data_La5Pr11Cd4Co3Ir
_symmetry_space_group_name_H-M   'P 1'
_cell_length_a   9.93692586
_cell_length_b   9.93739561
_cell_length_c   9.93739547
_cell_angle_alpha   59.86834954
_cell_angle_beta   60.29513771
_cell_angle_gamma   60.29512978
_symmetry_Int_Tables_number   1
_chemical_formula_structural   La5Pr11Cd4Co3Ir
_chemical_formula_sum   'La5 Pr11 Cd4 Co3 Ir1'
_cell_volume   696.25362334
_cell_formula_units_Z   1
loop_
 _symmetry_equiv_pos_site_id
 _symmetry_equiv_pos_as_xyz
  1  'x, y, z'
loop_
 _atom_site_type_symbol
 _atom_site_label
 _atom_site_symmetry_multiplicity
 _atom_site_fract_x
 _atom_site_fract_y
 _atom_site_fract_z
 _atom_site_occupancy
  La  La0  1  0.338166  0.349653  0.349653  1
  La  La1  1  0.341001  0.348868  0.960653  1
  La  La2  1  0.341001  0.960653  0.348868  1
  La  La3  1  0.962106  0.347118  0.347118  1
  La  La4  1  0.819593  0.187332  0.187332  1
  Pr  Pr5  1  0.190000  0.810649  0.810649  1
  Pr  Pr6  1  0.192381  0.808604  0.187893  1
  Pr  Pr7  1  0.815401  0.188942  0.802856  1
  Pr  Pr8  1  0.192381  0.187893  0.808604  1
  Pr  Pr9  1  0.815401  0.802856  0.188942  1
  Pr  Pr10  1  0.936797  0.563664  0.563664  1
  Pr  Pr11  1  0.561970  0.938950  0.938950  1
  Pr  Pr12  1  0.562965  0.939166  0.559360  1
  Pr  Pr13  1  0.938105  0.562098  0.937516  1
  Pr  Pr14  1  0.562965  0.559360  0.939166  1
  Pr  Pr15  1  0.938105  0.937516  0.562098  1
  Cd  Cd16  1  0.579733  0.579208  0.579208  1
  Cd  Cd17  1  0.579288  0.580920  0.260936  1
  Cd  Cd18  1  0.579288  0.260936  0.580920  1
  Cd  Cd19  1  0.259573  0.580370  0.580370  1
  Co  Co20  1  0.133030  0.144448  0.144448  1
  Co  Co21  1  0.142069  0.142764  0.574186  1
  Co  Co22  1  0.142069  0.574186  0.142764  1
  Ir  Ir23  1  0.576616  0.143846  0.143846  1
