# generated using pymatgen
data_Rb2TaNb3Br22
_symmetry_space_group_name_H-M   'P 1'
_cell_length_a   7.62875740
_cell_length_b   7.69732884
_cell_length_c   19.03183502
_cell_angle_alpha   79.08686834
_cell_angle_beta   78.95235710
_cell_angle_gamma   88.17182699
_symmetry_Int_Tables_number   1
_chemical_formula_structural   Rb2TaNb3Br22
_chemical_formula_sum   'Rb2 Ta1 Nb3 Br22'
_cell_volume   1077.01140994
_cell_formula_units_Z   1
loop_
 _symmetry_equiv_pos_site_id
 _symmetry_equiv_pos_as_xyz
  1  'x, y, z'
loop_
 _atom_site_type_symbol
 _atom_site_label
 _atom_site_symmetry_multiplicity
 _atom_site_fract_x
 _atom_site_fract_y
 _atom_site_fract_z
 _atom_site_occupancy
  Rb  Rb0  1  0.747596  0.748579  0.503540  1
  Rb  Rb1  1  0.252552  0.251735  0.496012  1
  Ta  Ta2  1  0.324158  0.821613  0.341107  1
  Nb  Nb3  1  0.675191  0.177690  0.660240  1
  Nb  Nb4  1  0.830321  0.329025  0.087382  1
  Nb  Nb5  1  0.169305  0.670694  0.912825  1
  Br  Br6  1  0.254916  0.772352  0.486415  1
  Br  Br7  1  0.745697  0.227892  0.512710  1
  Br  Br8  1  0.573510  0.025908  0.345522  1
  Br  Br9  1  0.425761  0.973561  0.653983  1
  Br  Br10  1  0.536832  0.561468  0.353603  1
  Br  Br11  1  0.462347  0.439347  0.646291  1
  Br  Br12  1  0.385566  0.861581  0.208013  1
  Br  Br13  1  0.613992  0.137755  0.793650  1
  Br  Br14  1  0.067932  0.606936  0.354346  1
  Br  Br15  1  0.932753  0.394108  0.645180  1
  Br  Br16  1  0.107770  0.076287  0.341373  1
  Br  Br17  1  0.893136  0.922650  0.658539  1
  Br  Br18  1  0.900048  0.032499  0.147365  1
  Br  Br19  1  0.099922  0.967503  0.852532  1
  Br  Br20  1  0.528266  0.381229  0.150078  1
  Br  Br21  1  0.471633  0.618665  0.849894  1
  Br  Br22  1  0.722304  0.218565  0.987917  1
  Br  Br23  1  0.278000  0.781866  0.011944  1
  Br  Br24  1  0.973081  0.478209  0.167886  1
  Br  Br25  1  0.027161  0.522026  0.831843  1
  Br  Br26  1  0.166422  0.341381  0.999535  1
  Br  Br27  1  0.833829  0.658877  0.000276  1
