# generated using pymatgen
data_Pr10PPb6Br
_symmetry_space_group_name_H-M   'P 1'
_cell_length_a   9.59648500
_cell_length_b   9.59650202
_cell_length_c   7.11197700
_cell_angle_alpha   90.00002504
_cell_angle_beta   90.00006531
_cell_angle_gamma   119.99994077
_symmetry_Int_Tables_number   1
_chemical_formula_structural   Pr10PPb6Br
_chemical_formula_sum   'Pr10 P1 Pb6 Br1'
_cell_volume   567.21326966
_cell_formula_units_Z   1
loop_
 _symmetry_equiv_pos_site_id
 _symmetry_equiv_pos_as_xyz
  1  'x, y, z'
loop_
 _atom_site_type_symbol
 _atom_site_label
 _atom_site_symmetry_multiplicity
 _atom_site_fract_x
 _atom_site_fract_y
 _atom_site_fract_z
 _atom_site_occupancy
  Pr  Pr0  1  0.248545  0.000002  0.267518  1
  Pr  Pr1  1  0.751454  0.999998  0.732482  1
  Pr  Pr2  1  0.000001  0.248545  0.267517  1
  Pr  Pr3  1  0.999999  0.751455  0.732482  1
  Pr  Pr4  1  0.751455  0.751457  0.267516  1
  Pr  Pr5  1  0.248545  0.248543  0.732483  1
  Pr  Pr6  1  0.333332  0.666668  0.000000  1
  Pr  Pr7  1  0.666668  0.333332  0.000000  1
  Pr  Pr8  1  0.666666  0.333334  0.500000  1
  Pr  Pr9  1  0.333334  0.666666  0.500001  1
  P  P10  1  0.000000  0.000001  0.499999  1
  Pb  Pb11  1  0.604610  0.000001  0.249759  1
  Pb  Pb12  1  0.395391  0.000000  0.750241  1
  Pb  Pb13  1  0.000000  0.604609  0.249760  1
  Pb  Pb14  1  0.000000  0.395390  0.750238  1
  Pb  Pb15  1  0.395391  0.395391  0.249759  1
  Pb  Pb16  1  0.604610  0.604609  0.750243  1
  Br  Br17  1  0.000000  0.000000  0.000001  1
