# generated using pymatgen
data_Zr6Se7S
_symmetry_space_group_name_H-M   'P 1'
_cell_length_a   10.51641800
_cell_length_b   10.51641787
_cell_length_c   3.69045700
_cell_angle_alpha   90.00000000
_cell_angle_beta   90.00000000
_cell_angle_gamma   120.00000584
_symmetry_Int_Tables_number   1
_chemical_formula_structural   Zr6Se7S
_chemical_formula_sum   'Zr6 Se7 S1'
_cell_volume   353.46501100
_cell_formula_units_Z   1
loop_
 _symmetry_equiv_pos_site_id
 _symmetry_equiv_pos_as_xyz
  1  'x, y, z'
loop_
 _atom_site_type_symbol
 _atom_site_label
 _atom_site_symmetry_multiplicity
 _atom_site_fract_x
 _atom_site_fract_y
 _atom_site_fract_z
 _atom_site_occupancy
  Zr  Zr0  1  0.513793  0.643274  0.750000  1
  Zr  Zr1  1  0.864100  0.504969  0.250000  1
  Zr  Zr2  1  0.640870  0.135900  0.250000  1
  Zr  Zr3  1  0.356726  0.870519  0.750000  1
  Zr  Zr4  1  0.129481  0.486207  0.750000  1
  Zr  Zr5  1  0.495031  0.359130  0.250000  1
  Se  Se6  1  0.647246  0.950342  0.750000  1
  Se  Se7  1  0.704094  0.649273  0.250000  1
  Se  Se8  1  0.945178  0.295906  0.250000  1
  Se  Se9  1  0.049658  0.696903  0.750000  1
  Se  Se10  1  0.303097  0.352754  0.750000  1
  Se  Se11  1  0.350727  0.054822  0.250000  1
  Se  Se12  1  0.333333  0.666667  0.250000  1
  S  S13  1  0.666667  0.333333  0.750000  1
