# generated using pymatgen
data_GaReMoO8
_symmetry_space_group_name_H-M   'P 1'
_cell_length_a   5.64990500
_cell_length_b   5.65028329
_cell_length_c   6.29406600
_cell_angle_alpha   90.00973472
_cell_angle_beta   89.99976676
_cell_angle_gamma   120.00084725
_symmetry_Int_Tables_number   1
_chemical_formula_structural   GaReMoO8
_chemical_formula_sum   'Ga1 Re1 Mo1 O8'
_cell_volume   174.00814473
_cell_formula_units_Z   1
loop_
 _symmetry_equiv_pos_site_id
 _symmetry_equiv_pos_as_xyz
  1  'x, y, z'
loop_
 _atom_site_type_symbol
 _atom_site_label
 _atom_site_symmetry_multiplicity
 _atom_site_fract_x
 _atom_site_fract_y
 _atom_site_fract_z
 _atom_site_occupancy
  Ga  Ga0  1  0.000101  0.000064  0.016396  1
  Re  Re1  1  0.666544  0.333259  0.722152  1
  Mo  Mo2  1  0.333417  0.666672  0.279253  1
  O  O3  1  0.333440  0.666844  0.556396  1
  O  O4  1  0.666482  0.333316  0.448081  1
  O  O5  1  0.677677  0.838811  0.180026  1
  O  O6  1  0.161343  0.838758  0.179889  1
  O  O7  1  0.161281  0.322402  0.180008  1
  O  O8  1  0.326459  0.163253  0.812611  1
  O  O9  1  0.836649  0.163285  0.812575  1
  O  O10  1  0.836606  0.673336  0.812618  1
