# generated using pymatgen
data_Tm5(FeB3)2
_symmetry_space_group_name_H-M   'P 1'
_cell_length_a   5.38537094
_cell_length_b   5.38537053
_cell_length_c   8.13482180
_cell_angle_alpha   70.67007055
_cell_angle_beta   70.67007086
_cell_angle_gamma   59.99999818
_symmetry_Int_Tables_number   1
_chemical_formula_structural   Tm5(FeB3)2
_chemical_formula_sum   'Tm5 Fe2 B6'
_cell_volume   188.80630051
_cell_formula_units_Z   1
loop_
 _symmetry_equiv_pos_site_id
 _symmetry_equiv_pos_as_xyz
  1  'x, y, z'
loop_
 _atom_site_type_symbol
 _atom_site_label
 _atom_site_symmetry_multiplicity
 _atom_site_fract_x
 _atom_site_fract_y
 _atom_site_fract_z
 _atom_site_occupancy
  Tm  Tm0  1  0.000000  0.000000  0.000000  1
  Tm  Tm1  1  0.748674  0.748674  0.753979  1
  Tm  Tm2  1  0.251326  0.251326  0.246021  1
  Tm  Tm3  1  0.583698  0.583698  0.248907  1
  Tm  Tm4  1  0.416302  0.416302  0.751093  1
  Fe  Fe5  1  0.883250  0.883250  0.350250  1
  Fe  Fe6  1  0.116750  0.116750  0.649750  1
  B  B7  1  0.500000  0.168419  0.500000  1
  B  B8  1  0.831581  0.500000  0.500000  1
  B  B9  1  0.168419  0.831581  0.500000  1
  B  B10  1  0.168419  0.500000  0.500000  1
  B  B11  1  0.831581  0.168419  0.500000  1
  B  B12  1  0.500000  0.831581  0.500000  1
