# generated using pymatgen
data_YTmMn2Co10P7
_symmetry_space_group_name_H-M   'P 1'
_cell_length_a   9.06389004
_cell_length_b   9.04792220
_cell_length_c   3.60337100
_cell_angle_alpha   90.00000000
_cell_angle_beta   90.00000000
_cell_angle_gamma   119.93346693
_symmetry_Int_Tables_number   1
_chemical_formula_structural   YTmMn2Co10P7
_chemical_formula_sum   'Y1 Tm1 Mn2 Co10 P7'
_cell_volume   256.09073728
_cell_formula_units_Z   1
loop_
 _symmetry_equiv_pos_site_id
 _symmetry_equiv_pos_as_xyz
  1  'x, y, z'
loop_
 _atom_site_type_symbol
 _atom_site_label
 _atom_site_symmetry_multiplicity
 _atom_site_fract_x
 _atom_site_fract_y
 _atom_site_fract_z
 _atom_site_occupancy
  Y  Y0  1  0.999273  0.997666  0.000000  1
  Tm  Tm1  1  0.665974  0.333171  0.500000  1
  Mn  Mn2  1  0.434940  0.888197  0.500000  1
  Mn  Mn3  1  0.112724  0.545523  0.500000  1
  Co  Co4  1  0.700585  0.605009  0.000000  1
  Co  Co5  1  0.395459  0.098271  0.000000  1
  Co  Co6  1  0.902432  0.297986  0.000000  1
  Co  Co7  1  0.216684  0.391606  0.000000  1
  Co  Co8  1  0.608155  0.823486  0.000000  1
  Co  Co9  1  0.174687  0.782186  0.000000  1
  Co  Co10  1  0.285791  0.232571  0.500000  1
  Co  Co11  1  0.769642  0.052714  0.500000  1
  Co  Co12  1  0.944893  0.715142  0.500000  1
  Co  Co13  1  0.458457  0.573170  0.500000  1
  P  P14  1  0.445888  0.368163  0.000000  1
  P  P15  1  0.633525  0.079744  0.000000  1
  P  P16  1  0.918482  0.553609  0.000000  1
  P  P17  1  0.043800  0.259556  0.500000  1
  P  P18  1  0.734550  0.779737  0.500000  1
  P  P19  1  0.219146  0.955609  0.500000  1
  P  P20  1  0.334913  0.666887  0.000000  1
