# generated using pymatgen
data_SrHo6FeBr12
_symmetry_space_group_name_H-M   'P 1'
_cell_length_a   9.22067798
_cell_length_b   9.22067840
_cell_length_c   9.22067794
_cell_angle_alpha   105.93615100
_cell_angle_beta   105.93616057
_cell_angle_gamma   105.93615681
_symmetry_Int_Tables_number   1
_chemical_formula_structural   SrHo6FeBr12
_chemical_formula_sum   'Sr1 Ho6 Fe1 Br12'
_cell_volume   670.92747841
_cell_formula_units_Z   1
loop_
 _symmetry_equiv_pos_site_id
 _symmetry_equiv_pos_as_xyz
  1  'x, y, z'
loop_
 _atom_site_type_symbol
 _atom_site_label
 _atom_site_symmetry_multiplicity
 _atom_site_fract_x
 _atom_site_fract_y
 _atom_site_fract_z
 _atom_site_occupancy
  Sr  Sr0  1  0.000000  0.000000  0.000000  1
  Ho  Ho1  1  0.407047  0.484107  0.202715  1
  Ho  Ho2  1  0.202715  0.407047  0.484107  1
  Ho  Ho3  1  0.484107  0.202715  0.407047  1
  Ho  Ho4  1  0.592953  0.515893  0.797285  1
  Ho  Ho5  1  0.797285  0.592953  0.515893  1
  Ho  Ho6  1  0.515893  0.797285  0.592953  1
  Fe  Fe7  1  0.500000  0.500000  0.500000  1
  Br  Br8  1  0.061279  0.364270  0.140856  1
  Br  Br9  1  0.140856  0.061279  0.364270  1
  Br  Br10  1  0.364270  0.140856  0.061279  1
  Br  Br11  1  0.938721  0.635730  0.859144  1
  Br  Br12  1  0.859144  0.938721  0.635730  1
  Br  Br13  1  0.635730  0.859144  0.938721  1
  Br  Br14  1  0.721561  0.574737  0.179781  1
  Br  Br15  1  0.179781  0.721561  0.574737  1
  Br  Br16  1  0.574737  0.179781  0.721561  1
  Br  Br17  1  0.278439  0.425263  0.820219  1
  Br  Br18  1  0.820219  0.278439  0.425263  1
  Br  Br19  1  0.425263  0.820219  0.278439  1
