# generated using pymatgen
data_Y16Ho3InIr12
_symmetry_space_group_name_H-M   'P 1'
_cell_length_a   10.90322000
_cell_length_b   10.90322000
_cell_length_c   6.33390500
_cell_angle_alpha   90.00000000
_cell_angle_beta   90.00000000
_cell_angle_gamma   90.00000000
_symmetry_Int_Tables_number   1
_chemical_formula_structural   Y16Ho3InIr12
_chemical_formula_sum   'Y16 Ho3 In1 Ir12'
_cell_volume   752.97593352
_cell_formula_units_Z   1
loop_
 _symmetry_equiv_pos_site_id
 _symmetry_equiv_pos_as_xyz
  1  'x, y, z'
loop_
 _atom_site_type_symbol
 _atom_site_label
 _atom_site_symmetry_multiplicity
 _atom_site_fract_x
 _atom_site_fract_y
 _atom_site_fract_z
 _atom_site_occupancy
  Y  Y0  1  0.284233  0.085031  0.379276  1
  Y  Y1  1  0.290693  0.911573  0.879698  1
  Y  Y2  1  0.709307  0.088427  0.879698  1
  Y  Y3  1  0.715767  0.914969  0.379276  1
  Y  Y4  1  0.588247  0.791505  0.880475  1
  Y  Y5  1  0.587995  0.208443  0.377213  1
  Y  Y6  1  0.412005  0.791557  0.377213  1
  Y  Y7  1  0.411753  0.208495  0.880475  1
  Y  Y8  1  0.208443  0.412005  0.622787  1
  Y  Y9  1  0.208495  0.588247  0.119525  1
  Y  Y10  1  0.791505  0.411753  0.119525  1
  Y  Y11  1  0.791557  0.587995  0.622787  1
  Y  Y12  1  0.911573  0.709307  0.120302  1
  Y  Y13  1  0.914969  0.284233  0.620724  1
  Y  Y14  1  0.085031  0.715767  0.620724  1
  Y  Y15  1  0.088427  0.290693  0.120302  1
  Ho  Ho16  1  0.000000  0.000000  0.000000  1
  Ho  Ho17  1  0.500000  0.500000  0.000000  1
  Ho  Ho18  1  0.500000  0.500000  0.500000  1
  In  In19  1  0.000000  0.000000  0.500000  1
  Ir  Ir20  1  0.846276  0.155184  0.245529  1
  Ir  Ir21  1  0.844816  0.846276  0.754471  1
  Ir  Ir22  1  0.155184  0.153724  0.754471  1
  Ir  Ir23  1  0.153724  0.844816  0.245529  1
  Ir  Ir24  1  0.653790  0.347190  0.747506  1
  Ir  Ir25  1  0.652810  0.653790  0.252494  1
  Ir  Ir26  1  0.347190  0.346210  0.252494  1
  Ir  Ir27  1  0.346210  0.652810  0.747506  1
  Ir  Ir28  1  0.500000  0.000000  0.125200  1
  Ir  Ir29  1  0.500000  0.000000  0.620806  1
  Ir  Ir30  1  0.000000  0.500000  0.874800  1
  Ir  Ir31  1  0.000000  0.500000  0.379194  1
