# generated using pymatgen
data_Sr2HoTm(LuSe4)2
_symmetry_space_group_name_H-M   'P 1'
_cell_length_a   4.10715300
_cell_length_b   12.56129500
_cell_length_c   14.84047800
_cell_angle_alpha   90.00000000
_cell_angle_beta   90.00000000
_cell_angle_gamma   90.00000000
_symmetry_Int_Tables_number   1
_chemical_formula_structural   Sr2HoTm(LuSe4)2
_chemical_formula_sum   'Sr4 Ho2 Tm2 Lu4 Se16'
_cell_volume   765.63748155
_cell_formula_units_Z   2
loop_
 _symmetry_equiv_pos_site_id
 _symmetry_equiv_pos_as_xyz
  1  'x, y, z'
loop_
 _atom_site_type_symbol
 _atom_site_label
 _atom_site_symmetry_multiplicity
 _atom_site_fract_x
 _atom_site_fract_y
 _atom_site_fract_z
 _atom_site_occupancy
  Sr  Sr0  1  0.250000  0.760102  0.333843  1
  Sr  Sr1  1  0.250000  0.260102  0.166157  1
  Sr  Sr2  1  0.750000  0.239854  0.666282  1
  Sr  Sr3  1  0.750000  0.739854  0.833718  1
  Ho  Ho4  1  0.250000  0.438705  0.389156  1
  Ho  Ho5  1  0.250000  0.938705  0.110844  1
  Tm  Tm6  1  0.750000  0.560971  0.611005  1
  Tm  Tm7  1  0.750000  0.060971  0.888995  1
  Lu  Lu8  1  0.250000  0.417398  0.902637  1
  Lu  Lu9  1  0.250000  0.917398  0.597363  1
  Lu  Lu10  1  0.750000  0.582590  0.097276  1
  Lu  Lu11  1  0.750000  0.082590  0.402724  1
  Se  Se12  1  0.250000  0.205333  0.831545  1
  Se  Se13  1  0.250000  0.705333  0.668455  1
  Se  Se14  1  0.750000  0.793846  0.168948  1
  Se  Se15  1  0.750000  0.293846  0.331052  1
  Se  Se16  1  0.250000  0.127343  0.530082  1
  Se  Se17  1  0.250000  0.627343  0.969918  1
  Se  Se18  1  0.750000  0.872739  0.469952  1
  Se  Se19  1  0.750000  0.372739  0.030048  1
  Se  Se20  1  0.250000  0.028764  0.285815  1
  Se  Se21  1  0.250000  0.528764  0.214185  1
  Se  Se22  1  0.750000  0.971498  0.714650  1
  Se  Se23  1  0.750000  0.471498  0.785350  1
  Se  Se24  1  0.250000  0.409410  0.577452  1
  Se  Se25  1  0.250000  0.909410  0.922548  1
  Se  Se26  1  0.750000  0.591448  0.423500  1
  Se  Se27  1  0.750000  0.091448  0.076500  1
