# generated using pymatgen
data_Y8Ta11Si16W
_symmetry_space_group_name_H-M   'P 1'
_cell_length_a   6.84321800
_cell_length_b   7.04987703
_cell_length_c   13.38105500
_cell_angle_alpha   90.00000000
_cell_angle_beta   90.00000000
_cell_angle_gamma   89.99593901
_symmetry_Int_Tables_number   1
_chemical_formula_structural   Y8Ta11Si16W
_chemical_formula_sum   'Y8 Ta11 Si16 W1'
_cell_volume   645.55354672
_cell_formula_units_Z   1
loop_
 _symmetry_equiv_pos_site_id
 _symmetry_equiv_pos_as_xyz
  1  'x, y, z'
loop_
 _atom_site_type_symbol
 _atom_site_label
 _atom_site_symmetry_multiplicity
 _atom_site_fract_x
 _atom_site_fract_y
 _atom_site_fract_z
 _atom_site_occupancy
  Y  Y0  1  0.501800  0.329043  0.095972  1
  Y  Y1  1  0.001008  0.171509  0.404183  1
  Y  Y2  1  0.498062  0.671481  0.595530  1
  Y  Y3  1  0.997893  0.828599  0.904317  1
  Y  Y4  1  0.498062  0.671481  0.904470  1
  Y  Y5  1  0.997893  0.828599  0.595683  1
  Y  Y6  1  0.501800  0.329043  0.404028  1
  Y  Y7  1  0.001008  0.171509  0.095817  1
  Ta  Ta8  1  0.662914  0.009154  0.750000  1
  Ta  Ta9  1  0.162427  0.490158  0.750000  1
  Ta  Ta10  1  0.336920  0.990047  0.250000  1
  Ta  Ta11  1  0.837584  0.325422  0.625245  1
  Ta  Ta12  1  0.337286  0.174628  0.874485  1
  Ta  Ta13  1  0.162915  0.673184  0.126179  1
  Ta  Ta14  1  0.663240  0.825434  0.373882  1
  Ta  Ta15  1  0.162915  0.673184  0.373821  1
  Ta  Ta16  1  0.663240  0.825434  0.126118  1
  Ta  Ta17  1  0.837584  0.325422  0.874755  1
  Ta  Ta18  1  0.337286  0.174628  0.625515  1
  Si  Si19  1  0.796480  0.627667  0.750000  1
  Si  Si20  1  0.296673  0.871717  0.750000  1
  Si  Si21  1  0.199813  0.372462  0.250000  1
  Si  Si22  1  0.702756  0.130056  0.250000  1
  Si  Si23  1  0.541756  0.376802  0.750000  1
  Si  Si24  1  0.041083  0.122211  0.750000  1
  Si  Si25  1  0.461171  0.621881  0.250000  1
  Si  Si26  1  0.958547  0.876482  0.250000  1
  Si  Si27  1  0.664179  0.036846  0.540835  1
  Si  Si28  1  0.164715  0.463145  0.959435  1
  Si  Si29  1  0.335775  0.963296  0.041119  1
  Si  Si30  1  0.836049  0.537566  0.458159  1
  Si  Si31  1  0.335775  0.963296  0.458881  1
  Si  Si32  1  0.836049  0.537566  0.041841  1
  Si  Si33  1  0.664179  0.036846  0.959165  1
  Si  Si34  1  0.164715  0.463145  0.540565  1
  W  W35  1  0.838447  0.511049  0.250000  1
