# generated using pymatgen
data_Tb4HgPd11
_symmetry_space_group_name_H-M   'P 1'
_cell_length_a   4.21065500
_cell_length_b   5.88489029
_cell_length_c   11.73219800
_cell_angle_alpha   86.85482450
_cell_angle_beta   90.00000000
_cell_angle_gamma   90.00000000
_symmetry_Int_Tables_number   1
_chemical_formula_structural   Tb4HgPd11
_chemical_formula_sum   'Tb4 Hg1 Pd11'
_cell_volume   290.27708389
_cell_formula_units_Z   1
loop_
 _symmetry_equiv_pos_site_id
 _symmetry_equiv_pos_as_xyz
  1  'x, y, z'
loop_
 _atom_site_type_symbol
 _atom_site_label
 _atom_site_symmetry_multiplicity
 _atom_site_fract_x
 _atom_site_fract_y
 _atom_site_fract_z
 _atom_site_occupancy
  Tb  Tb0  1  0.500000  0.758524  0.377087  1
  Tb  Tb1  1  0.500000  0.719066  0.862264  1
  Tb  Tb2  1  0.500000  0.280934  0.137736  1
  Tb  Tb3  1  0.500000  0.241476  0.622913  1
  Hg  Hg4  1  0.000000  0.000000  0.000000  1
  Pd  Pd5  1  0.000000  0.018276  0.251770  1
  Pd  Pd6  1  0.000000  0.981724  0.748230  1
  Pd  Pd7  1  0.000000  0.500000  0.000000  1
  Pd  Pd8  1  0.000000  0.500000  0.500000  1
  Pd  Pd9  1  0.000000  0.520460  0.250920  1
  Pd  Pd10  1  0.000000  0.479540  0.749080  1
  Pd  Pd11  1  0.500000  0.258823  0.377350  1
  Pd  Pd12  1  0.500000  0.230632  0.877500  1
  Pd  Pd13  1  0.500000  0.769368  0.122500  1
  Pd  Pd14  1  0.500000  0.741177  0.622650  1
  Pd  Pd15  1  0.000000  0.000000  0.500000  1
