# generated using pymatgen
data_La4Ho6OsRh3
_symmetry_space_group_name_H-M   'P 1'
_cell_length_a   6.52207311
_cell_length_b   7.21866291
_cell_length_c   8.90732100
_cell_angle_alpha   96.50360411
_cell_angle_beta   111.59742773
_cell_angle_gamma   90.05194017
_symmetry_Int_Tables_number   1
_chemical_formula_structural   La4Ho6OsRh3
_chemical_formula_sum   'La4 Ho6 Os1 Rh3'
_cell_volume   386.99894449
_cell_formula_units_Z   1
loop_
 _symmetry_equiv_pos_site_id
 _symmetry_equiv_pos_as_xyz
  1  'x, y, z'
loop_
 _atom_site_type_symbol
 _atom_site_label
 _atom_site_symmetry_multiplicity
 _atom_site_fract_x
 _atom_site_fract_y
 _atom_site_fract_z
 _atom_site_occupancy
  La  La0  1  0.986219  0.916449  0.197132  1
  La  La1  1  0.784720  0.582494  0.801729  1
  La  La2  1  0.019872  0.084412  0.806253  1
  La  La3  1  0.218142  0.416491  0.198496  1
  Ho  Ho4  1  0.636547  0.815390  0.428292  1
  Ho  Ho5  1  0.205213  0.686753  0.570483  1
  Ho  Ho6  1  0.366066  0.184072  0.565475  1
  Ho  Ho7  1  0.792286  0.311228  0.429417  1
  Ho  Ho8  1  0.428966  0.754381  0.003333  1
  Ho  Ho9  1  0.570227  0.248653  0.000974  1
  Os  Os10  1  0.405785  0.078657  0.224062  1
  Rh  Rh11  1  0.813274  0.576492  0.226522  1
  Rh  Rh12  1  0.588591  0.921430  0.776780  1
  Rh  Rh13  1  0.184092  0.423096  0.771052  1
