# generated using pymatgen
data_Pr2Pd5Au
_symmetry_space_group_name_H-M   'P 1'
_cell_length_a   5.99058972
_cell_length_b   5.99059008
_cell_length_c   4.27594000
_cell_angle_alpha   90.00000000
_cell_angle_beta   90.00000000
_cell_angle_gamma   91.86836603
_symmetry_Int_Tables_number   1
_chemical_formula_structural   Pr2Pd5Au
_chemical_formula_sum   'Pr2 Pd5 Au1'
_cell_volume   153.36979486
_cell_formula_units_Z   1
loop_
 _symmetry_equiv_pos_site_id
 _symmetry_equiv_pos_as_xyz
  1  'x, y, z'
loop_
 _atom_site_type_symbol
 _atom_site_label
 _atom_site_symmetry_multiplicity
 _atom_site_fract_x
 _atom_site_fract_y
 _atom_site_fract_z
 _atom_site_occupancy
  Pr  Pr0  1  0.741761  0.258239  0.000000  1
  Pr  Pr1  1  0.258239  0.741761  0.000000  1
  Pd  Pd2  1  0.246273  0.246273  0.000000  1
  Pd  Pd3  1  0.753728  0.753728  0.000000  1
  Pd  Pd4  1  0.500000  0.000000  0.500000  1
  Pd  Pd5  1  0.000000  0.500000  0.500000  1
  Pd  Pd6  1  0.500000  0.500000  0.500000  1
  Au  Au7  1  0.000000  0.000000  0.500000  1
