# generated using pymatgen
data_Sr4Sb2Te
_symmetry_space_group_name_H-M   'P 1'
_cell_length_a   8.70015951
_cell_length_b   8.70010097
_cell_length_c   8.68831518
_cell_angle_alpha   109.36328007
_cell_angle_beta   109.48390934
_cell_angle_gamma   109.53874095
_symmetry_Int_Tables_number   1
_chemical_formula_structural   Sr4Sb2Te
_chemical_formula_sum   'Sr8 Sb4 Te2'
_cell_volume   506.42242811
_cell_formula_units_Z   2
loop_
 _symmetry_equiv_pos_site_id
 _symmetry_equiv_pos_as_xyz
  1  'x, y, z'
loop_
 _atom_site_type_symbol
 _atom_site_label
 _atom_site_symmetry_multiplicity
 _atom_site_fract_x
 _atom_site_fract_y
 _atom_site_fract_z
 _atom_site_occupancy
  Sr  Sr0  1  0.497489  0.997102  0.639212  1
  Sr  Sr1  1  0.147987  0.499351  0.995921  1
  Sr  Sr2  1  0.370743  0.368019  0.363616  1
  Sr  Sr3  1  0.001935  0.144617  0.509853  1
  Sr  Sr4  1  0.852013  0.851364  0.847934  1
  Sr  Sr5  1  0.998065  0.642682  0.507918  1
  Sr  Sr6  1  0.502511  0.999613  0.141723  1
  Sr  Sr7  1  0.629257  0.497277  0.992873  1
  Sb  Sb8  1  0.375090  0.627931  0.747911  1
  Sb  Sb9  1  0.249211  0.122491  0.877166  1
  Sb  Sb10  1  0.750789  0.373280  0.627956  1
  Sb  Sb11  1  0.624910  0.752840  0.372821  1
  Te  Te12  1  0.879778  0.251605  0.127437  1
  Te  Te13  1  0.120222  0.871827  0.247658  1
