# generated using pymatgen
data_Pa2Ta3Si7Rh9
_symmetry_space_group_name_H-M   'P 1'
_cell_length_a   3.96324800
_cell_length_b   9.63129313
_cell_length_c   9.63126300
_cell_angle_alpha   119.99998239
_cell_angle_beta   90.00004337
_cell_angle_gamma   90.00003780
_symmetry_Int_Tables_number   1
_chemical_formula_structural   Pa2Ta3Si7Rh9
_chemical_formula_sum   'Pa2 Ta3 Si7 Rh9'
_cell_volume   318.38294892
_cell_formula_units_Z   1
loop_
 _symmetry_equiv_pos_site_id
 _symmetry_equiv_pos_as_xyz
  1  'x, y, z'
loop_
 _atom_site_type_symbol
 _atom_site_label
 _atom_site_symmetry_multiplicity
 _atom_site_fract_x
 _atom_site_fract_y
 _atom_site_fract_z
 _atom_site_occupancy
  Pa  Pa0  1  0.261902  0.666657  0.333348  1
  Pa  Pa1  1  0.761876  0.333352  0.666642  1
  Ta  Ta2  1  0.761924  0.107988  0.889550  1
  Ta  Ta3  1  0.761926  0.110451  0.218434  1
  Ta  Ta4  1  0.761924  0.781568  0.892016  1
  Si  Si5  1  0.261953  0.999998  0.000002  1
  Si  Si6  1  0.761881  0.879803  0.590948  1
  Si  Si7  1  0.761883  0.409053  0.288847  1
  Si  Si8  1  0.761884  0.711145  0.120200  1
  Si  Si9  1  0.261914  0.113648  0.416747  1
  Si  Si10  1  0.261912  0.583257  0.696924  1
  Si  Si11  1  0.261912  0.303090  0.886328  1
  Rh  Rh12  1  0.261899  0.880355  0.160041  1
  Rh  Rh13  1  0.261902  0.839955  0.720313  1
  Rh  Rh14  1  0.261901  0.279696  0.119664  1
  Rh  Rh15  1  0.761902  0.611546  0.559125  1
  Rh  Rh16  1  0.761905  0.440878  0.052434  1
  Rh  Rh17  1  0.761903  0.947567  0.388450  1
  Rh  Rh18  1  0.261896  0.367046  0.435325  1
  Rh  Rh19  1  0.261906  0.564666  0.931719  1
  Rh  Rh20  1  0.261900  0.068283  0.632943  1
