# generated using pymatgen
data_Y5Ho(Si3Ru)8
_symmetry_space_group_name_H-M   'P 1'
_cell_length_a   10.12326018
_cell_length_b   10.12326001
_cell_length_c   8.15091214
_cell_angle_alpha   89.99147177
_cell_angle_beta   89.99147667
_cell_angle_gamma   132.53560989
_symmetry_Int_Tables_number   1
_chemical_formula_structural   Y5Ho(Si3Ru)8
_chemical_formula_sum   'Y5 Ho1 Si24 Ru8'
_cell_volume   615.50327479
_cell_formula_units_Z   1
loop_
 _symmetry_equiv_pos_site_id
 _symmetry_equiv_pos_as_xyz
  1  'x, y, z'
loop_
 _atom_site_type_symbol
 _atom_site_label
 _atom_site_symmetry_multiplicity
 _atom_site_fract_x
 _atom_site_fract_y
 _atom_site_fract_z
 _atom_site_occupancy
  Y  Y0  1  0.500000  0.500000  0.500000  1
  Y  Y1  1  0.502549  0.002619  0.750139  1
  Y  Y2  1  0.997381  0.497451  0.249861  1
  Y  Y3  1  0.497451  0.997381  0.249861  1
  Y  Y4  1  0.002619  0.502549  0.750139  1
  Ho  Ho5  1  0.000000  0.000000  0.000000  1
  Si  Si6  1  0.794733  0.205267  0.500000  1
  Si  Si7  1  0.294581  0.705419  0.000000  1
  Si  Si8  1  0.205267  0.794733  0.500000  1
  Si  Si9  1  0.705419  0.294581  0.000000  1
  Si  Si10  1  0.332839  0.332839  0.833419  1
  Si  Si11  1  0.667161  0.667161  0.166581  1
  Si  Si12  1  0.166972  0.166972  0.333160  1
  Si  Si13  1  0.833028  0.833028  0.666840  1
  Si  Si14  1  0.122380  0.888412  0.728701  1
  Si  Si15  1  0.111588  0.877620  0.271299  1
  Si  Si16  1  0.612085  0.377823  0.228252  1
  Si  Si17  1  0.622177  0.387915  0.771748  1
  Si  Si18  1  0.877620  0.111588  0.271299  1
  Si  Si19  1  0.888412  0.122380  0.728701  1
  Si  Si20  1  0.387915  0.622177  0.771748  1
  Si  Si21  1  0.377823  0.612085  0.228252  1
  Si  Si22  1  0.345125  0.111781  0.505423  1
  Si  Si23  1  0.888219  0.654875  0.494577  1
  Si  Si24  1  0.388042  0.154791  0.005376  1
  Si  Si25  1  0.845209  0.611958  0.994624  1
  Si  Si26  1  0.654875  0.888219  0.494577  1
  Si  Si27  1  0.111781  0.345125  0.505423  1
  Si  Si28  1  0.611958  0.845209  0.994624  1
  Si  Si29  1  0.154791  0.388042  0.005376  1
  Ru  Ru30  1  0.669024  0.330976  0.500000  1
  Ru  Ru31  1  0.168661  0.831339  0.000000  1
  Ru  Ru32  1  0.330976  0.669024  0.500000  1
  Ru  Ru33  1  0.831339  0.168661  0.000000  1
  Ru  Ru34  1  0.126178  0.126178  0.627787  1
  Ru  Ru35  1  0.873822  0.873822  0.372213  1
  Ru  Ru36  1  0.373112  0.373112  0.126662  1
  Ru  Ru37  1  0.626888  0.626888  0.873338  1
