# generated using pymatgen
data_Dy4TlPd
_symmetry_space_group_name_H-M   'P 1'
_cell_length_a   9.75927469
_cell_length_b   9.75927420
_cell_length_c   9.75927400
_cell_angle_alpha   60.00000066
_cell_angle_beta   60.00000233
_cell_angle_gamma   59.99999989
_symmetry_Int_Tables_number   1
_chemical_formula_structural   Dy4TlPd
_chemical_formula_sum   'Dy16 Tl4 Pd4'
_cell_volume   657.26057894
_cell_formula_units_Z   4
loop_
 _symmetry_equiv_pos_site_id
 _symmetry_equiv_pos_as_xyz
  1  'x, y, z'
loop_
 _atom_site_type_symbol
 _atom_site_label
 _atom_site_symmetry_multiplicity
 _atom_site_fract_x
 _atom_site_fract_y
 _atom_site_fract_z
 _atom_site_occupancy
  Dy  Dy0  1  0.603271  0.603271  0.603271  1
  Dy  Dy1  1  0.603271  0.603271  0.190188  1
  Dy  Dy2  1  0.603271  0.190188  0.603271  1
  Dy  Dy3  1  0.190188  0.603271  0.603271  1
  Dy  Dy4  1  0.062097  0.437903  0.437903  1
  Dy  Dy5  1  0.437903  0.062097  0.062097  1
  Dy  Dy6  1  0.437903  0.062097  0.437903  1
  Dy  Dy7  1  0.062097  0.437903  0.062097  1
  Dy  Dy8  1  0.437903  0.437903  0.062097  1
  Dy  Dy9  1  0.062097  0.062097  0.437903  1
  Dy  Dy10  1  0.188072  0.811928  0.811928  1
  Dy  Dy11  1  0.811928  0.188072  0.188072  1
  Dy  Dy12  1  0.811928  0.188072  0.811928  1
  Dy  Dy13  1  0.188072  0.811928  0.188072  1
  Dy  Dy14  1  0.811928  0.811928  0.188072  1
  Dy  Dy15  1  0.188072  0.188072  0.811928  1
  Tl  Tl16  1  0.836587  0.836587  0.836587  1
  Tl  Tl17  1  0.836587  0.836587  0.490242  1
  Tl  Tl18  1  0.836587  0.490242  0.836587  1
  Tl  Tl19  1  0.490242  0.836587  0.836587  1
  Pd  Pd20  1  0.394801  0.394801  0.394801  1
  Pd  Pd21  1  0.394801  0.394801  0.815596  1
  Pd  Pd22  1  0.394801  0.815596  0.394801  1
  Pd  Pd23  1  0.815596  0.394801  0.394801  1
