# generated using pymatgen
data_Ce2Sc3Co2
_symmetry_space_group_name_H-M   'P 1'
_cell_length_a   6.08167310
_cell_length_b   6.56439801
_cell_length_c   8.38955400
_cell_angle_alpha   95.54000675
_cell_angle_beta   111.25104453
_cell_angle_gamma   89.99999026
_symmetry_Int_Tables_number   1
_chemical_formula_structural   Ce2Sc3Co2
_chemical_formula_sum   'Ce4 Sc6 Co4'
_cell_volume   310.47800228
_cell_formula_units_Z   2
loop_
 _symmetry_equiv_pos_site_id
 _symmetry_equiv_pos_as_xyz
  1  'x, y, z'
loop_
 _atom_site_type_symbol
 _atom_site_label
 _atom_site_symmetry_multiplicity
 _atom_site_fract_x
 _atom_site_fract_y
 _atom_site_fract_z
 _atom_site_occupancy
  Ce  Ce0  1  0.522966  0.097799  0.806774  1
  Ce  Ce1  1  0.477034  0.902201  0.193226  1
  Ce  Ce2  1  0.716192  0.402201  0.193226  1
  Ce  Ce3  1  0.283808  0.597799  0.806774  1
  Sc  Sc4  1  0.293174  0.322349  0.429865  1
  Sc  Sc5  1  0.706826  0.677651  0.570135  1
  Sc  Sc6  1  0.863310  0.177651  0.570135  1
  Sc  Sc7  1  0.136690  0.822349  0.429865  1
  Sc  Sc8  1  0.079853  0.250000  0.000000  1
  Sc  Sc9  1  0.920147  0.750000  0.000000  1
  Co  Co10  1  0.333636  0.592615  0.226680  1
  Co  Co11  1  0.666364  0.407385  0.773320  1
  Co  Co12  1  0.106958  0.907385  0.773320  1
  Co  Co13  1  0.893042  0.092615  0.226680  1
