# generated using pymatgen
data_MgTe19
_symmetry_space_group_name_H-M   'P 1'
_cell_length_a   7.96740280
_cell_length_b   8.94102754
_cell_length_c   10.12016500
_cell_angle_alpha   103.09486428
_cell_angle_beta   96.93454965
_cell_angle_gamma   107.31739481
_symmetry_Int_Tables_number   1
_chemical_formula_structural   MgTe19
_chemical_formula_sum   'Mg1 Te19'
_cell_volume   656.48094483
_cell_formula_units_Z   1
loop_
 _symmetry_equiv_pos_site_id
 _symmetry_equiv_pos_as_xyz
  1  'x, y, z'
loop_
 _atom_site_type_symbol
 _atom_site_label
 _atom_site_symmetry_multiplicity
 _atom_site_fract_x
 _atom_site_fract_y
 _atom_site_fract_z
 _atom_site_occupancy
  Mg  Mg0  1  0.000000  0.500000  0.000000  1
  Te  Te1  1  0.790106  0.581018  0.619356  1
  Te  Te2  1  0.640437  0.210760  0.201654  1
  Te  Te3  1  0.359563  0.789240  0.798346  1
  Te  Te4  1  0.597182  0.690013  0.192063  1
  Te  Te5  1  0.209894  0.418982  0.380644  1
  Te  Te6  1  0.402818  0.309987  0.807937  1
  Te  Te7  1  0.000000  0.000000  0.000000  1
  Te  Te8  1  0.196995  0.909497  0.393530  1
  Te  Te9  1  0.803005  0.090503  0.606470  1
  Te  Te10  1  0.705855  0.632083  0.907726  1
  Te  Te11  1  0.518929  0.260301  0.499565  1
  Te  Te12  1  0.717828  0.156085  0.909011  1
  Te  Te13  1  0.282172  0.843915  0.090989  1
  Te  Te14  1  0.481071  0.739699  0.500435  1
  Te  Te15  1  0.097335  0.462175  0.717163  1
  Te  Te16  1  0.294145  0.367917  0.092274  1
  Te  Te17  1  0.911702  0.038911  0.297717  1
  Te  Te18  1  0.088298  0.961089  0.702283  1
  Te  Te19  1  0.902665  0.537825  0.282837  1
