# generated using pymatgen
data_DyY19(FeHg3)2
_symmetry_space_group_name_H-M   'P 1'
_cell_length_a   9.63967917
_cell_length_b   9.63967972
_cell_length_c   9.66493182
_cell_angle_alpha   90.07582013
_cell_angle_beta   89.92418340
_cell_angle_gamma   120.01280710
_symmetry_Int_Tables_number   1
_chemical_formula_structural   DyY19(FeHg3)2
_chemical_formula_sum   'Dy1 Y19 Fe2 Hg6'
_cell_volume   777.67482929
_cell_formula_units_Z   1
loop_
 _symmetry_equiv_pos_site_id
 _symmetry_equiv_pos_as_xyz
  1  'x, y, z'
loop_
 _atom_site_type_symbol
 _atom_site_label
 _atom_site_symmetry_multiplicity
 _atom_site_fract_x
 _atom_site_fract_y
 _atom_site_fract_z
 _atom_site_occupancy
  Dy  Dy0  1  0.212523  0.787477  0.435160  1
  Y  Y1  1  0.000312  0.999688  0.499801  1
  Y  Y2  1  0.999998  0.000002  0.000039  1
  Y  Y3  1  0.541929  0.458071  0.250032  1
  Y  Y4  1  0.541599  0.083415  0.250161  1
  Y  Y5  1  0.916585  0.458401  0.250161  1
  Y  Y6  1  0.458205  0.541795  0.749989  1
  Y  Y7  1  0.458004  0.916173  0.749773  1
  Y  Y8  1  0.083827  0.541996  0.749773  1
  Y  Y9  1  0.211707  0.423574  0.436161  1
  Y  Y10  1  0.576426  0.788293  0.436161  1
  Y  Y11  1  0.788064  0.211936  0.564307  1
  Y  Y12  1  0.788292  0.576134  0.564211  1
  Y  Y13  1  0.423866  0.211708  0.564211  1
  Y  Y14  1  0.788021  0.211979  0.935670  1
  Y  Y15  1  0.788082  0.576038  0.935706  1
  Y  Y16  1  0.423962  0.211918  0.935706  1
  Y  Y17  1  0.211602  0.788398  0.064107  1
  Y  Y18  1  0.211891  0.423811  0.064054  1
  Y  Y19  1  0.576189  0.788109  0.064054  1
  Fe  Fe20  1  0.332427  0.667573  0.250905  1
  Fe  Fe21  1  0.666607  0.333393  0.749872  1
  Hg  Hg22  1  0.881688  0.118312  0.250123  1
  Hg  Hg23  1  0.881652  0.763349  0.249882  1
  Hg  Hg24  1  0.236651  0.118348  0.249882  1
  Hg  Hg25  1  0.118226  0.881774  0.750035  1
  Hg  Hg26  1  0.118240  0.236576  0.750032  1
  Hg  Hg27  1  0.763424  0.881760  0.750032  1
