# generated using pymatgen
data_Tb8Hf7Si16W5
_symmetry_space_group_name_H-M   'P 1'
_cell_length_a   7.13611759
_cell_length_b   7.13074869
_cell_length_c   13.11702170
_cell_angle_alpha   89.72468229
_cell_angle_beta   89.83033146
_cell_angle_gamma   90.12223931
_symmetry_Int_Tables_number   1
_chemical_formula_structural   Tb8Hf7Si16W5
_chemical_formula_sum   'Tb8 Hf7 Si16 W5'
_cell_volume   667.45877332
_cell_formula_units_Z   1
loop_
 _symmetry_equiv_pos_site_id
 _symmetry_equiv_pos_as_xyz
  1  'x, y, z'
loop_
 _atom_site_type_symbol
 _atom_site_label
 _atom_site_symmetry_multiplicity
 _atom_site_fract_x
 _atom_site_fract_y
 _atom_site_fract_z
 _atom_site_occupancy
  Tb  Tb0  1  0.998870  0.344467  0.218916  1
  Tb  Tb1  1  0.002085  0.656753  0.714038  1
  Tb  Tb2  1  0.154600  0.499285  0.465874  1
  Tb  Tb3  1  0.499750  0.845319  0.035727  1
  Tb  Tb4  1  0.844500  0.502134  0.966126  1
  Tb  Tb5  1  0.499028  0.154456  0.531755  1
  Tb  Tb6  1  0.345718  0.999104  0.784148  1
  Tb  Tb7  1  0.655982  0.001446  0.283811  1
  Hf  Hf8  1  0.852396  0.005956  0.874799  1
  Hf  Hf9  1  0.504923  0.649561  0.620797  1
  Hf  Hf10  1  0.352963  0.493041  0.876192  1
  Hf  Hf11  1  0.491669  0.349349  0.125888  1
  Hf  Hf12  1  0.647545  0.510290  0.376977  1
  Hf  Hf13  1  0.994526  0.148384  0.625703  1
  Hf  Hf14  1  0.003834  0.852264  0.124356  1
  Si  Si15  1  0.360908  0.290178  0.320703  1
  Si  Si16  1  0.639809  0.700268  0.814882  1
  Si  Si17  1  0.199003  0.863222  0.561142  1
  Si  Si18  1  0.140235  0.798200  0.933127  1
  Si  Si19  1  0.798725  0.141027  0.067139  1
  Si  Si20  1  0.868607  0.196505  0.430290  1
  Si  Si21  1  0.301507  0.359705  0.683183  1
  Si  Si22  1  0.700858  0.638877  0.183723  1
  Si  Si23  1  0.293755  0.045655  0.188698  1
  Si  Si24  1  0.705139  0.950036  0.683431  1
  Si  Si25  1  0.440389  0.797535  0.430891  1
  Si  Si26  1  0.203822  0.549210  0.066956  1
  Si  Si27  1  0.549797  0.203859  0.934318  1
  Si  Si28  1  0.794990  0.447642  0.566903  1
  Si  Si29  1  0.049956  0.296312  0.816555  1
  Si  Si30  1  0.955785  0.712308  0.317163  1
  W  W31  1  0.173585  0.174066  0.002059  1
  W  W32  1  0.829269  0.828319  0.498532  1
  W  W33  1  0.322157  0.676233  0.250956  1
  W  W34  1  0.676414  0.325285  0.749942  1
  W  W35  1  0.146898  0.993749  0.374301  1
