# generated using pymatgen
data_Er3Tm(CuSi3)2
_symmetry_space_group_name_H-M   'P 1'
_cell_length_a   7.96342231
_cell_length_b   7.96032464
_cell_length_c   5.62620098
_cell_angle_alpha   69.33889282
_cell_angle_beta   69.27989786
_cell_angle_gamma   41.38119981
_symmetry_Int_Tables_number   1
_chemical_formula_structural   Er3Tm(CuSi3)2
_chemical_formula_sum   'Er3 Tm1 Cu2 Si6'
_cell_volume   218.30856450
_cell_formula_units_Z   1
loop_
 _symmetry_equiv_pos_site_id
 _symmetry_equiv_pos_as_xyz
  1  'x, y, z'
loop_
 _atom_site_type_symbol
 _atom_site_label
 _atom_site_symmetry_multiplicity
 _atom_site_fract_x
 _atom_site_fract_y
 _atom_site_fract_z
 _atom_site_occupancy
  Er  Er0  1  0.250000  0.250000  0.249999  1
  Er  Er1  1  0.743560  0.256440  0.256440  1
  Er  Er2  1  0.256441  0.743560  0.743559  1
  Tm  Tm3  1  0.750000  0.750000  0.750000  1
  Cu  Cu4  1  0.833109  0.833109  0.166891  1
  Cu  Cu5  1  0.166890  0.166891  0.833110  1
  Si  Si6  1  0.328807  0.840005  0.159883  1
  Si  Si7  1  0.159882  0.671307  0.328807  1
  Si  Si8  1  0.668469  0.668469  0.331532  1
  Si  Si9  1  0.331531  0.331531  0.668470  1
  Si  Si10  1  0.840005  0.328807  0.671306  1
  Si  Si11  1  0.671306  0.159883  0.840005  1
