# generated using pymatgen
data_Ho6V2Co15NiP12
_symmetry_space_group_name_H-M   'P 1'
_cell_length_a   3.69093900
_cell_length_b   10.51554300
_cell_length_c   12.21301600
_cell_angle_alpha   90.00000000
_cell_angle_beta   90.00000000
_cell_angle_gamma   90.00000000
_symmetry_Int_Tables_number   1
_chemical_formula_structural   Ho6V2Co15NiP12
_chemical_formula_sum   'Ho6 V2 Co15 Ni1 P12'
_cell_volume   474.01435869
_cell_formula_units_Z   1
loop_
 _symmetry_equiv_pos_site_id
 _symmetry_equiv_pos_as_xyz
  1  'x, y, z'
loop_
 _atom_site_type_symbol
 _atom_site_label
 _atom_site_symmetry_multiplicity
 _atom_site_fract_x
 _atom_site_fract_y
 _atom_site_fract_z
 _atom_site_occupancy
  Ho  Ho0  1  0.000000  0.500000  0.520425  1
  Ho  Ho1  1  0.500000  0.000000  0.477160  1
  Ho  Ho2  1  0.500000  0.818852  0.204698  1
  Ho  Ho3  1  0.500000  0.181148  0.204698  1
  Ho  Ho4  1  0.000000  0.682823  0.796373  1
  Ho  Ho5  1  0.000000  0.317177  0.796373  1
  V  V6  1  0.500000  0.500000  0.154847  1
  V  V7  1  0.000000  0.000000  0.845139  1
  Co  Co8  1  0.000000  0.500000  0.987097  1
  Co  Co9  1  0.500000  0.000000  0.013449  1
  Co  Co10  1  0.500000  0.296005  0.431402  1
  Co  Co11  1  0.500000  0.703995  0.431402  1
  Co  Co12  1  0.000000  0.203884  0.568628  1
  Co  Co13  1  0.000000  0.796116  0.568628  1
  Co  Co14  1  0.500000  0.878373  0.707922  1
  Co  Co15  1  0.500000  0.121627  0.707922  1
  Co  Co16  1  0.000000  0.621529  0.291943  1
  Co  Co17  1  0.000000  0.378471  0.291943  1
  Co  Co18  1  0.500000  0.332527  0.992898  1
  Co  Co19  1  0.500000  0.667473  0.992898  1
  Co  Co20  1  0.000000  0.167413  0.007379  1
  Co  Co21  1  0.000000  0.832587  0.007379  1
  Co  Co22  1  0.000000  0.000000  0.298262  1
  Ni  Ni23  1  0.500000  0.500000  0.701291  1
  P  P24  1  0.500000  0.310620  0.615319  1
  P  P25  1  0.500000  0.689380  0.615319  1
  P  P26  1  0.000000  0.188685  0.383728  1
  P  P27  1  0.000000  0.811315  0.383728  1
  P  P28  1  0.500000  0.500000  0.883033  1
  P  P29  1  0.000000  0.000000  0.118510  1
  P  P30  1  0.500000  0.846244  0.892072  1
  P  P31  1  0.500000  0.153756  0.892072  1
  P  P32  1  0.000000  0.654265  0.108617  1
  P  P33  1  0.000000  0.345735  0.108617  1
  P  P34  1  0.500000  0.500000  0.345668  1
  P  P35  1  0.000000  0.000000  0.653162  1
