# generated using pymatgen
data_Lu4MnI4
_symmetry_space_group_name_H-M   'P 1'
_cell_length_a   10.96989547
_cell_length_b   10.96989660
_cell_length_c   5.92952900
_cell_angle_alpha   89.98317671
_cell_angle_beta   89.98318194
_cell_angle_gamma   89.94461558
_symmetry_Int_Tables_number   1
_chemical_formula_structural   Lu4MnI4
_chemical_formula_sum   'Lu8 Mn2 I8'
_cell_volume   713.55093646
_cell_formula_units_Z   2
loop_
 _symmetry_equiv_pos_site_id
 _symmetry_equiv_pos_as_xyz
  1  'x, y, z'
loop_
 _atom_site_type_symbol
 _atom_site_label
 _atom_site_symmetry_multiplicity
 _atom_site_fract_x
 _atom_site_fract_y
 _atom_site_fract_z
 _atom_site_occupancy
  Lu  Lu0  1  0.805371  0.080067  0.000285  1
  Lu  Lu1  1  0.080067  0.805371  0.500285  1
  Lu  Lu2  1  0.079871  0.194518  0.000112  1
  Lu  Lu3  1  0.194518  0.079871  0.500112  1
  Lu  Lu4  1  0.920129  0.805482  0.999888  1
  Lu  Lu5  1  0.919933  0.194629  0.499715  1
  Lu  Lu6  1  0.194629  0.919933  0.999715  1
  Lu  Lu7  1  0.805482  0.920129  0.499888  1
  Mn  Mn8  1  0.999970  0.000030  0.250000  1
  Mn  Mn9  1  0.000030  0.999970  0.750000  1
  I  I10  1  0.640848  0.151190  0.497543  1
  I  I11  1  0.849119  0.640998  0.502811  1
  I  I12  1  0.359002  0.150881  0.997189  1
  I  I13  1  0.150881  0.359002  0.497189  1
  I  I14  1  0.640998  0.849119  0.002811  1
  I  I15  1  0.359152  0.848810  0.502457  1
  I  I16  1  0.151190  0.640848  0.997543  1
  I  I17  1  0.848810  0.359152  0.002457  1
