# generated using pymatgen
data_Hf8Al6Tc2CN
_symmetry_space_group_name_H-M   'P 1'
_cell_length_a   7.98118800
_cell_length_b   7.98118975
_cell_length_c   5.46569400
_cell_angle_alpha   90.00000000
_cell_angle_beta   90.00000000
_cell_angle_gamma   120.00000105
_symmetry_Int_Tables_number   1
_chemical_formula_structural   Hf8Al6Tc2CN
_chemical_formula_sum   'Hf8 Al6 Tc2 C1 N1'
_cell_volume   301.51652401
_cell_formula_units_Z   1
loop_
 _symmetry_equiv_pos_site_id
 _symmetry_equiv_pos_as_xyz
  1  'x, y, z'
loop_
 _atom_site_type_symbol
 _atom_site_label
 _atom_site_symmetry_multiplicity
 _atom_site_fract_x
 _atom_site_fract_y
 _atom_site_fract_z
 _atom_site_occupancy
  Hf  Hf0  1  0.227407  0.000000  0.255567  1
  Hf  Hf1  1  0.000000  0.227407  0.255567  1
  Hf  Hf2  1  0.772593  0.772593  0.255567  1
  Hf  Hf3  1  0.666667  0.333333  0.500000  1
  Hf  Hf4  1  0.333333  0.666667  0.500000  1
  Hf  Hf5  1  0.772593  0.000000  0.744433  1
  Hf  Hf6  1  0.000000  0.772593  0.744433  1
  Hf  Hf7  1  0.227407  0.227407  0.744433  1
  Al  Al8  1  0.588042  0.000000  0.218589  1
  Al  Al9  1  0.000000  0.588042  0.218589  1
  Al  Al10  1  0.411958  0.411958  0.218589  1
  Al  Al11  1  0.411958  0.000000  0.781411  1
  Al  Al12  1  0.000000  0.411958  0.781411  1
  Al  Al13  1  0.588042  0.588042  0.781411  1
  Tc  Tc14  1  0.666667  0.333333  0.000000  1
  Tc  Tc15  1  0.333333  0.666667  0.000000  1
  C  C16  1  0.000000  0.000000  0.000000  1
  N  N17  1  0.000000  0.000000  0.500000  1
