# generated using pymatgen
data_Pr4Ho11Th(CdIr)4
_symmetry_space_group_name_H-M   'P 1'
_cell_length_a   9.71906089
_cell_length_b   9.71011146
_cell_length_c   9.71011235
_cell_angle_alpha   60.07631431
_cell_angle_beta   60.08774288
_cell_angle_gamma   60.08773758
_symmetry_Int_Tables_number   1
_chemical_formula_structural   Pr4Ho11Th(CdIr)4
_chemical_formula_sum   'Pr4 Ho11 Th1 Cd4 Ir4'
_cell_volume   649.20667519
_cell_formula_units_Z   1
loop_
 _symmetry_equiv_pos_site_id
 _symmetry_equiv_pos_as_xyz
  1  'x, y, z'
loop_
 _atom_site_type_symbol
 _atom_site_label
 _atom_site_symmetry_multiplicity
 _atom_site_fract_x
 _atom_site_fract_y
 _atom_site_fract_z
 _atom_site_occupancy
  Pr  Pr0  1  0.565273  0.937685  0.564635  1
  Pr  Pr1  1  0.940045  0.561668  0.937808  1
  Pr  Pr2  1  0.565273  0.564635  0.937685  1
  Pr  Pr3  1  0.940045  0.937808  0.561668  1
  Ho  Ho4  1  0.348781  0.351347  0.953156  1
  Ho  Ho5  1  0.348781  0.953156  0.351347  1
  Ho  Ho6  1  0.950210  0.348967  0.348967  1
  Ho  Ho7  1  0.815462  0.185026  0.185026  1
  Ho  Ho8  1  0.188141  0.813001  0.813001  1
  Ho  Ho9  1  0.187831  0.812991  0.187538  1
  Ho  Ho10  1  0.811382  0.186463  0.810925  1
  Ho  Ho11  1  0.187831  0.187538  0.812991  1
  Ho  Ho12  1  0.811382  0.810925  0.186463  1
  Ho  Ho13  1  0.943601  0.556157  0.556157  1
  Ho  Ho14  1  0.552034  0.947740  0.947740  1
  Th  Th15  1  0.347515  0.344799  0.344799  1
  Cd  Cd16  1  0.581799  0.577556  0.577556  1
  Cd  Cd17  1  0.578627  0.583407  0.259294  1
  Cd  Cd18  1  0.578627  0.259294  0.583407  1
  Cd  Cd19  1  0.259789  0.579059  0.579059  1
  Ir  Ir20  1  0.147157  0.140068  0.140068  1
  Ir  Ir21  1  0.137942  0.145881  0.575028  1
  Ir  Ir22  1  0.137942  0.575028  0.145881  1
  Ir  Ir23  1  0.574525  0.139796  0.139796  1
