# generated using pymatgen
data_LuTh4InPt4
_symmetry_space_group_name_H-M   'P 1'
_cell_length_a   7.94870900
_cell_length_b   7.94870900
_cell_length_c   3.91525600
_cell_angle_alpha   90.00000000
_cell_angle_beta   90.00000000
_cell_angle_gamma   90.00000000
_symmetry_Int_Tables_number   1
_chemical_formula_structural   LuTh4InPt4
_chemical_formula_sum   'Lu1 Th4 In1 Pt4'
_cell_volume   247.37360580
_cell_formula_units_Z   1
loop_
 _symmetry_equiv_pos_site_id
 _symmetry_equiv_pos_as_xyz
  1  'x, y, z'
loop_
 _atom_site_type_symbol
 _atom_site_label
 _atom_site_symmetry_multiplicity
 _atom_site_fract_x
 _atom_site_fract_y
 _atom_site_fract_z
 _atom_site_occupancy
  Lu  Lu0  1  0.500000  0.500000  0.000000  1
  Th  Th1  1  0.677178  0.837945  0.500000  1
  Th  Th2  1  0.837945  0.322822  0.500000  1
  Th  Th3  1  0.322822  0.162055  0.500000  1
  Th  Th4  1  0.162055  0.677178  0.500000  1
  In  In5  1  0.000000  0.000000  0.000000  1
  Pt  Pt6  1  0.626765  0.140937  0.000000  1
  Pt  Pt7  1  0.859063  0.626765  0.000000  1
  Pt  Pt8  1  0.140937  0.373235  0.000000  1
  Pt  Pt9  1  0.373235  0.859063  0.000000  1
