# generated using pymatgen
data_Sr2CeU3N8
_symmetry_space_group_name_H-M   'P 1'
_cell_length_a   10.19383024
_cell_length_b   3.54572700
_cell_length_c   11.95076565
_cell_angle_alpha   90.00000000
_cell_angle_beta   89.80500474
_cell_angle_gamma   90.00000000
_symmetry_Int_Tables_number   1
_chemical_formula_structural   Sr2CeU3N8
_chemical_formula_sum   'Sr4 Ce2 U6 N16'
_cell_volume   431.95241490
_cell_formula_units_Z   2
loop_
 _symmetry_equiv_pos_site_id
 _symmetry_equiv_pos_as_xyz
  1  'x, y, z'
loop_
 _atom_site_type_symbol
 _atom_site_label
 _atom_site_symmetry_multiplicity
 _atom_site_fract_x
 _atom_site_fract_y
 _atom_site_fract_z
 _atom_site_occupancy
  Sr  Sr0  1  0.753422  0.500001  0.143938  1
  Sr  Sr1  1  0.247144  0.500001  0.354134  1
  Sr  Sr2  1  0.749497  0.000000  0.646878  1
  Sr  Sr3  1  0.255636  0.000000  0.854543  1
  Ce  Ce4  1  0.081012  0.500001  0.112774  1
  Ce  Ce5  1  0.425921  0.000000  0.117580  1
  U  U6  1  0.921689  0.000000  0.391362  1
  U  U7  1  0.577554  0.500001  0.388367  1
  U  U8  1  0.421695  0.000000  0.613637  1
  U  U9  1  0.075627  0.500001  0.614350  1
  U  U10  1  0.575807  0.500001  0.888075  1
  U  U11  1  0.921916  0.000000  0.886895  1
  N  N12  1  0.621371  0.000000  0.996318  1
  N  N13  1  0.926946  0.000000  0.061890  1
  N  N14  1  0.211305  0.000000  0.176020  1
  N  N15  1  0.504395  0.500001  0.224095  1
  N  N16  1  0.970545  0.500001  0.292758  1
  N  N17  1  0.710655  0.000000  0.345205  1
  N  N18  1  0.440336  0.000000  0.427626  1
  N  N19  1  0.112631  0.000000  0.496237  1
  N  N20  1  0.887364  0.500001  0.511708  1
  N  N21  1  0.559103  0.500001  0.573042  1
  N  N22  1  0.289498  0.500001  0.663074  1
  N  N23  1  0.009162  0.000000  0.712701  1
  N  N24  1  0.515865  0.000000  0.782868  1
  N  N25  1  0.787880  0.500001  0.834743  1
  N  N26  1  0.052723  0.500001  0.914159  1
  N  N27  1  0.393313  0.500001  0.975032  1
