# generated using pymatgen
data_Sc5W2C7
_symmetry_space_group_name_H-M   'P 1'
_cell_length_a   7.98903919
_cell_length_b   7.98903948
_cell_length_c   3.22751900
_cell_angle_alpha   90.00000000
_cell_angle_beta   90.00000000
_cell_angle_gamma   120.51082516
_symmetry_Int_Tables_number   1
_chemical_formula_structural   Sc5W2C7
_chemical_formula_sum   'Sc5 W2 C7'
_cell_volume   177.47205239
_cell_formula_units_Z   1
loop_
 _symmetry_equiv_pos_site_id
 _symmetry_equiv_pos_as_xyz
  1  'x, y, z'
loop_
 _atom_site_type_symbol
 _atom_site_label
 _atom_site_symmetry_multiplicity
 _atom_site_fract_x
 _atom_site_fract_y
 _atom_site_fract_z
 _atom_site_occupancy
  Sc  Sc0  1  0.081757  0.336369  0.500000  1
  Sc  Sc1  1  0.336369  0.081757  0.500000  1
  Sc  Sc2  1  0.500000  0.500000  0.000000  1
  Sc  Sc3  1  0.918243  0.663631  0.500000  1
  Sc  Sc4  1  0.663631  0.918243  0.500000  1
  W  W5  1  0.713410  0.286590  0.000000  1
  W  W6  1  0.286590  0.713410  0.000000  1
  C  C7  1  0.000000  0.000000  0.000000  1
  C  C8  1  0.000000  0.500000  0.000000  1
  C  C9  1  0.500000  0.000000  0.000000  1
  C  C10  1  0.170611  0.170611  0.000000  1
  C  C11  1  0.829389  0.829389  0.000000  1
  C  C12  1  0.617345  0.382655  0.500000  1
  C  C13  1  0.382655  0.617345  0.500000  1
