# generated using pymatgen
data_Sr3YbTcO6
_symmetry_space_group_name_H-M   'P 1'
_cell_length_a   6.86161125
_cell_length_b   6.86161217
_cell_length_c   6.86161208
_cell_angle_alpha   91.81537435
_cell_angle_beta   91.81537675
_cell_angle_gamma   91.81538142
_symmetry_Int_Tables_number   1
_chemical_formula_structural   Sr3YbTcO6
_chemical_formula_sum   'Sr6 Yb2 Tc2 O12'
_cell_volume   322.55950321
_cell_formula_units_Z   2
loop_
 _symmetry_equiv_pos_site_id
 _symmetry_equiv_pos_as_xyz
  1  'x, y, z'
loop_
 _atom_site_type_symbol
 _atom_site_label
 _atom_site_symmetry_multiplicity
 _atom_site_fract_x
 _atom_site_fract_y
 _atom_site_fract_z
 _atom_site_occupancy
  Sr  Sr0  1  0.750000  0.388235  0.111766  1
  Sr  Sr1  1  0.611766  0.888234  0.250000  1
  Sr  Sr2  1  0.111766  0.750000  0.388234  1
  Sr  Sr3  1  0.888234  0.250001  0.611766  1
  Sr  Sr4  1  0.388234  0.111766  0.750000  1
  Sr  Sr5  1  0.250000  0.611766  0.888234  1
  Yb  Yb6  1  0.250000  0.250000  0.250000  1
  Yb  Yb7  1  0.750000  0.750000  0.750000  1
  Tc  Tc8  1  0.000000  0.000000  0.000000  1
  Tc  Tc9  1  0.500000  0.500000  0.500000  1
  O  O10  1  0.915282  0.714909  0.047401  1
  O  O11  1  0.285091  0.952599  0.084717  1
  O  O12  1  0.415283  0.547401  0.214909  1
  O  O13  1  0.952598  0.084717  0.285091  1
  O  O14  1  0.547401  0.214909  0.415282  1
  O  O15  1  0.785090  0.584717  0.452599  1
  O  O16  1  0.214910  0.415282  0.547401  1
  O  O17  1  0.452598  0.785090  0.584718  1
  O  O18  1  0.047401  0.915282  0.714908  1
  O  O19  1  0.584717  0.452599  0.785091  1
  O  O20  1  0.714909  0.047401  0.915283  1
  O  O21  1  0.084718  0.285090  0.952598  1
