# generated using pymatgen
data_Dy2Y2B8Os3Ru
_symmetry_space_group_name_H-M   'P 1'
_cell_length_a   5.91735909
_cell_length_b   5.32548000
_cell_length_c   6.37853591
_cell_angle_alpha   90.00000000
_cell_angle_beta   90.25174034
_cell_angle_gamma   90.00000000
_symmetry_Int_Tables_number   1
_chemical_formula_structural   Dy2Y2B8Os3Ru
_chemical_formula_sum   'Dy2 Y2 B8 Os3 Ru1'
_cell_volume   201.00344261
_cell_formula_units_Z   1
loop_
 _symmetry_equiv_pos_site_id
 _symmetry_equiv_pos_as_xyz
  1  'x, y, z'
loop_
 _atom_site_type_symbol
 _atom_site_label
 _atom_site_symmetry_multiplicity
 _atom_site_fract_x
 _atom_site_fract_y
 _atom_site_fract_z
 _atom_site_occupancy
  Dy  Dy0  1  0.010206  0.250000  0.336559  1
  Dy  Dy1  1  0.509405  0.250000  0.163191  1
  Y  Y2  1  0.989228  0.750000  0.665360  1
  Y  Y3  1  0.489905  0.750000  0.835746  1
  B  B4  1  0.366605  0.083954  0.537484  1
  B  B5  1  0.863995  0.417978  0.959909  1
  B  B6  1  0.635452  0.581799  0.459805  1
  B  B7  1  0.134624  0.917384  0.040418  1
  B  B8  1  0.635452  0.918201  0.459805  1
  B  B9  1  0.134624  0.582616  0.040418  1
  B  B10  1  0.366605  0.416046  0.537484  1
  B  B11  1  0.863995  0.082022  0.959909  1
  Os  Os12  1  0.678708  0.250000  0.681600  1
  Os  Os13  1  0.822096  0.750000  0.182359  1
  Os  Os14  1  0.321542  0.750000  0.319410  1
  Ru  Ru15  1  0.177557  0.250000  0.820542  1
