# generated using pymatgen
data_Ba4U3IF28
_symmetry_space_group_name_H-M   'P 1'
_cell_length_a   10.01277805
_cell_length_b   6.05762665
_cell_length_c   10.29010958
_cell_angle_alpha   87.39806864
_cell_angle_beta   89.94954788
_cell_angle_gamma   89.99610289
_symmetry_Int_Tables_number   1
_chemical_formula_structural   Ba4U3IF28
_chemical_formula_sum   'Ba4 U3 I1 F28'
_cell_volume   623.48922461
_cell_formula_units_Z   1
loop_
 _symmetry_equiv_pos_site_id
 _symmetry_equiv_pos_as_xyz
  1  'x, y, z'
loop_
 _atom_site_type_symbol
 _atom_site_label
 _atom_site_symmetry_multiplicity
 _atom_site_fract_x
 _atom_site_fract_y
 _atom_site_fract_z
 _atom_site_occupancy
  Ba  Ba0  1  0.313752  0.280132  0.511089  1
  Ba  Ba1  1  0.811263  0.720336  0.989648  1
  Ba  Ba2  1  0.687042  0.718281  0.482114  1
  Ba  Ba3  1  0.188676  0.279716  0.013633  1
  U  U4  1  0.387910  0.774136  0.785848  1
  U  U5  1  0.886142  0.224700  0.713658  1
  U  U6  1  0.113427  0.774216  0.285713  1
  I  I7  1  0.614678  0.229141  0.217576  1
  F  F8  1  0.397459  0.071181  0.884089  1
  F  F9  1  0.052248  0.343201  0.610701  1
  F  F10  1  0.721291  0.542205  0.231668  1
  F  F11  1  0.279617  0.459585  0.761557  1
  F  F12  1  0.493109  0.987173  0.641727  1
  F  F13  1  0.769180  0.294839  0.541934  1
  F  F14  1  0.771436  0.063268  0.296531  1
  F  F15  1  0.992487  0.008786  0.855588  1
  F  F16  1  0.457406  0.331141  0.112600  1
  F  F17  1  0.221211  0.458781  0.259960  1
  F  F18  1  0.102029  0.070141  0.385853  1
  F  F19  1  0.592459  0.953687  0.124893  1
  F  F20  1  0.272537  0.934765  0.189960  1
  F  F21  1  0.022603  0.573665  0.126107  1
  F  F22  1  0.511763  0.018339  0.352239  1
  F  F23  1  0.009044  0.989151  0.142174  1
  F  F24  1  0.228845  0.933405  0.689234  1
  F  F25  1  0.896135  0.928447  0.614060  1
  F  F26  1  0.519934  0.433392  0.371634  1
  F  F27  1  0.946759  0.658857  0.389468  1
  F  F28  1  0.973746  0.422214  0.877330  1
  F  F29  1  0.727469  0.066979  0.812658  1
  F  F30  1  0.479310  0.571321  0.627980  1
  F  F31  1  0.270982  0.702887  0.957274  1
  F  F32  1  0.231418  0.703002  0.456505  1
  F  F33  1  0.724942  0.277235  0.054532  1
  F  F34  1  0.552886  0.662381  0.893603  1
  F  F35  1  0.778799  0.539315  0.738862  1
