# generated using pymatgen
data_CeDy9Co4
_symmetry_space_group_name_H-M   'P 1'
_cell_length_a   8.68177658
_cell_length_b   8.68450601
_cell_length_c   6.88335545
_cell_angle_alpha   85.14768940
_cell_angle_beta   83.62414981
_cell_angle_gamma   42.49807474
_symmetry_Int_Tables_number   1
_chemical_formula_structural   CeDy9Co4
_chemical_formula_sum   'Ce1 Dy9 Co4'
_cell_volume   348.43620001
_cell_formula_units_Z   1
loop_
 _symmetry_equiv_pos_site_id
 _symmetry_equiv_pos_as_xyz
  1  'x, y, z'
loop_
 _atom_site_type_symbol
 _atom_site_label
 _atom_site_symmetry_multiplicity
 _atom_site_fract_x
 _atom_site_fract_y
 _atom_site_fract_z
 _atom_site_occupancy
  Ce  Ce0  1  0.000222  0.805612  0.397518  1
  Dy  Dy1  1  0.203338  0.988397  0.084182  1
  Dy  Dy2  1  0.988742  0.199336  0.586995  1
  Dy  Dy3  1  0.794111  0.016704  0.909914  1
  Dy  Dy4  1  0.355187  0.212316  0.317922  1
  Dy  Dy5  1  0.781966  0.645738  0.182131  1
  Dy  Dy6  1  0.647561  0.779045  0.684636  1
  Dy  Dy7  1  0.215000  0.355884  0.818580  1
  Dy  Dy8  1  0.568992  0.434760  0.249362  1
  Dy  Dy9  1  0.426905  0.570210  0.748716  1
  Co  Co10  1  0.160628  0.623075  0.103885  1
  Co  Co11  1  0.401235  0.821127  0.429590  1
  Co  Co12  1  0.822485  0.403122  0.926220  1
  Co  Co13  1  0.633627  0.144673  0.560350  1
