# generated using pymatgen
data_Y4Si12Pd3Pt17
_symmetry_space_group_name_H-M   'P 1'
_cell_length_a   4.08430600
_cell_length_b   19.70391582
_cell_length_c   7.27814634
_cell_angle_alpha   89.91303779
_cell_angle_beta   90.00000000
_cell_angle_gamma   90.00000000
_symmetry_Int_Tables_number   1
_chemical_formula_structural   Y4Si12Pd3Pt17
_chemical_formula_sum   'Y4 Si12 Pd3 Pt17'
_cell_volume   585.72141040
_cell_formula_units_Z   1
loop_
 _symmetry_equiv_pos_site_id
 _symmetry_equiv_pos_as_xyz
  1  'x, y, z'
loop_
 _atom_site_type_symbol
 _atom_site_label
 _atom_site_symmetry_multiplicity
 _atom_site_fract_x
 _atom_site_fract_y
 _atom_site_fract_z
 _atom_site_occupancy
  Y  Y0  1  0.750000  0.644072  0.119922  1
  Y  Y1  1  0.250000  0.355311  0.880543  1
  Y  Y2  1  0.250000  0.856092  0.620926  1
  Y  Y3  1  0.750000  0.144341  0.378317  1
  Si  Si4  1  0.750000  0.740445  0.627206  1
  Si  Si5  1  0.250000  0.259910  0.372472  1
  Si  Si6  1  0.250000  0.760820  0.128857  1
  Si  Si7  1  0.750000  0.239501  0.872870  1
  Si  Si8  1  0.750000  0.922529  0.348820  1
  Si  Si9  1  0.250000  0.077475  0.650467  1
  Si  Si10  1  0.250000  0.577538  0.842065  1
  Si  Si11  1  0.750000  0.423201  0.154164  1
  Si  Si12  1  0.750000  0.917011  0.900943  1
  Si  Si13  1  0.250000  0.083410  0.099477  1
  Si  Si14  1  0.250000  0.583588  0.404239  1
  Si  Si15  1  0.750000  0.415238  0.596969  1
  Pd  Pd16  1  0.250000  0.382366  0.340564  1
  Pd  Pd17  1  0.250000  0.883212  0.155025  1
  Pd  Pd18  1  0.750000  0.116975  0.843879  1
  Pt  Pt19  1  0.750000  0.800559  0.334394  1
  Pt  Pt20  1  0.250000  0.199176  0.665885  1
  Pt  Pt21  1  0.250000  0.700674  0.837447  1
  Pt  Pt22  1  0.750000  0.300614  0.164770  1
  Pt  Pt23  1  0.750000  0.987391  0.623325  1
  Pt  Pt24  1  0.250000  0.012239  0.376674  1
  Pt  Pt25  1  0.250000  0.513948  0.121650  1
  Pt  Pt26  1  0.750000  0.486268  0.876275  1
  Pt  Pt27  1  0.750000  0.514602  0.379030  1
  Pt  Pt28  1  0.250000  0.483112  0.622690  1
  Pt  Pt29  1  0.250000  0.987277  0.876906  1
  Pt  Pt30  1  0.750000  0.013195  0.123117  1
  Pt  Pt31  1  0.750000  0.799359  0.922772  1
  Pt  Pt32  1  0.250000  0.201110  0.076372  1
  Pt  Pt33  1  0.250000  0.701388  0.422819  1
  Pt  Pt34  1  0.750000  0.297864  0.575800  1
  Pt  Pt35  1  0.750000  0.618188  0.662351  1
