# generated using pymatgen
data_Lu4ThRu3
_symmetry_space_group_name_H-M   'P 1'
_cell_length_a   6.26571600
_cell_length_b   8.07052175
_cell_length_c   8.07052106
_cell_angle_alpha   119.15569950
_cell_angle_beta   90.00000000
_cell_angle_gamma   90.00000000
_symmetry_Int_Tables_number   1
_chemical_formula_structural   Lu4ThRu3
_chemical_formula_sum   'Lu8 Th2 Ru6'
_cell_volume   356.39932136
_cell_formula_units_Z   2
loop_
 _symmetry_equiv_pos_site_id
 _symmetry_equiv_pos_as_xyz
  1  'x, y, z'
loop_
 _atom_site_type_symbol
 _atom_site_label
 _atom_site_symmetry_multiplicity
 _atom_site_fract_x
 _atom_site_fract_y
 _atom_site_fract_z
 _atom_site_occupancy
  Lu  Lu0  1  0.000000  0.667994  0.332006  1
  Lu  Lu1  1  0.000000  0.332006  0.667994  1
  Lu  Lu2  1  0.500000  0.332006  0.667994  1
  Lu  Lu3  1  0.500000  0.667994  0.332006  1
  Lu  Lu4  1  0.750000  0.000435  0.258766  1
  Lu  Lu5  1  0.250000  0.999565  0.741234  1
  Lu  Lu6  1  0.750000  0.258766  0.000435  1
  Lu  Lu7  1  0.250000  0.741234  0.999565  1
  Th  Th8  1  0.750000  0.751932  0.751932  1
  Th  Th9  1  0.250000  0.248068  0.248068  1
  Ru  Ru10  1  0.750000  0.397064  0.397064  1
  Ru  Ru11  1  0.250000  0.602936  0.602936  1
  Ru  Ru12  1  0.750000  0.994446  0.604810  1
  Ru  Ru13  1  0.250000  0.005554  0.395190  1
  Ru  Ru14  1  0.750000  0.604810  0.994446  1
  Ru  Ru15  1  0.250000  0.395190  0.005554  1
