# generated using pymatgen
data_ErFeCo3P3Ru
_symmetry_space_group_name_H-M   'P 1'
_cell_length_a   3.69452900
_cell_length_b   10.29616300
_cell_length_c   11.78051500
_cell_angle_alpha   90.00000000
_cell_angle_beta   90.00000000
_cell_angle_gamma   90.00000000
_symmetry_Int_Tables_number   1
_chemical_formula_structural   ErFeCo3P3Ru
_chemical_formula_sum   'Er4 Fe4 Co12 P12 Ru4'
_cell_volume   448.12457982
_cell_formula_units_Z   4
loop_
 _symmetry_equiv_pos_site_id
 _symmetry_equiv_pos_as_xyz
  1  'x, y, z'
loop_
 _atom_site_type_symbol
 _atom_site_label
 _atom_site_symmetry_multiplicity
 _atom_site_fract_x
 _atom_site_fract_y
 _atom_site_fract_z
 _atom_site_occupancy
  Er  Er0  1  0.250000  0.583344  0.704567  1
  Er  Er1  1  0.250000  0.916656  0.204567  1
  Er  Er2  1  0.750000  0.416656  0.295433  1
  Er  Er3  1  0.750000  0.083344  0.795433  1
  Fe  Fe4  1  0.250000  0.463632  0.931943  1
  Fe  Fe5  1  0.250000  0.036368  0.431943  1
  Fe  Fe6  1  0.750000  0.536368  0.068057  1
  Fe  Fe7  1  0.750000  0.963632  0.568057  1
  Co  Co8  1  0.250000  0.407852  0.488163  1
  Co  Co9  1  0.250000  0.092148  0.988163  1
  Co  Co10  1  0.750000  0.592148  0.511837  1
  Co  Co11  1  0.750000  0.907852  0.011837  1
  Co  Co12  1  0.250000  0.223570  0.174217  1
  Co  Co13  1  0.250000  0.276430  0.674217  1
  Co  Co14  1  0.750000  0.776430  0.825783  1
  Co  Co15  1  0.750000  0.723570  0.325783  1
  Co  Co16  1  0.250000  0.883504  0.703972  1
  Co  Co17  1  0.250000  0.616496  0.203972  1
  Co  Co18  1  0.750000  0.116496  0.296028  1
  Co  Co19  1  0.750000  0.383504  0.796028  1
  P  P20  1  0.250000  0.424313  0.113178  1
  P  P21  1  0.250000  0.075687  0.613178  1
  P  P22  1  0.750000  0.575687  0.886822  1
  P  P23  1  0.750000  0.924313  0.386822  1
  P  P24  1  0.250000  0.269620  0.863766  1
  P  P25  1  0.250000  0.230380  0.363766  1
  P  P26  1  0.750000  0.730380  0.136234  1
  P  P27  1  0.750000  0.769620  0.636234  1
  P  P28  1  0.250000  0.596822  0.390784  1
  P  P29  1  0.250000  0.903178  0.890784  1
  P  P30  1  0.750000  0.403178  0.609216  1
  P  P31  1  0.750000  0.096822  0.109216  1
  Ru  Ru32  1  0.250000  0.712980  0.991536  1
  Ru  Ru33  1  0.250000  0.787020  0.491536  1
  Ru  Ru34  1  0.750000  0.287020  0.008464  1
  Ru  Ru35  1  0.750000  0.212980  0.508464  1
