# generated using pymatgen
data_Tb5Dy5Si5Pb
_symmetry_space_group_name_H-M   'P 1'
_cell_length_a   8.56135230
_cell_length_b   8.59326692
_cell_length_c   6.43839900
_cell_angle_alpha   90.00000000
_cell_angle_beta   90.00000000
_cell_angle_gamma   119.84684226
_symmetry_Int_Tables_number   1
_chemical_formula_structural   Tb5Dy5Si5Pb
_chemical_formula_sum   'Tb5 Dy5 Si5 Pb1'
_cell_volume   410.84440576
_cell_formula_units_Z   1
loop_
 _symmetry_equiv_pos_site_id
 _symmetry_equiv_pos_as_xyz
  1  'x, y, z'
loop_
 _atom_site_type_symbol
 _atom_site_label
 _atom_site_symmetry_multiplicity
 _atom_site_fract_x
 _atom_site_fract_y
 _atom_site_fract_z
 _atom_site_occupancy
  Tb  Tb0  1  0.987639  0.747080  0.750000  1
  Tb  Tb1  1  0.998659  0.242918  0.250000  1
  Tb  Tb2  1  0.755551  0.756959  0.250000  1
  Tb  Tb3  1  0.766435  0.000056  0.750000  1
  Tb  Tb4  1  0.240789  0.000078  0.250000  1
  Dy  Dy5  1  0.240629  0.253109  0.750000  1
  Dy  Dy6  1  0.674793  0.343583  0.003959  1
  Dy  Dy7  1  0.331238  0.656320  0.496069  1
  Dy  Dy8  1  0.331238  0.656320  0.003931  1
  Dy  Dy9  1  0.674793  0.343583  0.496041  1
  Si  Si10  1  0.393801  0.392257  0.250000  1
  Si  Si11  1  0.001581  0.607813  0.250000  1
  Si  Si12  1  0.998669  0.394426  0.750000  1
  Si  Si13  1  0.603690  0.605267  0.750000  1
  Si  Si14  1  0.605817  0.000024  0.250000  1
  Pb  Pb15  1  0.394678  0.000208  0.750000  1
