# generated using pymatgen
data_TbLuP7(RuRh)6
_symmetry_space_group_name_H-M   'P 1'
_cell_length_a   3.86384108
_cell_length_b   9.54747708
_cell_length_c   9.54168674
_cell_angle_alpha   120.03922551
_cell_angle_beta   90.01342256
_cell_angle_gamma   89.98134858
_symmetry_Int_Tables_number   1
_chemical_formula_structural   TbLuP7(RuRh)6
_chemical_formula_sum   'Tb1 Lu1 P7 Ru6 Rh6'
_cell_volume   304.71360489
_cell_formula_units_Z   1
loop_
 _symmetry_equiv_pos_site_id
 _symmetry_equiv_pos_as_xyz
  1  'x, y, z'
loop_
 _atom_site_type_symbol
 _atom_site_label
 _atom_site_symmetry_multiplicity
 _atom_site_fract_x
 _atom_site_fract_y
 _atom_site_fract_z
 _atom_site_occupancy
  Tb  Tb0  1  0.746648  0.333165  0.666493  1
  Lu  Lu1  1  0.253203  0.666848  0.333519  1
  P  P2  1  0.498835  0.999993  0.999996  1
  P  P3  1  0.753711  0.881762  0.596400  1
  P  P4  1  0.753761  0.403759  0.285467  1
  P  P5  1  0.753910  0.714638  0.118250  1
  P  P6  1  0.246282  0.117528  0.402292  1
  P  P7  1  0.246216  0.597526  0.715119  1
  P  P8  1  0.246083  0.284783  0.882444  1
  Ru  Ru9  1  0.743195  0.114946  0.851481  1
  Ru  Ru10  1  0.743406  0.148372  0.263167  1
  Ru  Ru11  1  0.743269  0.736670  0.885143  1
  Ru  Ru12  1  0.257199  0.884783  0.148368  1
  Ru  Ru13  1  0.256938  0.851758  0.736714  1
  Ru  Ru14  1  0.257109  0.263437  0.115092  1
  Rh  Rh15  1  0.752728  0.617521  0.550985  1
  Rh  Rh16  1  0.752710  0.449185  0.066663  1
  Rh  Rh17  1  0.752843  0.933619  0.382628  1
  Rh  Rh18  1  0.247354  0.383839  0.446734  1
  Rh  Rh19  1  0.247359  0.553133  0.937030  1
  Rh  Rh20  1  0.247240  0.062735  0.616014  1
