# generated using pymatgen
data_La8Yb2Sn5Pb3
_symmetry_space_group_name_H-M   'P 1'
_cell_length_a   8.46888600
_cell_length_b   8.63206636
_cell_length_c   16.42823500
_cell_angle_alpha   90.00000000
_cell_angle_beta   90.00000000
_cell_angle_gamma   90.01645449
_symmetry_Int_Tables_number   1
_chemical_formula_structural   La8Yb2Sn5Pb3
_chemical_formula_sum   'La16 Yb4 Sn10 Pb6'
_cell_volume   1200.96941049
_cell_formula_units_Z   2
loop_
 _symmetry_equiv_pos_site_id
 _symmetry_equiv_pos_as_xyz
  1  'x, y, z'
loop_
 _atom_site_type_symbol
 _atom_site_label
 _atom_site_symmetry_multiplicity
 _atom_site_fract_x
 _atom_site_fract_y
 _atom_site_fract_z
 _atom_site_occupancy
  La  La0  1  0.017752  0.182313  0.400911  1
  La  La1  1  0.369946  0.836733  0.121794  1
  La  La2  1  0.133198  0.334376  0.621959  1
  La  La3  1  0.485323  0.685654  0.900683  1
  La  La4  1  0.866802  0.665624  0.121959  1
  La  La5  1  0.132315  0.336597  0.877461  1
  La  La6  1  0.483354  0.686177  0.599653  1
  La  La7  1  0.630054  0.163267  0.621794  1
  La  La8  1  0.867685  0.663403  0.377461  1
  La  La9  1  0.013559  0.181679  0.099489  1
  La  La10  1  0.982248  0.817687  0.900911  1
  La  La11  1  0.632400  0.161895  0.879084  1
  La  La12  1  0.516646  0.313823  0.099653  1
  La  La13  1  0.367600  0.838105  0.379084  1
  La  La14  1  0.986441  0.818321  0.599489  1
  La  La15  1  0.514677  0.314346  0.400683  1
  Yb  Yb16  1  0.198119  0.501117  0.249696  1
  Yb  Yb17  1  0.698827  0.998766  0.248744  1
  Yb  Yb18  1  0.301173  0.001234  0.748744  1
  Yb  Yb19  1  0.801881  0.498883  0.749696  1
  Sn  Sn20  1  0.681487  0.858778  0.749823  1
  Sn  Sn21  1  0.818321  0.358570  0.250060  1
  Sn  Sn22  1  0.565494  0.605199  0.250323  1
  Sn  Sn23  1  0.434506  0.394801  0.750323  1
  Sn  Sn24  1  0.181679  0.641430  0.750060  1
  Sn  Sn25  1  0.933397  0.105711  0.750009  1
  Sn  Sn26  1  0.292645  0.035203  0.541784  1
  Sn  Sn27  1  0.707355  0.964797  0.041784  1
  Sn  Sn28  1  0.318513  0.141222  0.249823  1
  Sn  Sn29  1  0.066603  0.894289  0.250009  1
  Pb  Pb30  1  0.792664  0.465245  0.541343  1
  Pb  Pb31  1  0.708479  0.964652  0.458560  1
  Pb  Pb32  1  0.206653  0.535062  0.458625  1
  Pb  Pb33  1  0.291521  0.035348  0.958560  1
  Pb  Pb34  1  0.793347  0.464938  0.958625  1
  Pb  Pb35  1  0.207336  0.534755  0.041343  1
