# generated using pymatgen
data_LiDy3Ag2Sn3
_symmetry_space_group_name_H-M   'P 1'
_cell_length_a   7.35495731
_cell_length_b   7.35495879
_cell_length_c   4.56266600
_cell_angle_alpha   90.00000000
_cell_angle_beta   90.00000000
_cell_angle_gamma   120.12000270
_symmetry_Int_Tables_number   1
_chemical_formula_structural   LiDy3Ag2Sn3
_chemical_formula_sum   'Li1 Dy3 Ag2 Sn3'
_cell_volume   213.49282215
_cell_formula_units_Z   1
loop_
 _symmetry_equiv_pos_site_id
 _symmetry_equiv_pos_as_xyz
  1  'x, y, z'
loop_
 _atom_site_type_symbol
 _atom_site_label
 _atom_site_symmetry_multiplicity
 _atom_site_fract_x
 _atom_site_fract_y
 _atom_site_fract_z
 _atom_site_occupancy
  Li  Li0  1  0.230837  0.230837  0.500000  1
  Dy  Dy1  1  0.997856  0.435741  0.000000  1
  Dy  Dy2  1  0.574136  0.574136  0.000000  1
  Dy  Dy3  1  0.435741  0.997856  0.000000  1
  Ag  Ag4  1  0.758391  0.001461  0.500000  1
  Ag  Ag5  1  0.001461  0.758391  0.500000  1
  Sn  Sn6  1  0.332549  0.658313  0.500000  1
  Sn  Sn7  1  0.010717  0.010717  0.000000  1
  Sn  Sn8  1  0.658313  0.332549  0.500000  1
