# generated using pymatgen
data_Mg4MnAl(B2Rh5)2
_symmetry_space_group_name_H-M   'P 1'
_cell_length_a   2.93090800
_cell_length_b   9.44519800
_cell_length_c   9.44519800
_cell_angle_alpha   90.00000000
_cell_angle_beta   90.00000000
_cell_angle_gamma   90.00000000
_symmetry_Int_Tables_number   1
_chemical_formula_structural   Mg4MnAl(B2Rh5)2
_chemical_formula_sum   'Mg4 Mn1 Al1 B4 Rh10'
_cell_volume   261.47147649
_cell_formula_units_Z   1
loop_
 _symmetry_equiv_pos_site_id
 _symmetry_equiv_pos_as_xyz
  1  'x, y, z'
loop_
 _atom_site_type_symbol
 _atom_site_label
 _atom_site_symmetry_multiplicity
 _atom_site_fract_x
 _atom_site_fract_y
 _atom_site_fract_z
 _atom_site_occupancy
  Mg  Mg0  1  0.000000  0.822653  0.175386  1
  Mg  Mg1  1  0.000000  0.324616  0.322653  1
  Mg  Mg2  1  0.000000  0.675385  0.677348  1
  Mg  Mg3  1  0.000000  0.177349  0.824616  1
  Mn  Mn4  1  0.000000  0.500001  0.000000  1
  Al  Al5  1  0.000000  0.000000  0.500001  1
  B  B6  1  0.000000  0.124692  0.125745  1
  B  B7  1  0.000000  0.625747  0.375309  1
  B  B8  1  0.000000  0.374256  0.624694  1
  B  B9  1  0.000000  0.875308  0.874255  1
  Rh  Rh10  1  0.499999  0.000000  0.000000  1
  Rh  Rh11  1  0.499999  0.282041  0.073468  1
  Rh  Rh12  1  0.499999  0.573468  0.217960  1
  Rh  Rh13  1  0.499999  0.069054  0.285728  1
  Rh  Rh14  1  0.499999  0.785729  0.430947  1
  Rh  Rh15  1  0.499999  0.500001  0.500001  1
  Rh  Rh16  1  0.499999  0.214273  0.569054  1
  Rh  Rh17  1  0.499999  0.930947  0.714272  1
  Rh  Rh18  1  0.499999  0.426533  0.782042  1
  Rh  Rh19  1  0.499999  0.717959  0.926533  1
