# generated using pymatgen
data_Mg12TcOs7
_symmetry_space_group_name_H-M   'P 1'
_cell_length_a   6.96952347
_cell_length_b   6.96952347
_cell_length_c   6.96952347
_cell_angle_alpha   89.84661060
_cell_angle_beta   89.84661060
_cell_angle_gamma   89.84661060
_symmetry_Int_Tables_number   1
_chemical_formula_structural   Mg12TcOs7
_chemical_formula_sum   'Mg12 Tc1 Os7'
_cell_volume   338.53579411
_cell_formula_units_Z   1
loop_
 _symmetry_equiv_pos_site_id
 _symmetry_equiv_pos_as_xyz
  1  'x, y, z'
loop_
 _atom_site_type_symbol
 _atom_site_label
 _atom_site_symmetry_multiplicity
 _atom_site_fract_x
 _atom_site_fract_y
 _atom_site_fract_z
 _atom_site_occupancy
  Mg  Mg0  1  0.624931  0.292852  0.542935  1
  Mg  Mg1  1  0.707150  0.043276  0.875120  1
  Mg  Mg2  1  0.542935  0.624931  0.292852  1
  Mg  Mg3  1  0.956964  0.375128  0.792926  1
  Mg  Mg4  1  0.292852  0.542935  0.624931  1
  Mg  Mg5  1  0.456980  0.125221  0.206993  1
  Mg  Mg6  1  0.043276  0.875120  0.707150  1
  Mg  Mg7  1  0.792926  0.956964  0.375128  1
  Mg  Mg8  1  0.125221  0.206993  0.456980  1
  Mg  Mg9  1  0.375128  0.792926  0.956964  1
  Mg  Mg10  1  0.875120  0.707150  0.043276  1
  Mg  Mg11  1  0.206993  0.456980  0.125221  1
  Tc  Tc12  1  0.675342  0.675342  0.675342  1
  Os  Os13  1  0.925382  0.574262  0.424157  1
  Os  Os14  1  0.574262  0.424157  0.925382  1
  Os  Os15  1  0.424157  0.925382  0.574262  1
  Os  Os16  1  0.174602  0.825103  0.324829  1
  Os  Os17  1  0.825103  0.324829  0.174602  1
  Os  Os18  1  0.324829  0.174602  0.825103  1
  Os  Os19  1  0.075848  0.075848  0.075848  1
