# generated using pymatgen
data_Tb2ErTm(B6Os)2
_symmetry_space_group_name_H-M   'P 1'
_cell_length_a   3.64294800
_cell_length_b   9.12605936
_cell_length_c   11.52005700
_cell_angle_alpha   90.01614720
_cell_angle_beta   90.00000000
_cell_angle_gamma   90.00000000
_symmetry_Int_Tables_number   1
_chemical_formula_structural   Tb2ErTm(B6Os)2
_chemical_formula_sum   'Tb4 Er2 Tm2 B24 Os4'
_cell_volume   382.99303147
_cell_formula_units_Z   2
loop_
 _symmetry_equiv_pos_site_id
 _symmetry_equiv_pos_as_xyz
  1  'x, y, z'
loop_
 _atom_site_type_symbol
 _atom_site_label
 _atom_site_symmetry_multiplicity
 _atom_site_fract_x
 _atom_site_fract_y
 _atom_site_fract_z
 _atom_site_occupancy
  Tb  Tb0  1  0.000000  0.322010  0.413839  1
  Tb  Tb1  1  0.000000  0.677990  0.586161  1
  Tb  Tb2  1  0.000000  0.821681  0.086067  1
  Tb  Tb3  1  0.000000  0.178319  0.913933  1
  Er  Er4  1  0.000000  0.943997  0.372910  1
  Er  Er5  1  0.000000  0.056003  0.627091  1
  Tm  Tm6  1  0.000000  0.443989  0.126916  1
  Tm  Tm7  1  0.000000  0.556011  0.873083  1
  B  B8  1  0.500000  0.554109  0.432500  1
  B  B9  1  0.500000  0.445891  0.567500  1
  B  B10  1  0.500000  0.054420  0.067275  1
  B  B11  1  0.500000  0.945580  0.932725  1
  B  B12  1  0.500000  0.748423  0.419307  1
  B  B13  1  0.500000  0.251577  0.580693  1
  B  B14  1  0.500000  0.249127  0.080485  1
  B  B15  1  0.500000  0.750873  0.919515  1
  B  B16  1  0.500000  0.790895  0.266396  1
  B  B17  1  0.500000  0.209105  0.733604  1
  B  B18  1  0.500000  0.291487  0.233218  1
  B  B19  1  0.500000  0.708512  0.766782  1
  B  B20  1  0.500000  0.630702  0.184933  1
  B  B21  1  0.500000  0.369298  0.815067  1
  B  B22  1  0.500000  0.131341  0.314661  1
  B  B23  1  0.500000  0.868659  0.685339  1
  B  B24  1  0.500000  0.983324  0.213316  1
  B  B25  1  0.500000  0.016676  0.786684  1
  B  B26  1  0.500000  0.482905  0.286238  1
  B  B27  1  0.500000  0.517095  0.713762  1
  B  B28  1  0.500000  0.604754  0.029024  1
  B  B29  1  0.500000  0.395246  0.970976  1
  B  B30  1  0.500000  0.106140  0.470657  1
  B  B31  1  0.500000  0.893860  0.529343  1
  Os  Os32  1  0.000000  0.637498  0.320660  1
  Os  Os33  1  0.000000  0.362502  0.679340  1
  Os  Os34  1  0.000000  0.138218  0.178996  1
  Os  Os35  1  0.000000  0.861782  0.821004  1
