# generated using pymatgen
data_Ho4ErHgBiAu
_symmetry_space_group_name_H-M   'P 1'
_cell_length_a   8.69702617
_cell_length_b   8.69702729
_cell_length_c   8.74683260
_cell_angle_alpha   123.66774454
_cell_angle_beta   123.66774935
_cell_angle_gamma   83.39050423
_symmetry_Int_Tables_number   1
_chemical_formula_structural   Ho4ErHgBiAu
_chemical_formula_sum   'Ho8 Er2 Hg2 Bi2 Au2'
_cell_volume   440.26429526
_cell_formula_units_Z   2
loop_
 _symmetry_equiv_pos_site_id
 _symmetry_equiv_pos_as_xyz
  1  'x, y, z'
loop_
 _atom_site_type_symbol
 _atom_site_label
 _atom_site_symmetry_multiplicity
 _atom_site_fract_x
 _atom_site_fract_y
 _atom_site_fract_z
 _atom_site_occupancy
  Ho  Ho0  1  0.506294  0.006294  0.796993  1
  Ho  Ho1  1  0.209299  0.709299  0.203007  1
  Ho  Ho2  1  0.017084  0.198835  0.500000  1
  Ho  Ho3  1  0.698835  0.517084  0.500000  1
  Ho  Ho4  1  0.493706  0.993706  0.203007  1
  Ho  Ho5  1  0.790701  0.290701  0.796993  1
  Ho  Ho6  1  0.982916  0.801165  0.500000  1
  Ho  Ho7  1  0.301165  0.482916  0.500000  1
  Er  Er8  1  0.500000  0.500000  0.000000  1
  Er  Er9  1  0.000000  0.000000  0.000000  1
  Hg  Hg10  1  0.140767  0.640767  0.781532  1
  Hg  Hg11  1  0.859233  0.359233  0.218468  1
  Bi  Bi12  1  0.250000  0.250000  0.000000  1
  Bi  Bi13  1  0.750000  0.750000  0.000000  1
  Au  Au14  1  0.637807  0.862193  0.500000  1
  Au  Au15  1  0.362193  0.137807  0.500000  1
