# generated using pymatgen
data_NdHoTm2(NiAs)4
_symmetry_space_group_name_H-M   'P 1'
_cell_length_a   4.04470300
_cell_length_b   4.04470227
_cell_length_c   15.63687900
_cell_angle_alpha   90.00000000
_cell_angle_beta   90.00000000
_cell_angle_gamma   119.99999775
_symmetry_Int_Tables_number   1
_chemical_formula_structural   NdHoTm2(NiAs)4
_chemical_formula_sum   'Nd1 Ho1 Tm2 Ni4 As4'
_cell_volume   221.54089889
_cell_formula_units_Z   1
loop_
 _symmetry_equiv_pos_site_id
 _symmetry_equiv_pos_as_xyz
  1  'x, y, z'
loop_
 _atom_site_type_symbol
 _atom_site_label
 _atom_site_symmetry_multiplicity
 _atom_site_fract_x
 _atom_site_fract_y
 _atom_site_fract_z
 _atom_site_occupancy
  Nd  Nd0  1  0.000000  0.000000  0.000000  1
  Ho  Ho1  1  0.000000  0.000000  0.500000  1
  Tm  Tm2  1  0.000000  0.000000  0.255255  1
  Tm  Tm3  1  0.000000  0.000000  0.744745  1
  Ni  Ni4  1  0.333333  0.666667  0.144204  1
  Ni  Ni5  1  0.666667  0.333333  0.855796  1
  Ni  Ni6  1  0.666667  0.333333  0.634007  1
  Ni  Ni7  1  0.333333  0.666667  0.365993  1
  As  As8  1  0.333333  0.666667  0.618177  1
  As  As9  1  0.666667  0.333333  0.381823  1
  As  As10  1  0.666667  0.333333  0.128659  1
  As  As11  1  0.333333  0.666667  0.871341  1
