# generated using pymatgen
data_Nb2VB2
_symmetry_space_group_name_H-M   'P 1'
_cell_length_a   6.04573100
_cell_length_b   6.04573100
_cell_length_c   3.26113900
_cell_angle_alpha   90.00000000
_cell_angle_beta   90.00000000
_cell_angle_gamma   90.00000000
_symmetry_Int_Tables_number   1
_chemical_formula_structural   Nb2VB2
_chemical_formula_sum   'Nb4 V2 B4'
_cell_volume   119.19744587
_cell_formula_units_Z   2
loop_
 _symmetry_equiv_pos_site_id
 _symmetry_equiv_pos_as_xyz
  1  'x, y, z'
loop_
 _atom_site_type_symbol
 _atom_site_label
 _atom_site_symmetry_multiplicity
 _atom_site_fract_x
 _atom_site_fract_y
 _atom_site_fract_z
 _atom_site_occupancy
  Nb  Nb0  1  0.319489  0.180510  0.499999  1
  Nb  Nb1  1  0.819490  0.319489  0.499999  1
  Nb  Nb2  1  0.180510  0.680510  0.499999  1
  Nb  Nb3  1  0.680510  0.819490  0.499999  1
  V  V4  1  0.000000  0.000000  0.000000  1
  V  V5  1  0.499999  0.499999  0.000000  1
  B  B6  1  0.607990  0.107991  0.000000  1
  B  B7  1  0.107991  0.392009  0.000000  1
  B  B8  1  0.892010  0.607990  0.000000  1
  B  B9  1  0.392009  0.892010  0.000000  1
