# generated using pymatgen
data_Cd3FeSb(PN2)6
_symmetry_space_group_name_H-M   'P 1'
_cell_length_a   7.40791067
_cell_length_b   7.42685065
_cell_length_c   7.42685102
_cell_angle_alpha   109.52282156
_cell_angle_beta   109.41957449
_cell_angle_gamma   109.41957358
_symmetry_Int_Tables_number   1
_chemical_formula_structural   Cd3FeSb(PN2)6
_chemical_formula_sum   'Cd3 Fe1 Sb1 P6 N12'
_cell_volume   314.74558433
_cell_formula_units_Z   1
loop_
 _symmetry_equiv_pos_site_id
 _symmetry_equiv_pos_as_xyz
  1  'x, y, z'
loop_
 _atom_site_type_symbol
 _atom_site_label
 _atom_site_symmetry_multiplicity
 _atom_site_fract_x
 _atom_site_fract_y
 _atom_site_fract_z
 _atom_site_occupancy
  Cd  Cd0  1  0.006849  0.000000  0.666420  1
  Cd  Cd1  1  0.006849  0.666420  0.000000  1
  Cd  Cd2  1  0.340429  0.333580  0.333580  1
  Fe  Fe3  1  0.593285  0.000000  0.000000  1
  Sb  Sb4  1  0.941726  0.000000  0.000000  1
  P  P5  1  0.256089  0.748164  0.501130  1
  P  P6  1  0.754960  0.247034  0.498870  1
  P  P7  1  0.754960  0.498870  0.247034  1
  P  P8  1  0.256089  0.501130  0.748164  1
  P  P9  1  0.507926  0.752966  0.251836  1
  P  P10  1  0.507926  0.251836  0.752966  1
  N  N11  1  0.703057  0.277649  0.277649  1
  N  N12  1  0.297995  0.718309  0.292970  1
  N  N13  1  0.307970  0.585141  0.585141  1
  N  N14  1  0.579686  0.574661  0.281691  1
  N  N15  1  0.425408  0.722351  0.000000  1
  N  N16  1  0.005026  0.707030  0.425339  1
  N  N17  1  0.579686  0.281691  0.574661  1
  N  N18  1  0.722828  0.000000  0.414859  1
  N  N19  1  0.425408  0.000000  0.722351  1
  N  N20  1  0.722828  0.414859  0.000000  1
  N  N21  1  0.297995  0.292970  0.718309  1
  N  N22  1  0.005026  0.425339  0.707030  1
