# generated using pymatgen
data_Nd3DyTmSn3
_symmetry_space_group_name_H-M   'P 1'
_cell_length_a   6.68205400
_cell_length_b   9.15797584
_cell_length_c   9.15821201
_cell_angle_alpha   119.99914553
_cell_angle_beta   90.00044818
_cell_angle_gamma   89.99910391
_symmetry_Int_Tables_number   1
_chemical_formula_structural   Nd3DyTmSn3
_chemical_formula_sum   'Nd6 Dy2 Tm2 Sn6'
_cell_volume   485.34944633
_cell_formula_units_Z   2
loop_
 _symmetry_equiv_pos_site_id
 _symmetry_equiv_pos_as_xyz
  1  'x, y, z'
loop_
 _atom_site_type_symbol
 _atom_site_label
 _atom_site_symmetry_multiplicity
 _atom_site_fract_x
 _atom_site_fract_y
 _atom_site_fract_z
 _atom_site_occupancy
  Nd  Nd0  1  0.750247  0.241060  0.000000  1
  Nd  Nd1  1  0.750249  0.758844  0.758882  1
  Nd  Nd2  1  0.750249  0.999962  0.241118  1
  Nd  Nd3  1  0.249757  0.758940  0.000000  1
  Nd  Nd4  1  0.249749  0.241155  0.241117  1
  Nd  Nd5  1  0.249749  0.000038  0.758883  1
  Dy  Dy6  1  0.500000  0.333340  0.666690  1
  Dy  Dy7  1  0.500000  0.666650  0.333310  1
  Tm  Tm8  1  0.999999  0.666659  0.333306  1
  Tm  Tm9  1  0.999999  0.333352  0.666694  1
  Sn  Sn10  1  0.750783  0.600863  0.000000  1
  Sn  Sn11  1  0.750793  0.399089  0.399092  1
  Sn  Sn12  1  0.750793  0.999998  0.600908  1
  Sn  Sn13  1  0.249214  0.399139  0.000000  1
  Sn  Sn14  1  0.249209  0.600909  0.600908  1
  Sn  Sn15  1  0.249209  0.000002  0.399092  1
