# generated using pymatgen
data_La3PrSb10
_symmetry_space_group_name_H-M   'P 1'
_cell_length_a   4.33386400
_cell_length_b   13.71818453
_cell_length_c   15.46139500
_cell_angle_alpha   77.91994357
_cell_angle_beta   90.00000000
_cell_angle_gamma   90.00000000
_symmetry_Int_Tables_number   1
_chemical_formula_structural   La3PrSb10
_chemical_formula_sum   'La6 Pr2 Sb20'
_cell_volume   898.86726090
_cell_formula_units_Z   2
loop_
 _symmetry_equiv_pos_site_id
 _symmetry_equiv_pos_as_xyz
  1  'x, y, z'
loop_
 _atom_site_type_symbol
 _atom_site_label
 _atom_site_symmetry_multiplicity
 _atom_site_fract_x
 _atom_site_fract_y
 _atom_site_fract_z
 _atom_site_occupancy
  La  La0  1  0.750000  0.331835  0.143621  1
  La  La1  1  0.250000  0.947404  0.366778  1
  La  La2  1  0.250000  0.668165  0.856379  1
  La  La3  1  0.250000  0.667788  0.577977  1
  La  La4  1  0.750000  0.052596  0.633222  1
  La  La5  1  0.750000  0.332212  0.422023  1
  Pr  Pr6  1  0.250000  0.396668  0.772484  1
  Pr  Pr7  1  0.750000  0.603332  0.227516  1
  Sb  Sb8  1  0.750000  0.856992  0.814456  1
  Sb  Sb9  1  0.250000  0.863496  0.674707  1
  Sb  Sb10  1  0.250000  0.145164  0.474295  1
  Sb  Sb11  1  0.750000  0.287864  0.938313  1
  Sb  Sb12  1  0.250000  0.146615  0.776116  1
  Sb  Sb13  1  0.750000  0.575555  0.442687  1
  Sb  Sb14  1  0.750000  0.136504  0.325293  1
  Sb  Sb15  1  0.250000  0.703150  0.355979  1
  Sb  Sb16  1  0.750000  0.296850  0.644021  1
  Sb  Sb17  1  0.750000  0.853385  0.223884  1
  Sb  Sb18  1  0.250000  0.420317  0.974734  1
  Sb  Sb19  1  0.250000  0.424445  0.557313  1
  Sb  Sb20  1  0.750000  0.578269  0.736298  1
  Sb  Sb21  1  0.250000  0.421731  0.263702  1
  Sb  Sb22  1  0.750000  0.854836  0.525705  1
  Sb  Sb23  1  0.750000  0.036708  0.881277  1
  Sb  Sb24  1  0.250000  0.712136  0.061687  1
  Sb  Sb25  1  0.250000  0.963292  0.118723  1
  Sb  Sb26  1  0.250000  0.143008  0.185544  1
  Sb  Sb27  1  0.750000  0.579683  0.025266  1
