# generated using pymatgen
data_OsSe29
_symmetry_space_group_name_H-M   'P 1'
_cell_length_a   7.56795510
_cell_length_b   9.81942544
_cell_length_c   11.71483423
_cell_angle_alpha   74.42241335
_cell_angle_beta   80.56195436
_cell_angle_gamma   67.45203410
_symmetry_Int_Tables_number   1
_chemical_formula_structural   OsSe29
_chemical_formula_sum   'Os1 Se29'
_cell_volume   772.66064788
_cell_formula_units_Z   1
loop_
 _symmetry_equiv_pos_site_id
 _symmetry_equiv_pos_as_xyz
  1  'x, y, z'
loop_
 _atom_site_type_symbol
 _atom_site_label
 _atom_site_symmetry_multiplicity
 _atom_site_fract_x
 _atom_site_fract_y
 _atom_site_fract_z
 _atom_site_occupancy
  Os  Os0  1  0.000000  0.000000  0.000000  1
  Se  Se1  1  0.500000  0.000000  0.000000  1
  Se  Se2  1  0.101057  0.199578  0.201291  1
  Se  Se3  1  0.699947  0.403145  0.398260  1
  Se  Se4  1  0.300053  0.596855  0.601740  1
  Se  Se5  1  0.598904  0.200091  0.202017  1
  Se  Se6  1  0.898943  0.800422  0.798709  1
  Se  Se7  1  0.200894  0.397521  0.400077  1
  Se  Se8  1  0.799106  0.602479  0.599923  1
  Se  Se9  1  0.401096  0.799909  0.797983  1
  Se  Se10  1  0.236616  0.073574  0.846161  1
  Se  Se11  1  0.647912  0.717695  0.966690  1
  Se  Se12  1  0.861893  0.261161  0.034417  1
  Se  Se13  1  0.232174  0.925970  0.153727  1
  Se  Se14  1  0.451866  0.484797  0.232901  1
  Se  Se15  1  0.767826  0.074030  0.846273  1
  Se  Se16  1  0.850895  0.115310  0.365589  1
  Se  Se17  1  0.138107  0.738839  0.965583  1
  Se  Se18  1  0.051978  0.680199  0.433407  1
  Se  Se19  1  0.352088  0.282305  0.033310  1
  Se  Se20  1  0.763384  0.926426  0.153839  1
  Se  Se21  1  0.448265  0.319064  0.566797  1
  Se  Se22  1  0.648148  0.887765  0.629877  1
  Se  Se23  1  0.950283  0.483863  0.232724  1
  Se  Se24  1  0.049717  0.516137  0.767276  1
  Se  Se25  1  0.351852  0.112235  0.370123  1
  Se  Se26  1  0.551735  0.680936  0.433203  1
  Se  Se27  1  0.948022  0.319801  0.566593  1
  Se  Se28  1  0.149105  0.884690  0.634411  1
  Se  Se29  1  0.548134  0.515203  0.767099  1
