# generated using pymatgen
data_CrCo4P4Ru2W
_symmetry_space_group_name_H-M   'P 1'
_cell_length_a   3.68828200
_cell_length_b   5.74281529
_cell_length_c   6.70919075
_cell_angle_alpha   90.33940969
_cell_angle_beta   90.00000000
_cell_angle_gamma   90.00000000
_symmetry_Int_Tables_number   1
_chemical_formula_structural   CrCo4P4Ru2W
_chemical_formula_sum   'Cr1 Co4 P4 Ru2 W1'
_cell_volume   142.10569615
_cell_formula_units_Z   1
loop_
 _symmetry_equiv_pos_site_id
 _symmetry_equiv_pos_as_xyz
  1  'x, y, z'
loop_
 _atom_site_type_symbol
 _atom_site_label
 _atom_site_symmetry_multiplicity
 _atom_site_fract_x
 _atom_site_fract_y
 _atom_site_fract_z
 _atom_site_occupancy
  Cr  Cr0  1  0.250000  0.977333  0.674371  1
  Co  Co1  1  0.750000  0.638852  0.563296  1
  Co  Co2  1  0.750000  0.140729  0.928190  1
  Co  Co3  1  0.250000  0.359946  0.433554  1
  Co  Co4  1  0.250000  0.856927  0.065395  1
  P  P5  1  0.750000  0.264759  0.620467  1
  P  P6  1  0.750000  0.761025  0.877115  1
  P  P7  1  0.250000  0.742466  0.381147  1
  P  P8  1  0.250000  0.231229  0.118149  1
  Ru  Ru9  1  0.750000  0.031423  0.332199  1
  Ru  Ru10  1  0.250000  0.468543  0.834390  1
  W  W11  1  0.750000  0.526768  0.171725  1
