# generated using pymatgen
data_CaNdAlRh3
_symmetry_space_group_name_H-M   'P 1'
_cell_length_a   5.17351457
_cell_length_b   5.17351446
_cell_length_c   5.17351408
_cell_angle_alpha   66.41708127
_cell_angle_beta   66.41707991
_cell_angle_gamma   66.41708225
_symmetry_Int_Tables_number   1
_chemical_formula_structural   CaNdAlRh3
_chemical_formula_sum   'Ca1 Nd1 Al1 Rh3'
_cell_volume   111.45713814
_cell_formula_units_Z   1
loop_
 _symmetry_equiv_pos_site_id
 _symmetry_equiv_pos_as_xyz
  1  'x, y, z'
loop_
 _atom_site_type_symbol
 _atom_site_label
 _atom_site_symmetry_multiplicity
 _atom_site_fract_x
 _atom_site_fract_y
 _atom_site_fract_z
 _atom_site_occupancy
  Ca  Ca0  1  0.370618  0.370618  0.370618  1
  Nd  Nd1  1  0.629531  0.629531  0.629531  1
  Al  Al2  1  0.000225  0.000225  0.000225  1
  Rh  Rh3  1  0.499187  0.000219  0.000219  1
  Rh  Rh4  1  0.000219  0.499187  0.000219  1
  Rh  Rh5  1  0.000219  0.000219  0.499187  1
