# generated using pymatgen
data_AlGa2Mo9
_symmetry_space_group_name_H-M   'P 1'
_cell_length_a   4.94586800
_cell_length_b   4.94345400
_cell_length_c   14.75923100
_cell_angle_alpha   90.00000000
_cell_angle_beta   90.00000000
_cell_angle_gamma   90.00000000
_symmetry_Int_Tables_number   1
_chemical_formula_structural   AlGa2Mo9
_chemical_formula_sum   'Al2 Ga4 Mo18'
_cell_volume   360.85834140
_cell_formula_units_Z   2
loop_
 _symmetry_equiv_pos_site_id
 _symmetry_equiv_pos_as_xyz
  1  'x, y, z'
loop_
 _atom_site_type_symbol
 _atom_site_label
 _atom_site_symmetry_multiplicity
 _atom_site_fract_x
 _atom_site_fract_y
 _atom_site_fract_z
 _atom_site_occupancy
  Al  Al0  1  0.500000  0.500000  0.833604  1
  Al  Al1  1  0.500000  0.500000  0.499693  1
  Ga  Ga2  1  0.500000  0.500000  0.166662  1
  Ga  Ga3  1  0.000000  0.000000  0.000005  1
  Ga  Ga4  1  0.000000  0.000000  0.666692  1
  Ga  Ga5  1  0.000000  0.000000  0.333342  1
  Mo  Mo6  1  0.500000  0.000000  0.750071  1
  Mo  Mo7  1  0.500000  0.000000  0.416930  1
  Mo  Mo8  1  0.500000  0.000000  0.083192  1
  Mo  Mo9  1  0.250840  0.500000  0.999942  1
  Mo  Mo10  1  0.251107  0.500000  0.666655  1
  Mo  Mo11  1  0.250852  0.500000  0.333388  1
  Mo  Mo12  1  0.000000  0.749976  0.833433  1
  Mo  Mo13  1  0.000000  0.749973  0.499926  1
  Mo  Mo14  1  0.000000  0.750636  0.166662  1
  Mo  Mo15  1  0.500000  0.000000  0.916391  1
  Mo  Mo16  1  0.500000  0.000000  0.583266  1
  Mo  Mo17  1  0.500000  0.000000  0.250136  1
  Mo  Mo18  1  0.749160  0.500000  0.999942  1
  Mo  Mo19  1  0.748893  0.500000  0.666655  1
  Mo  Mo20  1  0.749148  0.500000  0.333388  1
  Mo  Mo21  1  0.000000  0.250024  0.833433  1
  Mo  Mo22  1  0.000000  0.250027  0.499926  1
  Mo  Mo23  1  0.000000  0.249364  0.166662  1
