# generated using pymatgen
data_Tm8Sc12GaSi15
_symmetry_space_group_name_H-M   'P 1'
_cell_length_a   7.05897413
_cell_length_b   7.35310588
_cell_length_c   13.94282289
_cell_angle_alpha   89.94426190
_cell_angle_beta   89.97875525
_cell_angle_gamma   89.99454851
_symmetry_Int_Tables_number   1
_chemical_formula_structural   Tm8Sc12GaSi15
_chemical_formula_sum   'Tm8 Sc12 Ga1 Si15'
_cell_volume   723.70718293
_cell_formula_units_Z   1
loop_
 _symmetry_equiv_pos_site_id
 _symmetry_equiv_pos_as_xyz
  1  'x, y, z'
loop_
 _atom_site_type_symbol
 _atom_site_label
 _atom_site_symmetry_multiplicity
 _atom_site_fract_x
 _atom_site_fract_y
 _atom_site_fract_z
 _atom_site_occupancy
  Tm  Tm0  1  0.012116  0.176230  0.096781  1
  Tm  Tm1  1  0.987810  0.823940  0.903555  1
  Tm  Tm2  1  0.487718  0.677053  0.903484  1
  Tm  Tm3  1  0.987279  0.825805  0.597275  1
  Tm  Tm4  1  0.512203  0.323162  0.096684  1
  Tm  Tm5  1  0.011205  0.174845  0.402041  1
  Tm  Tm6  1  0.512841  0.322860  0.401996  1
  Tm  Tm7  1  0.489812  0.678751  0.597271  1
  Sc  Sc8  1  0.161313  0.503821  0.751474  1
  Sc  Sc9  1  0.838655  0.496342  0.249976  1
  Sc  Sc10  1  0.338814  0.003889  0.249764  1
  Sc  Sc11  1  0.661564  0.995327  0.750085  1
  Sc  Sc12  1  0.332288  0.174148  0.625930  1
  Sc  Sc13  1  0.668599  0.824040  0.374484  1
  Sc  Sc14  1  0.169940  0.677759  0.373674  1
  Sc  Sc15  1  0.669564  0.823502  0.125284  1
  Sc  Sc16  1  0.828492  0.322995  0.625426  1
  Sc  Sc17  1  0.330198  0.176085  0.874999  1
  Sc  Sc18  1  0.830675  0.322877  0.874977  1
  Sc  Sc19  1  0.169146  0.676991  0.125284  1
  Ga  Ga20  1  0.160915  0.463335  0.539297  1
  Si  Si21  1  0.033163  0.115643  0.750522  1
  Si  Si22  1  0.967037  0.885268  0.249792  1
  Si  Si23  1  0.467940  0.614332  0.250034  1
  Si  Si24  1  0.531782  0.386186  0.749738  1
  Si  Si25  1  0.284444  0.870972  0.750247  1
  Si  Si26  1  0.714934  0.129173  0.249703  1
  Si  Si27  1  0.214736  0.370680  0.249489  1
  Si  Si28  1  0.785316  0.628984  0.750629  1
  Si  Si29  1  0.840150  0.535113  0.460290  1
  Si  Si30  1  0.340732  0.965064  0.460325  1
  Si  Si31  1  0.840817  0.534856  0.038751  1
  Si  Si32  1  0.658696  0.034883  0.539157  1
  Si  Si33  1  0.159139  0.464952  0.961448  1
  Si  Si34  1  0.658801  0.034784  0.960645  1
  Si  Si35  1  0.341165  0.965352  0.039492  1
