# generated using pymatgen
data_Dy3Tm2Pa(Al3Os)8
_symmetry_space_group_name_H-M   'P 1'
_cell_length_a   8.78091200
_cell_length_b   8.82746199
_cell_length_c   9.54197100
_cell_angle_alpha   90.00000000
_cell_angle_beta   90.00000000
_cell_angle_gamma   119.82571291
_symmetry_Int_Tables_number   1
_chemical_formula_structural   Dy3Tm2Pa(Al3Os)8
_chemical_formula_sum   'Dy3 Tm2 Pa1 Al24 Os8'
_cell_volume   641.65894232
_cell_formula_units_Z   1
loop_
 _symmetry_equiv_pos_site_id
 _symmetry_equiv_pos_as_xyz
  1  'x, y, z'
loop_
 _atom_site_type_symbol
 _atom_site_label
 _atom_site_symmetry_multiplicity
 _atom_site_fract_x
 _atom_site_fract_y
 _atom_site_fract_z
 _atom_site_occupancy
  Dy  Dy0  1  0.808146  0.616290  0.750000  1
  Dy  Dy1  1  0.387537  0.191743  0.750000  1
  Dy  Dy2  1  0.804206  0.191743  0.750000  1
  Tm  Tm3  1  0.608260  0.801916  0.250000  1
  Tm  Tm4  1  0.193656  0.801916  0.250000  1
  Pa  Pa5  1  0.196938  0.393875  0.250000  1
  Al  Al6  1  0.336591  0.673183  0.020109  1
  Al  Al7  1  0.667849  0.335696  0.979304  1
  Al  Al8  1  0.667849  0.335696  0.520696  1
  Al  Al9  1  0.336591  0.673183  0.479891  1
  Al  Al10  1  0.163299  0.326600  0.577521  1
  Al  Al11  1  0.836586  0.673172  0.424503  1
  Al  Al12  1  0.672043  0.835176  0.574413  1
  Al  Al13  1  0.836586  0.673172  0.075497  1
  Al  Al14  1  0.326803  0.162175  0.423515  1
  Al  Al15  1  0.163299  0.326600  0.922479  1
  Al  Al16  1  0.163133  0.835176  0.574413  1
  Al  Al17  1  0.326803  0.162175  0.076485  1
  Al  Al18  1  0.835373  0.162175  0.423515  1
  Al  Al19  1  0.672043  0.835176  0.925587  1
  Al  Al20  1  0.835373  0.162175  0.076485  1
  Al  Al21  1  0.163133  0.835176  0.925587  1
  Al  Al22  1  0.559719  0.119438  0.250000  1
  Al  Al23  1  0.437314  0.874629  0.750000  1
  Al  Al24  1  0.873081  0.437854  0.250000  1
  Al  Al25  1  0.121004  0.560076  0.750000  1
  Al  Al26  1  0.564773  0.437854  0.250000  1
  Al  Al27  1  0.439072  0.560076  0.750000  1
  Al  Al28  1  0.000594  0.001189  0.250000  1
  Al  Al29  1  0.000480  0.000958  0.750000  1
  Os  Os30  1  0.501264  0.002528  0.998788  1
  Os  Os31  1  0.004218  0.500293  0.005326  1
  Os  Os32  1  0.501264  0.002528  0.501212  1
  Os  Os33  1  0.496076  0.500293  0.005326  1
  Os  Os34  1  0.004218  0.500293  0.494674  1
  Os  Os35  1  0.496076  0.500293  0.494674  1
  Os  Os36  1  0.999376  0.998752  0.999099  1
  Os  Os37  1  0.999376  0.998752  0.500901  1
