# generated using pymatgen
data_PrNpAl16Pt9
_symmetry_space_group_name_H-M   'P 1'
_cell_length_a   11.17992314
_cell_length_b   11.17992355
_cell_length_c   11.17992400
_cell_angle_alpha   158.47254964
_cell_angle_beta   115.45092385
_cell_angle_gamma   68.90105314
_symmetry_Int_Tables_number   1
_chemical_formula_structural   PrNpAl16Pt9
_chemical_formula_sum   'Pr1 Np1 Al16 Pt9'
_cell_volume   459.65543308
_cell_formula_units_Z   1
loop_
 _symmetry_equiv_pos_site_id
 _symmetry_equiv_pos_as_xyz
  1  'x, y, z'
loop_
 _atom_site_type_symbol
 _atom_site_label
 _atom_site_symmetry_multiplicity
 _atom_site_fract_x
 _atom_site_fract_y
 _atom_site_fract_z
 _atom_site_occupancy
  Pr  Pr0  1  0.228460  0.228460  0.000000  1
  Np  Np1  1  0.770807  0.770807  0.000000  1
  Al  Al2  1  0.272644  0.392166  0.880481  1
  Al  Al3  1  0.092367  0.920514  0.171852  1
  Al  Al4  1  0.512976  0.203977  0.309000  1
  Al  Al5  1  0.252242  0.079368  0.172874  1
  Al  Al6  1  0.914313  0.414313  0.500000  1
  Al  Al7  1  0.726272  0.608110  0.118161  1
  Al  Al8  1  0.894976  0.203977  0.691000  1
  Al  Al9  1  0.489470  0.796081  0.693389  1
  Al  Al10  1  0.385819  0.999943  0.385875  1
  Al  Al11  1  0.614068  0.999943  0.614125  1
  Al  Al12  1  0.489947  0.608110  0.881839  1
  Al  Al13  1  0.102692  0.796081  0.306611  1
  Al  Al14  1  0.906492  0.079368  0.827126  1
  Al  Al15  1  0.748661  0.920514  0.828148  1
  Al  Al16  1  0.511685  0.392166  0.119519  1
  Al  Al17  1  0.085873  0.585873  0.500000  1
  Pt  Pt18  1  0.747845  0.499879  0.247966  1
  Pt  Pt19  1  0.023251  0.339323  0.683928  1
  Pt  Pt20  1  0.625170  0.125170  0.500000  1
  Pt  Pt21  1  0.251913  0.499879  0.752034  1
  Pt  Pt22  1  0.375426  0.875426  0.500000  1
  Pt  Pt23  1  0.000416  0.000416  0.000000  1
  Pt  Pt24  1  0.655393  0.339323  0.316072  1
  Pt  Pt25  1  0.347282  0.660410  0.686873  1
  Pt  Pt26  1  0.973537  0.660410  0.313127  1
