# generated using pymatgen
data_LuHf3Pd5Pt7
_symmetry_space_group_name_H-M   'P 1'
_cell_length_a   5.72096780
_cell_length_b   5.72223197
_cell_length_c   9.35067100
_cell_angle_alpha   90.00044056
_cell_angle_beta   89.96977458
_cell_angle_gamma   120.08711781
_symmetry_Int_Tables_number   1
_chemical_formula_structural   LuHf3Pd5Pt7
_chemical_formula_sum   'Lu1 Hf3 Pd5 Pt7'
_cell_volume   264.86609772
_cell_formula_units_Z   1
loop_
 _symmetry_equiv_pos_site_id
 _symmetry_equiv_pos_as_xyz
  1  'x, y, z'
loop_
 _atom_site_type_symbol
 _atom_site_label
 _atom_site_symmetry_multiplicity
 _atom_site_fract_x
 _atom_site_fract_y
 _atom_site_fract_z
 _atom_site_occupancy
  Lu  Lu0  1  0.665063  0.331218  0.750445  1
  Hf  Hf1  1  0.336482  0.666423  0.250060  1
  Hf  Hf2  1  0.000160  0.002132  0.502254  1
  Hf  Hf3  1  0.000066  0.002831  0.997885  1
  Pd  Pd4  1  0.337913  0.168625  0.249263  1
  Pd  Pd5  1  0.659497  0.829401  0.750959  1
  Pd  Pd6  1  0.001171  0.501818  0.003252  1
  Pd  Pd7  1  0.832625  0.661847  0.249291  1
  Pd  Pd8  1  0.169415  0.828795  0.750468  1
  Pt  Pt9  1  0.168132  0.337209  0.750503  1
  Pt  Pt10  1  0.834229  0.168829  0.249326  1
  Pt  Pt11  1  0.497101  0.996745  0.004960  1
  Pt  Pt12  1  0.499244  0.502123  0.496416  1
  Pt  Pt13  1  0.002815  0.502308  0.495989  1
  Pt  Pt14  1  0.497870  0.501918  0.003564  1
  Pt  Pt15  1  0.498218  0.997776  0.495368  1
