# generated using pymatgen
data_TbTl(SeO3)2
_symmetry_space_group_name_H-M   'P 1'
_cell_length_a   5.86168500
_cell_length_b   8.95031400
_cell_length_c   14.02784000
_cell_angle_alpha   90.00000000
_cell_angle_beta   90.00000000
_cell_angle_gamma   90.00000000
_symmetry_Int_Tables_number   1
_chemical_formula_structural   TbTl(SeO3)2
_chemical_formula_sum   'Tb4 Tl4 Se8 O24'
_cell_volume   735.95549404
_cell_formula_units_Z   4
loop_
 _symmetry_equiv_pos_site_id
 _symmetry_equiv_pos_as_xyz
  1  'x, y, z'
loop_
 _atom_site_type_symbol
 _atom_site_label
 _atom_site_symmetry_multiplicity
 _atom_site_fract_x
 _atom_site_fract_y
 _atom_site_fract_z
 _atom_site_occupancy
  Tb  Tb0  1  0.250000  0.809606  0.898178  1
  Tb  Tb1  1  0.250000  0.690394  0.398178  1
  Tb  Tb2  1  0.750000  0.190394  0.101822  1
  Tb  Tb3  1  0.750000  0.309606  0.601822  1
  Tl  Tl4  1  0.250000  0.991087  0.625859  1
  Tl  Tl5  1  0.250000  0.508913  0.125859  1
  Tl  Tl6  1  0.750000  0.008913  0.374141  1
  Tl  Tl7  1  0.750000  0.491087  0.874141  1
  Se  Se8  1  0.750000  0.017657  0.797503  1
  Se  Se9  1  0.750000  0.482343  0.297503  1
  Se  Se10  1  0.250000  0.982343  0.202497  1
  Se  Se11  1  0.250000  0.517657  0.702497  1
  Se  Se12  1  0.750000  0.714833  0.562357  1
  Se  Se13  1  0.750000  0.785167  0.062357  1
  Se  Se14  1  0.250000  0.285167  0.437643  1
  Se  Se15  1  0.250000  0.214833  0.937643  1
  O  O16  1  0.979811  0.897302  0.794805  1
  O  O17  1  0.520189  0.602698  0.294805  1
  O  O18  1  0.479811  0.102698  0.205195  1
  O  O19  1  0.020189  0.397302  0.705195  1
  O  O20  1  0.020189  0.102698  0.205195  1
  O  O21  1  0.479811  0.397302  0.705195  1
  O  O22  1  0.520189  0.897302  0.794805  1
  O  O23  1  0.979811  0.602698  0.294805  1
  O  O24  1  0.750000  0.084843  0.681567  1
  O  O25  1  0.750000  0.415157  0.181567  1
  O  O26  1  0.250000  0.915157  0.318433  1
  O  O27  1  0.250000  0.584843  0.818433  1
  O  O28  1  0.979784  0.788175  0.499732  1
  O  O29  1  0.520216  0.711825  0.999732  1
  O  O30  1  0.479784  0.211825  0.500268  1
  O  O31  1  0.020216  0.288175  0.000268  1
  O  O32  1  0.020216  0.211825  0.500268  1
  O  O33  1  0.479784  0.288175  0.000268  1
  O  O34  1  0.520216  0.788175  0.499732  1
  O  O35  1  0.979784  0.711825  0.999732  1
  O  O36  1  0.750000  0.532377  0.526221  1
  O  O37  1  0.750000  0.967623  0.026221  1
  O  O38  1  0.250000  0.467623  0.473779  1
  O  O39  1  0.250000  0.032377  0.973779  1
