# generated using pymatgen
data_YEr17Tm2Zn3Cd3Ru2
_symmetry_space_group_name_H-M   'P 1'
_cell_length_a   9.44136565
_cell_length_b   9.43397476
_cell_length_c   9.61016705
_cell_angle_alpha   90.00946880
_cell_angle_beta   89.98943280
_cell_angle_gamma   119.96774388
_symmetry_Int_Tables_number   1
_chemical_formula_structural   YEr17Tm2Zn3Cd3Ru2
_chemical_formula_sum   'Y1 Er17 Tm2 Zn3 Cd3 Ru2'
_cell_volume   741.53585632
_cell_formula_units_Z   1
loop_
 _symmetry_equiv_pos_site_id
 _symmetry_equiv_pos_as_xyz
  1  'x, y, z'
loop_
 _atom_site_type_symbol
 _atom_site_label
 _atom_site_symmetry_multiplicity
 _atom_site_fract_x
 _atom_site_fract_y
 _atom_site_fract_z
 _atom_site_occupancy
  Y  Y0  1  0.083330  0.541570  0.750028  1
  Er  Er1  1  0.999572  0.999841  0.474635  1
  Er  Er2  1  0.999486  0.999960  0.025690  1
  Er  Er3  1  0.208746  0.792289  0.438796  1
  Er  Er4  1  0.208790  0.416382  0.438648  1
  Er  Er5  1  0.583024  0.791427  0.439111  1
  Er  Er6  1  0.790231  0.208727  0.556076  1
  Er  Er7  1  0.790199  0.581455  0.556032  1
  Er  Er8  1  0.418236  0.209139  0.556098  1
  Er  Er9  1  0.790267  0.208698  0.944028  1
  Er  Er10  1  0.790127  0.581603  0.943973  1
  Er  Er11  1  0.418079  0.209215  0.943934  1
  Er  Er12  1  0.208935  0.792074  0.061004  1
  Er  Er13  1  0.541191  0.459100  0.249675  1
  Er  Er14  1  0.541516  0.082426  0.249841  1
  Er  Er15  1  0.917953  0.458804  0.249850  1
  Er  Er16  1  0.459789  0.540739  0.750290  1
  Er  Er17  1  0.459997  0.919240  0.750161  1
  Tm  Tm18  1  0.208811  0.416517  0.061159  1
  Tm  Tm19  1  0.582862  0.791313  0.060701  1
  Zn  Zn20  1  0.877585  0.121320  0.249876  1
  Zn  Zn21  1  0.877428  0.756237  0.249931  1
  Zn  Zn22  1  0.243712  0.122071  0.249916  1
  Cd  Cd23  1  0.111032  0.890997  0.750182  1
  Cd  Cd24  1  0.111262  0.220312  0.750394  1
  Cd  Cd25  1  0.778705  0.889233  0.750458  1
  Ru  Ru26  1  0.333290  0.666324  0.249495  1
  Ru  Ru27  1  0.665844  0.332987  0.750016  1
