# generated using pymatgen
data_Li2La3PrAs4
_symmetry_space_group_name_H-M   'P 1'
_cell_length_a   4.36395700
_cell_length_b   4.36395758
_cell_length_c   15.18981000
_cell_angle_alpha   90.00000000
_cell_angle_beta   90.00000000
_cell_angle_gamma   120.00000321
_symmetry_Int_Tables_number   1
_chemical_formula_structural   Li2La3PrAs4
_chemical_formula_sum   'Li2 La3 Pr1 As4'
_cell_volume   250.52088767
_cell_formula_units_Z   1
loop_
 _symmetry_equiv_pos_site_id
 _symmetry_equiv_pos_as_xyz
  1  'x, y, z'
loop_
 _atom_site_type_symbol
 _atom_site_label
 _atom_site_symmetry_multiplicity
 _atom_site_fract_x
 _atom_site_fract_y
 _atom_site_fract_z
 _atom_site_occupancy
  Li  Li0  1  0.000000  0.000000  0.249171  1
  Li  Li1  1  0.000000  0.000000  0.749973  1
  La  La2  1  0.333333  0.666667  0.388404  1
  La  La3  1  0.666667  0.333332  0.610730  1
  La  La4  1  0.666667  0.333332  0.890177  1
  Pr  Pr5  1  0.333333  0.666667  0.110816  1
  As  As6  1  0.000000  0.000000  0.001269  1
  As  As7  1  0.666667  0.333332  0.249251  1
  As  As8  1  0.000000  0.000000  0.499915  1
  As  As9  1  0.333333  0.666667  0.750294  1
