# generated using pymatgen
data_Dy3Y7(Bi2Os)2
_symmetry_space_group_name_H-M   'P 1'
_cell_length_a   7.98412734
_cell_length_b   9.05064231
_cell_length_c   12.53534335
_cell_angle_alpha   89.98411924
_cell_angle_beta   89.97782327
_cell_angle_gamma   90.02513484
_symmetry_Int_Tables_number   1
_chemical_formula_structural   Dy3Y7(Bi2Os)2
_chemical_formula_sum   'Dy6 Y14 Bi8 Os4'
_cell_volume   905.82228188
_cell_formula_units_Z   2
loop_
 _symmetry_equiv_pos_site_id
 _symmetry_equiv_pos_as_xyz
  1  'x, y, z'
loop_
 _atom_site_type_symbol
 _atom_site_label
 _atom_site_symmetry_multiplicity
 _atom_site_fract_x
 _atom_site_fract_y
 _atom_site_fract_z
 _atom_site_occupancy
  Dy  Dy0  1  0.174240  0.958277  0.936072  1
  Dy  Dy1  1  0.325645  0.541677  0.436031  1
  Dy  Dy2  1  0.825760  0.041723  0.063928  1
  Dy  Dy3  1  0.674355  0.458323  0.563969  1
  Dy  Dy4  1  0.825745  0.458285  0.063941  1
  Dy  Dy5  1  0.174255  0.541715  0.936059  1
  Y  Y6  1  0.841290  0.749967  0.791641  1
  Y  Y7  1  0.158710  0.250033  0.208359  1
  Y  Y8  1  0.341285  0.250080  0.708329  1
  Y  Y9  1  0.658715  0.749920  0.291671  1
  Y  Y10  1  0.374447  0.749931  0.692618  1
  Y  Y11  1  0.625553  0.250069  0.307382  1
  Y  Y12  1  0.874399  0.250044  0.807361  1
  Y  Y13  1  0.125601  0.749956  0.192639  1
  Y  Y14  1  0.943253  0.749767  0.504507  1
  Y  Y15  1  0.056747  0.250233  0.495493  1
  Y  Y16  1  0.443222  0.250031  0.995498  1
  Y  Y17  1  0.556778  0.749969  0.004502  1
  Y  Y18  1  0.674884  0.041837  0.564301  1
  Y  Y19  1  0.325116  0.958163  0.435699  1
  Bi  Bi20  1  0.568123  0.493465  0.827798  1
  Bi  Bi21  1  0.431877  0.506535  0.172202  1
  Bi  Bi22  1  0.068125  0.506551  0.672234  1
  Bi  Bi23  1  0.431905  0.993477  0.172212  1
  Bi  Bi24  1  0.931875  0.493449  0.327766  1
  Bi  Bi25  1  0.568095  0.006523  0.827788  1
  Bi  Bi26  1  0.931917  0.006500  0.327831  1
  Bi  Bi27  1  0.068083  0.993500  0.672169  1
  Os  Os28  1  0.575088  0.749095  0.510575  1
  Os  Os29  1  0.424912  0.250905  0.489425  1
  Os  Os30  1  0.074953  0.250002  0.989429  1
  Os  Os31  1  0.925047  0.749998  0.010571  1
