# generated using pymatgen
data_LaPrC2Se
_symmetry_space_group_name_H-M   'P 1'
_cell_length_a   7.45798846
_cell_length_b   7.45798816
_cell_length_c   7.13556000
_cell_angle_alpha   78.49799060
_cell_angle_beta   78.49799106
_cell_angle_gamma   33.27391441
_symmetry_Int_Tables_number   1
_chemical_formula_structural   LaPrC2Se
_chemical_formula_sum   'La2 Pr2 C4 Se2'
_cell_volume   212.98349691
_cell_formula_units_Z   2
loop_
 _symmetry_equiv_pos_site_id
 _symmetry_equiv_pos_as_xyz
  1  'x, y, z'
loop_
 _atom_site_type_symbol
 _atom_site_label
 _atom_site_symmetry_multiplicity
 _atom_site_fract_x
 _atom_site_fract_y
 _atom_site_fract_z
 _atom_site_occupancy
  La  La0  1  0.556050  0.163337  0.140221  1
  La  La1  1  0.163337  0.556050  0.640221  1
  Pr  Pr2  1  0.447252  0.836684  0.859223  1
  Pr  Pr3  1  0.836684  0.447252  0.359223  1
  C  C4  1  0.359203  0.095008  0.469656  1
  C  C5  1  0.900627  0.640003  0.031579  1
  C  C6  1  0.640003  0.900627  0.531579  1
  C  C7  1  0.095008  0.359203  0.969656  1
  Se  Se8  1  0.792119  0.209717  0.749323  1
  Se  Se9  1  0.209717  0.792119  0.249323  1
