# generated using pymatgen
data_Tb(Eu2Ir)2
_symmetry_space_group_name_H-M   'P 1'
_cell_length_a   6.75816036
_cell_length_b   7.51477629
_cell_length_c   8.89273656
_cell_angle_alpha   96.68908339
_cell_angle_beta   112.33256706
_cell_angle_gamma   90.00000214
_symmetry_Int_Tables_number   1
_chemical_formula_structural   Tb(Eu2Ir)2
_chemical_formula_sum   'Tb2 Eu8 Ir4'
_cell_volume   414.42678666
_cell_formula_units_Z   2
loop_
 _symmetry_equiv_pos_site_id
 _symmetry_equiv_pos_as_xyz
  1  'x, y, z'
loop_
 _atom_site_type_symbol
 _atom_site_label
 _atom_site_symmetry_multiplicity
 _atom_site_fract_x
 _atom_site_fract_y
 _atom_site_fract_z
 _atom_site_occupancy
  Tb  Tb0  1  0.436653  0.750000  0.000000  1
  Tb  Tb1  1  0.563347  0.250000  0.000000  1
  Eu  Eu2  1  0.977016  0.919910  0.176802  1
  Eu  Eu3  1  0.800214  0.580090  0.823198  1
  Eu  Eu4  1  0.022984  0.080090  0.823198  1
  Eu  Eu5  1  0.199786  0.419910  0.176802  1
  Eu  Eu6  1  0.641489  0.817538  0.433823  1
  Eu  Eu7  1  0.207666  0.682462  0.566177  1
  Eu  Eu8  1  0.358511  0.182462  0.566177  1
  Eu  Eu9  1  0.792334  0.317538  0.433823  1
  Ir  Ir10  1  0.804836  0.572094  0.206384  1
  Ir  Ir11  1  0.598452  0.927906  0.793616  1
  Ir  Ir12  1  0.195164  0.427906  0.793616  1
  Ir  Ir13  1  0.401548  0.072094  0.206384  1
