# generated using pymatgen
data_Tb8Tm2OsRu3
_symmetry_space_group_name_H-M   'P 1'
_cell_length_a   6.36613782
_cell_length_b   7.28573159
_cell_length_c   8.49296552
_cell_angle_alpha   96.63574808
_cell_angle_beta   112.08197321
_cell_angle_gamma   90.00104699
_symmetry_Int_Tables_number   1
_chemical_formula_structural   Tb8Tm2OsRu3
_chemical_formula_sum   'Tb8 Tm2 Os1 Ru3'
_cell_volume   362.17546976
_cell_formula_units_Z   1
loop_
 _symmetry_equiv_pos_site_id
 _symmetry_equiv_pos_as_xyz
  1  'x, y, z'
loop_
 _atom_site_type_symbol
 _atom_site_label
 _atom_site_symmetry_multiplicity
 _atom_site_fract_x
 _atom_site_fract_y
 _atom_site_fract_z
 _atom_site_occupancy
  Tb  Tb0  1  0.792856  0.083161  0.814548  1
  Tb  Tb1  1  0.975854  0.415813  0.183213  1
  Tb  Tb2  1  0.207221  0.915759  0.185209  1
  Tb  Tb3  1  0.023402  0.583986  0.815195  1
  Tb  Tb4  1  0.207625  0.185704  0.567856  1
  Tb  Tb5  1  0.639174  0.315232  0.434053  1
  Tb  Tb6  1  0.793501  0.814618  0.432496  1
  Tb  Tb7  1  0.359917  0.685412  0.566750  1
  Tm  Tm8  1  0.423602  0.249989  0.999245  1
  Tm  Tm9  1  0.576945  0.749999  0.999877  1
  Os  Os10  1  0.602765  0.425358  0.783312  1
  Ru  Ru11  1  0.821481  0.075010  0.218223  1
  Ru  Ru12  1  0.396678  0.575095  0.217740  1
  Ru  Ru13  1  0.178980  0.924866  0.782286  1
