# generated using pymatgen
data_Y3Hg3RhAu2
_symmetry_space_group_name_H-M   'P 1'
_cell_length_a   7.94391000
_cell_length_b   7.94390962
_cell_length_c   3.74497900
_cell_angle_alpha   90.00000000
_cell_angle_beta   90.00000000
_cell_angle_gamma   119.99999327
_symmetry_Int_Tables_number   1
_chemical_formula_structural   Y3Hg3RhAu2
_chemical_formula_sum   'Y3 Hg3 Rh1 Au2'
_cell_volume   204.66739284
_cell_formula_units_Z   1
loop_
 _symmetry_equiv_pos_site_id
 _symmetry_equiv_pos_as_xyz
  1  'x, y, z'
loop_
 _atom_site_type_symbol
 _atom_site_label
 _atom_site_symmetry_multiplicity
 _atom_site_fract_x
 _atom_site_fract_y
 _atom_site_fract_z
 _atom_site_occupancy
  Y  Y0  1  0.589896  0.976962  0.000000  1
  Y  Y1  1  0.023038  0.612934  0.000000  1
  Y  Y2  1  0.387066  0.410104  0.000000  1
  Hg  Hg3  1  0.276460  0.999076  0.500000  1
  Hg  Hg4  1  0.000924  0.277384  0.500000  1
  Hg  Hg5  1  0.722616  0.723540  0.500000  1
  Rh  Rh6  1  0.333333  0.666667  0.500000  1
  Au  Au7  1  0.666667  0.333333  0.500000  1
  Au  Au8  1  0.000000  0.000000  0.000000  1
