# generated using pymatgen
data_CaCe3As4
_symmetry_space_group_name_H-M   'P 1'
_cell_length_a   8.48952502
_cell_length_b   4.23877500
_cell_length_c   5.97692301
_cell_angle_alpha   90.00000000
_cell_angle_beta   90.00706702
_cell_angle_gamma   90.00000000
_symmetry_Int_Tables_number   1
_chemical_formula_structural   CaCe3As4
_chemical_formula_sum   'Ca1 Ce3 As4'
_cell_volume   215.08068703
_cell_formula_units_Z   1
loop_
 _symmetry_equiv_pos_site_id
 _symmetry_equiv_pos_as_xyz
  1  'x, y, z'
loop_
 _atom_site_type_symbol
 _atom_site_label
 _atom_site_symmetry_multiplicity
 _atom_site_fract_x
 _atom_site_fract_y
 _atom_site_fract_z
 _atom_site_occupancy
  Ca  Ca0  1  0.374900  0.249999  0.249882  1
  Ce  Ce1  1  0.875157  0.249999  0.250050  1
  Ce  Ce2  1  0.128377  0.750001  0.749974  1
  Ce  Ce3  1  0.621535  0.750001  0.750146  1
  As  As4  1  0.116022  0.750001  0.249923  1
  As  As5  1  0.634030  0.750001  0.250067  1
  As  As6  1  0.374939  0.249999  0.749911  1
  As  As7  1  0.875044  0.249999  0.750051  1
