# generated using pymatgen
data_Tm2ThCo3(Ni2B)4
_symmetry_space_group_name_H-M   'P 1'
_cell_length_a   4.95719000
_cell_length_b   4.95718959
_cell_length_c   10.03846300
_cell_angle_alpha   90.00000000
_cell_angle_beta   90.00000000
_cell_angle_gamma   120.00000272
_symmetry_Int_Tables_number   1
_chemical_formula_structural   Tm2ThCo3(Ni2B)4
_chemical_formula_sum   'Tm2 Th1 Co3 Ni8 B4'
_cell_volume   213.63329379
_cell_formula_units_Z   1
loop_
 _symmetry_equiv_pos_site_id
 _symmetry_equiv_pos_as_xyz
  1  'x, y, z'
loop_
 _atom_site_type_symbol
 _atom_site_label
 _atom_site_symmetry_multiplicity
 _atom_site_fract_x
 _atom_site_fract_y
 _atom_site_fract_z
 _atom_site_occupancy
  Tm  Tm0  1  0.000000  0.000000  0.653021  1
  Tm  Tm1  1  0.000000  0.000000  0.346979  1
  Th  Th2  1  0.000000  0.000000  0.000000  1
  Co  Co3  1  0.500000  0.500000  0.500000  1
  Co  Co4  1  0.500000  0.000000  0.500000  1
  Co  Co5  1  0.000000  0.500000  0.500000  1
  Ni  Ni6  1  0.666667  0.333333  0.000000  1
  Ni  Ni7  1  0.333333  0.666667  0.000000  1
  Ni  Ni8  1  0.500000  0.500000  0.793695  1
  Ni  Ni9  1  0.500000  0.000000  0.793695  1
  Ni  Ni10  1  0.000000  0.500000  0.793695  1
  Ni  Ni11  1  0.500000  0.500000  0.206305  1
  Ni  Ni12  1  0.500000  0.000000  0.206305  1
  Ni  Ni13  1  0.000000  0.500000  0.206305  1
  B  B14  1  0.666667  0.333333  0.647494  1
  B  B15  1  0.333333  0.666667  0.647494  1
  B  B16  1  0.333333  0.666667  0.352506  1
  B  B17  1  0.666667  0.333333  0.352506  1
