# generated using pymatgen
data_TaTiGaC
_symmetry_space_group_name_H-M   'P 1'
_cell_length_a   3.09211000
_cell_length_b   3.09210980
_cell_length_c   13.53467600
_cell_angle_alpha   90.00000000
_cell_angle_beta   90.00000000
_cell_angle_gamma   120.00002356
_symmetry_Int_Tables_number   1
_chemical_formula_structural   TaTiGaC
_chemical_formula_sum   'Ta2 Ti2 Ga2 C2'
_cell_volume   112.06970650
_cell_formula_units_Z   2
loop_
 _symmetry_equiv_pos_site_id
 _symmetry_equiv_pos_as_xyz
  1  'x, y, z'
loop_
 _atom_site_type_symbol
 _atom_site_label
 _atom_site_symmetry_multiplicity
 _atom_site_fract_x
 _atom_site_fract_y
 _atom_site_fract_z
 _atom_site_occupancy
  Ta  Ta0  1  0.333333  0.666667  0.089112  1
  Ta  Ta1  1  0.666667  0.333333  0.589112  1
  Ti  Ti2  1  0.666667  0.333333  0.911705  1
  Ti  Ti3  1  0.333333  0.666667  0.411705  1
  Ga  Ga4  1  0.333333  0.666667  0.752809  1
  Ga  Ga5  1  0.666667  0.333333  0.252809  1
  C  C6  1  0.000000  0.000000  0.496374  1
  C  C7  1  0.000000  0.000000  0.996374  1
