# generated using pymatgen
data_TmFeCo3MoP3
_symmetry_space_group_name_H-M   'P 1'
_cell_length_a   3.69502200
_cell_length_b   10.34456000
_cell_length_c   11.85021600
_cell_angle_alpha   90.00000000
_cell_angle_beta   90.00000000
_cell_angle_gamma   90.00000000
_symmetry_Int_Tables_number   1
_chemical_formula_structural   TmFeCo3MoP3
_chemical_formula_sum   'Tm4 Fe4 Co12 Mo4 P12'
_cell_volume   452.95527110
_cell_formula_units_Z   4
loop_
 _symmetry_equiv_pos_site_id
 _symmetry_equiv_pos_as_xyz
  1  'x, y, z'
loop_
 _atom_site_type_symbol
 _atom_site_label
 _atom_site_symmetry_multiplicity
 _atom_site_fract_x
 _atom_site_fract_y
 _atom_site_fract_z
 _atom_site_occupancy
  Tm  Tm0  1  0.250000  0.581467  0.706435  1
  Tm  Tm1  1  0.250000  0.918533  0.206435  1
  Tm  Tm2  1  0.750000  0.418533  0.293565  1
  Tm  Tm3  1  0.750000  0.081467  0.793565  1
  Fe  Fe4  1  0.250000  0.463028  0.932823  1
  Fe  Fe5  1  0.250000  0.036972  0.432823  1
  Fe  Fe6  1  0.750000  0.536972  0.067177  1
  Fe  Fe7  1  0.750000  0.963028  0.567177  1
  Co  Co8  1  0.250000  0.407379  0.488081  1
  Co  Co9  1  0.250000  0.092621  0.988081  1
  Co  Co10  1  0.750000  0.592621  0.511919  1
  Co  Co11  1  0.750000  0.907379  0.011919  1
  Co  Co12  1  0.250000  0.223720  0.176749  1
  Co  Co13  1  0.250000  0.276280  0.676749  1
  Co  Co14  1  0.750000  0.776280  0.823251  1
  Co  Co15  1  0.750000  0.723720  0.323251  1
  Co  Co16  1  0.250000  0.883928  0.702432  1
  Co  Co17  1  0.250000  0.616072  0.202432  1
  Co  Co18  1  0.750000  0.116072  0.297568  1
  Co  Co19  1  0.750000  0.383928  0.797568  1
  Mo  Mo20  1  0.250000  0.706730  0.989668  1
  Mo  Mo21  1  0.250000  0.793270  0.489668  1
  Mo  Mo22  1  0.750000  0.293270  0.010332  1
  Mo  Mo23  1  0.750000  0.206730  0.510332  1
  P  P24  1  0.250000  0.424374  0.114539  1
  P  P25  1  0.250000  0.075626  0.614539  1
  P  P26  1  0.750000  0.575626  0.885461  1
  P  P27  1  0.750000  0.924374  0.385461  1
  P  P28  1  0.250000  0.267259  0.863751  1
  P  P29  1  0.250000  0.232741  0.363751  1
  P  P30  1  0.750000  0.732741  0.136249  1
  P  P31  1  0.750000  0.767259  0.636249  1
  P  P32  1  0.250000  0.595461  0.390419  1
  P  P33  1  0.250000  0.904539  0.890419  1
  P  P34  1  0.750000  0.404539  0.609581  1
  P  P35  1  0.750000  0.095461  0.109581  1
