# generated using pymatgen
data_Lu3Np(BRu)16
_symmetry_space_group_name_H-M   'P 1'
_cell_length_a   9.18178638
_cell_length_b   7.44829420
_cell_length_c   7.44829530
_cell_angle_alpha   90.18104689
_cell_angle_beta   113.84852109
_cell_angle_gamma   113.84852008
_symmetry_Int_Tables_number   1
_chemical_formula_structural   Lu3Np(BRu)16
_chemical_formula_sum   'Lu3 Np1 B16 Ru16'
_cell_volume   417.56874947
_cell_formula_units_Z   1
loop_
 _symmetry_equiv_pos_site_id
 _symmetry_equiv_pos_as_xyz
  1  'x, y, z'
loop_
 _atom_site_type_symbol
 _atom_site_label
 _atom_site_symmetry_multiplicity
 _atom_site_fract_x
 _atom_site_fract_y
 _atom_site_fract_z
 _atom_site_occupancy
  Lu  Lu0  1  0.250000  0.625000  0.375000  1
  Lu  Lu1  1  0.750000  0.375000  0.625000  1
  Lu  Lu2  1  0.250000  0.125000  0.875000  1
  Np  Np3  1  0.750000  0.875000  0.125000  1
  B  B4  1  0.917952  0.291184  0.072003  1
  B  B5  1  0.410282  0.566457  0.124449  1
  B  B6  1  0.089717  0.214167  0.156174  1
  B  B7  1  0.584914  0.152098  0.212242  1
  B  B8  1  0.413560  0.067262  0.290232  1
  B  B9  1  0.917952  0.626768  0.345948  1
  B  B10  1  0.582048  0.654052  0.373232  1
  B  B11  1  0.089717  0.875549  0.433543  1
  B  B12  1  0.915086  0.127330  0.567184  1
  B  B13  1  0.413560  0.346299  0.623328  1
  B  B14  1  0.086439  0.376670  0.653700  1
  B  B15  1  0.582048  0.927997  0.708815  1
  B  B16  1  0.410282  0.843826  0.785832  1
  B  B17  1  0.915086  0.787756  0.847902  1
  B  B18  1  0.584914  0.432816  0.872670  1
  B  B19  1  0.086439  0.709768  0.932738  1
  Ru  Ru20  1  0.869803  0.550448  0.034068  1
  Ru  Ru21  1  0.375472  0.836349  0.051561  1
  Ru  Ru22  1  0.124529  0.948439  0.163652  1
  Ru  Ru23  1  0.628761  0.472957  0.177325  1
  Ru  Ru24  1  0.375294  0.335987  0.322829  1
  Ru  Ru25  1  0.869803  0.319355  0.335735  1
  Ru  Ru26  1  0.630197  0.965932  0.449552  1
  Ru  Ru27  1  0.124529  0.176089  0.460878  1
  Ru  Ru28  1  0.871239  0.822675  0.527043  1
  Ru  Ru29  1  0.375294  0.039308  0.552464  1
  Ru  Ru30  1  0.124707  0.677171  0.664014  1
  Ru  Ru31  1  0.630197  0.664265  0.680645  1
  Ru  Ru32  1  0.375472  0.539123  0.823911  1
  Ru  Ru33  1  0.871239  0.048564  0.844196  1
  Ru  Ru34  1  0.628761  0.155804  0.951436  1
  Ru  Ru35  1  0.124707  0.447536  0.960693  1
