# generated using pymatgen
data_Ti3Fe4P4Ir
_symmetry_space_group_name_H-M   'P 1'
_cell_length_a   3.63427800
_cell_length_b   6.02716966
_cell_length_c   6.73748669
_cell_angle_alpha   89.53917459
_cell_angle_beta   90.00000000
_cell_angle_gamma   90.00000000
_symmetry_Int_Tables_number   1
_chemical_formula_structural   Ti3Fe4P4Ir
_chemical_formula_sum   'Ti3 Fe4 P4 Ir1'
_cell_volume   147.57589825
_cell_formula_units_Z   1
loop_
 _symmetry_equiv_pos_site_id
 _symmetry_equiv_pos_as_xyz
  1  'x, y, z'
loop_
 _atom_site_type_symbol
 _atom_site_label
 _atom_site_symmetry_multiplicity
 _atom_site_fract_x
 _atom_site_fract_y
 _atom_site_fract_z
 _atom_site_occupancy
  Ti  Ti0  1  0.250000  0.516859  0.678011  1
  Ti  Ti1  1  0.750000  0.977600  0.172928  1
  Ti  Ti2  1  0.750000  0.480622  0.321404  1
  Fe  Fe3  1  0.250000  0.140378  0.437109  1
  Fe  Fe4  1  0.250000  0.646231  0.058148  1
  Fe  Fe5  1  0.750000  0.859130  0.566394  1
  Fe  Fe6  1  0.750000  0.351183  0.937565  1
  P  P7  1  0.250000  0.772366  0.379158  1
  P  P8  1  0.250000  0.277467  0.120669  1
  P  P9  1  0.750000  0.224367  0.619299  1
  P  P10  1  0.750000  0.719623  0.876201  1
  Ir  Ir11  1  0.250000  0.034174  0.833113  1
