# generated using pymatgen
data_Ho7Tm13(BiPb7)2
_symmetry_space_group_name_H-M   'P 1'
_cell_length_a   8.18977614
_cell_length_b   8.21858586
_cell_length_c   15.43172300
_cell_angle_alpha   90.21772012
_cell_angle_beta   90.09016465
_cell_angle_gamma   90.04460252
_symmetry_Int_Tables_number   1
_chemical_formula_structural   Ho7Tm13(BiPb7)2
_chemical_formula_sum   'Ho7 Tm13 Bi2 Pb14'
_cell_volume   1038.67514672
_cell_formula_units_Z   1
loop_
 _symmetry_equiv_pos_site_id
 _symmetry_equiv_pos_as_xyz
  1  'x, y, z'
loop_
 _atom_site_type_symbol
 _atom_site_label
 _atom_site_symmetry_multiplicity
 _atom_site_fract_x
 _atom_site_fract_y
 _atom_site_fract_z
 _atom_site_occupancy
  Ho  Ho0  1  0.050179  0.167581  0.604428  1
  Ho  Ho1  1  0.449503  0.674805  0.396351  1
  Ho  Ho2  1  0.948428  0.825376  0.104078  1
  Ho  Ho3  1  0.454487  0.667073  0.102688  1
  Ho  Ho4  1  0.955187  0.832418  0.397617  1
  Ho  Ho5  1  0.540849  0.323588  0.603000  1
  Ho  Ho6  1  0.041767  0.176272  0.896757  1
  Tm  Tm7  1  0.382595  0.839869  0.878197  1
  Tm  Tm8  1  0.882109  0.660161  0.621936  1
  Tm  Tm9  1  0.619395  0.154847  0.377968  1
  Tm  Tm10  1  0.118967  0.344912  0.121932  1
  Tm  Tm11  1  0.621848  0.158303  0.120945  1
  Tm  Tm12  1  0.122732  0.341754  0.378698  1
  Tm  Tm13  1  0.379720  0.842829  0.621761  1
  Tm  Tm14  1  0.880527  0.657517  0.878487  1
  Tm  Tm15  1  0.552407  0.333792  0.894685  1
  Tm  Tm16  1  0.212201  0.502584  0.749701  1
  Tm  Tm17  1  0.711923  0.997724  0.750469  1
  Tm  Tm18  1  0.787689  0.497518  0.248035  1
  Tm  Tm19  1  0.287637  0.002263  0.251871  1
  Bi  Bi20  1  0.273657  0.025414  0.045329  1
  Bi  Bi21  1  0.774746  0.473229  0.454914  1
  Pb  Pb22  1  0.723086  0.971314  0.543907  1
  Pb  Pb23  1  0.224947  0.526942  0.955949  1
  Pb  Pb24  1  0.722509  0.970911  0.956246  1
  Pb  Pb25  1  0.222381  0.530226  0.543659  1
  Pb  Pb26  1  0.279888  0.031352  0.456772  1
  Pb  Pb27  1  0.779318  0.468808  0.043015  1
  Pb  Pb28  1  0.574882  0.629618  0.748277  1
  Pb  Pb29  1  0.074686  0.870556  0.751797  1
  Pb  Pb30  1  0.426624  0.369550  0.249916  1
  Pb  Pb31  1  0.926521  0.130395  0.250008  1
  Pb  Pb32  1  0.356578  0.154139  0.752144  1
  Pb  Pb33  1  0.856197  0.346530  0.748228  1
  Pb  Pb34  1  0.641909  0.845599  0.249544  1
  Pb  Pb35  1  0.141921  0.654234  0.250691  1
