# generated using pymatgen
data_Ho3Tm3(LuIn2)4
_symmetry_space_group_name_H-M   'P 1'
_cell_length_a   9.15268949
_cell_length_b   9.16174570
_cell_length_c   6.60472800
_cell_angle_alpha   90.00000000
_cell_angle_beta   90.00000000
_cell_angle_gamma   119.90199384
_symmetry_Int_Tables_number   1
_chemical_formula_structural   Ho3Tm3(LuIn2)4
_chemical_formula_sum   'Ho3 Tm3 Lu4 In8'
_cell_volume   480.10981271
_cell_formula_units_Z   1
loop_
 _symmetry_equiv_pos_site_id
 _symmetry_equiv_pos_as_xyz
  1  'x, y, z'
loop_
 _atom_site_type_symbol
 _atom_site_label
 _atom_site_symmetry_multiplicity
 _atom_site_fract_x
 _atom_site_fract_y
 _atom_site_fract_z
 _atom_site_occupancy
  Ho  Ho0  1  0.290729  0.000291  0.750000  1
  Ho  Ho1  1  0.709475  0.000096  0.250000  1
  Ho  Ho2  1  0.000203  0.290264  0.750000  1
  Tm  Tm3  1  0.999827  0.709244  0.250000  1
  Tm  Tm4  1  0.709758  0.709849  0.750000  1
  Tm  Tm5  1  0.290101  0.290382  0.250000  1
  Lu  Lu6  1  0.333345  0.666243  0.499873  1
  Lu  Lu7  1  0.666685  0.334108  0.499887  1
  Lu  Lu8  1  0.666685  0.334108  0.000113  1
  Lu  Lu9  1  0.333345  0.666243  0.000127  1
  In  In10  1  0.000025  0.999558  0.499504  1
  In  In11  1  0.000025  0.999558  0.000496  1
  In  In12  1  0.628538  0.999078  0.750000  1
  In  In13  1  0.370410  0.999980  0.250000  1
  In  In14  1  0.999123  0.628356  0.750000  1
  In  In15  1  0.000822  0.372534  0.250000  1
  In  In16  1  0.372743  0.372732  0.750000  1
  In  In17  1  0.628162  0.627377  0.250000  1
