# generated using pymatgen
data_La2Cu9Ni
_symmetry_space_group_name_H-M   'P 1'
_cell_length_a   4.10745000
_cell_length_b   5.13872200
_cell_length_c   8.88175600
_cell_angle_alpha   90.00000000
_cell_angle_beta   90.00000000
_cell_angle_gamma   90.00000000
_symmetry_Int_Tables_number   1
_chemical_formula_structural   La2Cu9Ni
_chemical_formula_sum   'La2 Cu9 Ni1'
_cell_volume   187.46761184
_cell_formula_units_Z   1
loop_
 _symmetry_equiv_pos_site_id
 _symmetry_equiv_pos_as_xyz
  1  'x, y, z'
loop_
 _atom_site_type_symbol
 _atom_site_label
 _atom_site_symmetry_multiplicity
 _atom_site_fract_x
 _atom_site_fract_y
 _atom_site_fract_z
 _atom_site_occupancy
  La  La0  1  0.000000  0.000000  0.004851  1
  La  La1  1  0.000000  0.500000  0.494642  1
  Cu  Cu2  1  0.000000  0.000000  0.334403  1
  Cu  Cu3  1  0.000000  0.500000  0.832776  1
  Cu  Cu4  1  0.000000  0.000000  0.667410  1
  Cu  Cu5  1  0.500000  0.500000  0.000861  1
  Cu  Cu6  1  0.500000  0.000000  0.500346  1
  Cu  Cu7  1  0.500000  0.252227  0.250549  1
  Cu  Cu8  1  0.500000  0.749369  0.748931  1
  Cu  Cu9  1  0.500000  0.747773  0.250549  1
  Cu  Cu10  1  0.500000  0.250631  0.748931  1
  Ni  Ni11  1  0.000000  0.500000  0.165752  1
