# generated using pymatgen
data_NaYbH6Rh
_symmetry_space_group_name_H-M   'P 1'
_cell_length_a   5.02813729
_cell_length_b   5.02813809
_cell_length_c   5.02813800
_cell_angle_alpha   60.00001375
_cell_angle_beta   60.00000849
_cell_angle_gamma   60.00000332
_symmetry_Int_Tables_number   1
_chemical_formula_structural   NaYbH6Rh
_chemical_formula_sum   'Na1 Yb1 H6 Rh1'
_cell_volume   89.88901022
_cell_formula_units_Z   1
loop_
 _symmetry_equiv_pos_site_id
 _symmetry_equiv_pos_as_xyz
  1  'x, y, z'
loop_
 _atom_site_type_symbol
 _atom_site_label
 _atom_site_symmetry_multiplicity
 _atom_site_fract_x
 _atom_site_fract_y
 _atom_site_fract_z
 _atom_site_occupancy
  Na  Na0  1  0.250000  0.250000  0.250000  1
  Yb  Yb1  1  0.750000  0.750000  0.750000  1
  H  H2  1  0.765387  0.234613  0.234613  1
  H  H3  1  0.234613  0.765387  0.234613  1
  H  H4  1  0.765387  0.765387  0.234613  1
  H  H5  1  0.234613  0.765387  0.765387  1
  H  H6  1  0.765387  0.234613  0.765387  1
  H  H7  1  0.234613  0.234613  0.765387  1
  Rh  Rh8  1  0.000000  0.000000  0.000000  1
