# generated using pymatgen
data_Cs3Na2SnBi3
_symmetry_space_group_name_H-M   'P 1'
_cell_length_a   15.02902126
_cell_length_b   15.02902081
_cell_length_c   15.02902079
_cell_angle_alpha   150.96350232
_cell_angle_beta   105.58759833
_cell_angle_gamma   81.77724435
_symmetry_Int_Tables_number   1
_chemical_formula_structural   Cs3Na2SnBi3
_chemical_formula_sum   'Cs12 Na8 Sn4 Bi12'
_cell_volume   1556.06571543
_cell_formula_units_Z   4
loop_
 _symmetry_equiv_pos_site_id
 _symmetry_equiv_pos_as_xyz
  1  'x, y, z'
loop_
 _atom_site_type_symbol
 _atom_site_label
 _atom_site_symmetry_multiplicity
 _atom_site_fract_x
 _atom_site_fract_y
 _atom_site_fract_z
 _atom_site_occupancy
  Cs  Cs0  1  0.587394  0.947645  0.203263  1
  Cs  Cs1  1  0.075922  0.750000  0.825922  1
  Cs  Cs2  1  0.912606  0.115869  0.360250  1
  Cs  Cs3  1  0.412606  0.052355  0.796737  1
  Cs  Cs4  1  0.755619  0.615869  0.703263  1
  Cs  Cs5  1  0.244381  0.384131  0.296737  1
  Cs  Cs6  1  0.087394  0.884131  0.639750  1
  Cs  Cs7  1  0.424078  0.250000  0.674078  1
  Cs  Cs8  1  0.744381  0.447645  0.860250  1
  Cs  Cs9  1  0.255619  0.552355  0.139750  1
  Cs  Cs10  1  0.924078  0.250000  0.174078  1
  Cs  Cs11  1  0.575922  0.750000  0.325922  1
  Na  Na12  1  0.002234  0.252234  0.750000  1
  Na  Na13  1  0.662299  0.912299  0.750000  1
  Na  Na14  1  0.997766  0.747766  0.250000  1
  Na  Na15  1  0.497766  0.247766  0.250000  1
  Na  Na16  1  0.502234  0.752234  0.750000  1
  Na  Na17  1  0.162299  0.412299  0.750000  1
  Na  Na18  1  0.337701  0.087701  0.250000  1
  Na  Na19  1  0.837701  0.587701  0.250000  1
  Sn  Sn20  1  0.667547  0.417547  0.250000  1
  Sn  Sn21  1  0.167547  0.917547  0.250000  1
  Sn  Sn22  1  0.832453  0.082453  0.750000  1
  Sn  Sn23  1  0.332453  0.582453  0.750000  1
  Bi  Bi24  1  0.342899  0.750000  0.092899  1
  Bi  Bi25  1  0.488783  0.551235  0.358584  1
  Bi  Bi26  1  0.988783  0.630201  0.937549  1
  Bi  Bi27  1  0.511217  0.448765  0.641416  1
  Bi  Bi28  1  0.307349  0.869799  0.858584  1
  Bi  Bi29  1  0.692651  0.130201  0.141416  1
  Bi  Bi30  1  0.011217  0.369799  0.062451  1
  Bi  Bi31  1  0.657101  0.250000  0.907101  1
  Bi  Bi32  1  0.807349  0.948765  0.437549  1
  Bi  Bi33  1  0.157101  0.250000  0.407101  1
  Bi  Bi34  1  0.192651  0.051235  0.562451  1
  Bi  Bi35  1  0.842899  0.750000  0.592899  1
