# generated using pymatgen
data_Tm5Co19(As3P)3
_symmetry_space_group_name_H-M   'P 1'
_cell_length_a   12.29917700
_cell_length_b   12.29917785
_cell_length_c   3.74989800
_cell_angle_alpha   90.00000000
_cell_angle_beta   90.00000000
_cell_angle_gamma   119.99999502
_symmetry_Int_Tables_number   1
_chemical_formula_structural   Tm5Co19(As3P)3
_chemical_formula_sum   'Tm5 Co19 As9 P3'
_cell_volume   491.24963589
_cell_formula_units_Z   1
loop_
 _symmetry_equiv_pos_site_id
 _symmetry_equiv_pos_as_xyz
  1  'x, y, z'
loop_
 _atom_site_type_symbol
 _atom_site_label
 _atom_site_symmetry_multiplicity
 _atom_site_fract_x
 _atom_site_fract_y
 _atom_site_fract_z
 _atom_site_occupancy
  Tm  Tm0  1  0.333333  0.666667  0.500000  1
  Tm  Tm1  1  0.666667  0.333333  0.500000  1
  Tm  Tm2  1  0.179628  0.000000  0.000000  1
  Tm  Tm3  1  0.000000  0.179628  0.000000  1
  Tm  Tm4  1  0.820372  0.820372  0.000000  1
  Co  Co5  1  0.197820  0.368780  0.500000  1
  Co  Co6  1  0.631220  0.829040  0.500000  1
  Co  Co7  1  0.170960  0.802180  0.500000  1
  Co  Co8  1  0.829040  0.631220  0.500000  1
  Co  Co9  1  0.802180  0.170960  0.500000  1
  Co  Co10  1  0.368780  0.197820  0.500000  1
  Co  Co11  1  0.553618  0.000000  0.500000  1
  Co  Co12  1  0.000000  0.553618  0.500000  1
  Co  Co13  1  0.446382  0.446382  0.500000  1
  Co  Co14  1  0.126320  0.478560  0.000000  1
  Co  Co15  1  0.521440  0.647760  0.000000  1
  Co  Co16  1  0.352240  0.873680  0.000000  1
  Co  Co17  1  0.647760  0.521440  0.000000  1
  Co  Co18  1  0.873680  0.352240  0.000000  1
  Co  Co19  1  0.478560  0.126320  0.000000  1
  Co  Co20  1  0.725654  0.000000  0.000000  1
  Co  Co21  1  0.000000  0.725654  0.000000  1
  Co  Co22  1  0.274346  0.274346  0.000000  1
  Co  Co23  1  0.000000  0.000000  0.500000  1
  As  As24  1  0.361571  0.000000  0.500000  1
  As  As25  1  0.000000  0.361571  0.500000  1
  As  As26  1  0.638429  0.638429  0.500000  1
  As  As27  1  0.318864  0.480558  0.000000  1
  As  As28  1  0.519442  0.838306  0.000000  1
  As  As29  1  0.161694  0.681136  0.000000  1
  As  As30  1  0.838306  0.519442  0.000000  1
  As  As31  1  0.681136  0.161694  0.000000  1
  As  As32  1  0.480558  0.318864  0.000000  1
  P  P33  1  0.823123  0.000000  0.500000  1
  P  P34  1  0.000000  0.823123  0.500000  1
  P  P35  1  0.176877  0.176877  0.500000  1
