# generated using pymatgen
data_DyTm11TlZnCo4
_symmetry_space_group_name_H-M   'P 1'
_cell_length_a   8.20631891
_cell_length_b   8.22173629
_cell_length_c   8.22173686
_cell_angle_alpha   106.48445979
_cell_angle_beta   109.94760896
_cell_angle_gamma   112.11270451
_symmetry_Int_Tables_number   1
_chemical_formula_structural   DyTm11TlZnCo4
_chemical_formula_sum   'Dy1 Tm11 Tl1 Zn1 Co4'
_cell_volume   425.55235415
_cell_formula_units_Z   1
loop_
 _symmetry_equiv_pos_site_id
 _symmetry_equiv_pos_as_xyz
  1  'x, y, z'
loop_
 _atom_site_type_symbol
 _atom_site_label
 _atom_site_symmetry_multiplicity
 _atom_site_fract_x
 _atom_site_fract_y
 _atom_site_fract_z
 _atom_site_occupancy
  Dy  Dy0  1  0.602008  0.782037  0.819971  1
  Tm  Tm1  1  0.301182  0.266190  0.568296  1
  Tm  Tm2  1  0.697885  0.732735  0.429227  1
  Tm  Tm3  1  0.301182  0.732883  0.034992  1
  Tm  Tm4  1  0.697885  0.268660  0.965150  1
  Tm  Tm5  1  0.185817  0.511239  0.323671  1
  Tm  Tm6  1  0.185817  0.862145  0.674578  1
  Tm  Tm7  1  0.813681  0.488200  0.674940  1
  Tm  Tm8  1  0.813681  0.138742  0.325481  1
  Tm  Tm9  1  0.399249  0.218901  0.180348  1
  Tm  Tm10  1  0.038487  0.219251  0.819238  1
  Tm  Tm11  1  0.962277  0.780834  0.181442  1
  Tl  Tl12  1  0.499662  0.999473  0.500189  1
  Zn  Zn13  1  0.498288  0.498583  0.999705  1
  Co  Co14  1  0.158513  0.498808  0.659704  1
  Co  Co15  1  0.839451  0.499401  0.340049  1
  Co  Co16  1  0.002468  0.116344  0.116893  1
  Co  Co17  1  0.002468  0.885574  0.886124  1
