# generated using pymatgen
data_TbEr5OsRh
_symmetry_space_group_name_H-M   'P 1'
_cell_length_a   6.35769900
_cell_length_b   7.28071000
_cell_length_c   9.02953200
_cell_angle_alpha   90.00000000
_cell_angle_beta   90.00000000
_cell_angle_gamma   90.00000000
_symmetry_Int_Tables_number   1
_chemical_formula_structural   TbEr5OsRh
_chemical_formula_sum   'Tb2 Er10 Os2 Rh2'
_cell_volume   417.96405801
_cell_formula_units_Z   2
loop_
 _symmetry_equiv_pos_site_id
 _symmetry_equiv_pos_as_xyz
  1  'x, y, z'
loop_
 _atom_site_type_symbol
 _atom_site_label
 _atom_site_symmetry_multiplicity
 _atom_site_fract_x
 _atom_site_fract_y
 _atom_site_fract_z
 _atom_site_occupancy
  Tb  Tb0  1  0.871206  0.538036  0.250000  1
  Tb  Tb1  1  0.628794  0.038036  0.250000  1
  Er  Er2  1  0.333960  0.675658  0.058808  1
  Er  Er3  1  0.166040  0.175658  0.441192  1
  Er  Er4  1  0.673924  0.322898  0.567060  1
  Er  Er5  1  0.826076  0.822898  0.932940  1
  Er  Er6  1  0.673924  0.322898  0.932940  1
  Er  Er7  1  0.826076  0.822898  0.567060  1
  Er  Er8  1  0.333960  0.675658  0.441192  1
  Er  Er9  1  0.166040  0.175658  0.058808  1
  Er  Er10  1  0.127039  0.463792  0.750000  1
  Er  Er11  1  0.372961  0.963792  0.750000  1
  Os  Os12  1  0.964747  0.115084  0.750000  1
  Os  Os13  1  0.535253  0.615084  0.750000  1
  Rh  Rh14  1  0.046671  0.885975  0.250000  1
  Rh  Rh15  1  0.453329  0.385975  0.250000  1
