# generated using pymatgen
data_CeNd7CdRh6
_symmetry_space_group_name_H-M   'P 1'
_cell_length_a   7.63893803
_cell_length_b   7.63893783
_cell_length_c   7.63893900
_cell_angle_alpha   69.45468164
_cell_angle_beta   69.45469020
_cell_angle_gamma   69.45468655
_symmetry_Int_Tables_number   1
_chemical_formula_structural   CeNd7CdRh6
_chemical_formula_sum   'Ce1 Nd7 Cd1 Rh6'
_cell_volume   377.43744157
_cell_formula_units_Z   1
loop_
 _symmetry_equiv_pos_site_id
 _symmetry_equiv_pos_as_xyz
  1  'x, y, z'
loop_
 _atom_site_type_symbol
 _atom_site_label
 _atom_site_symmetry_multiplicity
 _atom_site_fract_x
 _atom_site_fract_y
 _atom_site_fract_z
 _atom_site_occupancy
  Ce  Ce0  1  0.810776  0.810776  0.810776  1
  Nd  Nd1  1  0.189287  0.189287  0.189287  1
  Nd  Nd2  1  0.148445  0.382051  0.678774  1
  Nd  Nd3  1  0.678774  0.148445  0.382051  1
  Nd  Nd4  1  0.382051  0.678774  0.148445  1
  Nd  Nd5  1  0.853013  0.612958  0.325547  1
  Nd  Nd6  1  0.325547  0.853013  0.612958  1
  Nd  Nd7  1  0.612958  0.325547  0.853013  1
  Cd  Cd8  1  0.999524  0.999524  0.999524  1
  Rh  Rh9  1  0.948375  0.170360  0.582413  1
  Rh  Rh10  1  0.582413  0.948375  0.170360  1
  Rh  Rh11  1  0.170360  0.582413  0.948375  1
  Rh  Rh12  1  0.042453  0.810517  0.445507  1
  Rh  Rh13  1  0.445507  0.042453  0.810517  1
  Rh  Rh14  1  0.810517  0.445507  0.042453  1
