# generated using pymatgen
data_In2H8BrN2Cl7
_symmetry_space_group_name_H-M   'P 1'
_cell_length_a   9.30230820
_cell_length_b   9.19529267
_cell_length_c   9.25106737
_cell_angle_alpha   132.89366771
_cell_angle_beta   133.21384746
_cell_angle_gamma   68.21641125
_symmetry_Int_Tables_number   1
_chemical_formula_structural   In2H8BrN2Cl7
_chemical_formula_sum   'In2 H8 Br1 N2 Cl7'
_cell_volume   415.77499629
_cell_formula_units_Z   1
loop_
 _symmetry_equiv_pos_site_id
 _symmetry_equiv_pos_as_xyz
  1  'x, y, z'
loop_
 _atom_site_type_symbol
 _atom_site_label
 _atom_site_symmetry_multiplicity
 _atom_site_fract_x
 _atom_site_fract_y
 _atom_site_fract_z
 _atom_site_occupancy
  In  In0  1  0.376708  0.125615  0.251424  1
  In  In1  1  0.634663  0.880912  0.760041  1
  H  H2  1  0.797874  0.690508  0.162828  1
  H  H3  1  0.019443  0.642603  0.340893  1
  H  H4  1  0.186289  0.523018  0.878422  1
  H  H5  1  0.140273  0.300888  0.608789  1
  H  H6  1  0.196795  0.307043  0.830597  1
  H  H7  1  0.974043  0.355819  0.655612  1
  H  H8  1  0.806389  0.475169  0.116084  1
  H  H9  1  0.850410  0.698382  0.383750  1
  Br  Br10  1  0.301884  0.638376  0.363848  1
  N  N11  1  0.868415  0.626632  0.250768  1
  N  N12  1  0.124310  0.371723  0.743289  1
  Cl  Cl13  1  0.573486  0.201084  0.847283  1
  Cl  Cl14  1  0.864939  0.735451  0.673195  1
  Cl  Cl15  1  0.230555  0.066695  0.874387  1
  Cl  Cl16  1  0.695074  0.350692  0.624768  1
  Cl  Cl17  1  0.778119  0.935893  0.133794  1
  Cl  Cl18  1  0.146359  0.268997  0.338234  1
  Cl  Cl19  1  0.433982  0.804504  0.162004  1
