# generated using pymatgen
data_Ta5Ga2P
_symmetry_space_group_name_H-M   'P 1'
_cell_length_a   6.62991700
_cell_length_b   7.60415392
_cell_length_c   6.62476400
_cell_angle_alpha   115.82358401
_cell_angle_beta   90.00000000
_cell_angle_gamma   115.84514890
_symmetry_Int_Tables_number   1
_chemical_formula_structural   Ta5Ga2P
_chemical_formula_sum   'Ta10 Ga4 P2'
_cell_volume   263.02546065
_cell_formula_units_Z   2
loop_
 _symmetry_equiv_pos_site_id
 _symmetry_equiv_pos_as_xyz
  1  'x, y, z'
loop_
 _atom_site_type_symbol
 _atom_site_label
 _atom_site_symmetry_multiplicity
 _atom_site_fract_x
 _atom_site_fract_y
 _atom_site_fract_z
 _atom_site_occupancy
  Ta  Ta0  1  0.990973  0.000000  0.997562  1
  Ta  Ta1  1  0.509027  0.000000  0.497562  1
  Ta  Ta2  1  0.519444  0.703401  0.690182  1
  Ta  Ta3  1  0.191655  0.693115  0.008530  1
  Ta  Ta4  1  0.683956  0.703401  0.190182  1
  Ta  Ta5  1  0.001459  0.693115  0.508530  1
  Ta  Ta6  1  0.498541  0.306885  0.315416  1
  Ta  Ta7  1  0.816044  0.296599  0.986782  1
  Ta  Ta8  1  0.308345  0.306885  0.815416  1
  Ta  Ta9  1  0.980556  0.296599  0.486782  1
  Ga  Ga10  1  0.750000  0.500000  0.756722  1
  Ga  Ga11  1  0.250000  0.500000  0.256722  1
  Ga  Ga12  1  0.138826  0.000000  0.362967  1
  Ga  Ga13  1  0.361174  0.000000  0.862967  1
  P  P14  1  0.870676  0.000000  0.631840  1
  P  P15  1  0.629324  0.000000  0.131840  1
