# generated using pymatgen
data_Dy2Zr2IrRh
_symmetry_space_group_name_H-M   'P 1'
_cell_length_a   4.60701900
_cell_length_b   7.09663584
_cell_length_c   8.26650281
_cell_angle_alpha   89.79887788
_cell_angle_beta   90.00000000
_cell_angle_gamma   90.00000000
_symmetry_Int_Tables_number   1
_chemical_formula_structural   Dy2Zr2IrRh
_chemical_formula_sum   'Dy4 Zr4 Ir2 Rh2'
_cell_volume   270.26615636
_cell_formula_units_Z   2
loop_
 _symmetry_equiv_pos_site_id
 _symmetry_equiv_pos_as_xyz
  1  'x, y, z'
loop_
 _atom_site_type_symbol
 _atom_site_label
 _atom_site_symmetry_multiplicity
 _atom_site_fract_x
 _atom_site_fract_y
 _atom_site_fract_z
 _atom_site_occupancy
  Dy  Dy0  1  0.250000  0.518995  0.177858  1
  Dy  Dy1  1  0.750000  0.481005  0.822142  1
  Dy  Dy2  1  0.250000  0.014607  0.324331  1
  Dy  Dy3  1  0.750000  0.985393  0.675669  1
  Zr  Zr4  1  0.250000  0.142647  0.923269  1
  Zr  Zr5  1  0.750000  0.857353  0.076731  1
  Zr  Zr6  1  0.250000  0.642912  0.575560  1
  Zr  Zr7  1  0.750000  0.357088  0.424440  1
  Ir  Ir8  1  0.750000  0.732109  0.407364  1
  Ir  Ir9  1  0.250000  0.267891  0.592636  1
  Rh  Rh10  1  0.750000  0.230895  0.089127  1
  Rh  Rh11  1  0.250000  0.769105  0.910873  1
