# generated using pymatgen
data_Dy10In2SnSb3
_symmetry_space_group_name_H-M   'P 1'
_cell_length_a   6.51890800
_cell_length_b   8.98891287
_cell_length_c   8.97454222
_cell_angle_alpha   119.97125240
_cell_angle_beta   89.99997206
_cell_angle_gamma   89.99999164
_symmetry_Int_Tables_number   1
_chemical_formula_structural   Dy10In2SnSb3
_chemical_formula_sum   'Dy10 In2 Sn1 Sb3'
_cell_volume   455.56535871
_cell_formula_units_Z   1
loop_
 _symmetry_equiv_pos_site_id
 _symmetry_equiv_pos_as_xyz
  1  'x, y, z'
loop_
 _atom_site_type_symbol
 _atom_site_label
 _atom_site_symmetry_multiplicity
 _atom_site_fract_x
 _atom_site_fract_y
 _atom_site_fract_z
 _atom_site_occupancy
  Dy  Dy0  1  0.500586  0.335543  0.667832  1
  Dy  Dy1  1  0.500425  0.663218  0.330283  1
  Dy  Dy2  1  0.999577  0.663217  0.330282  1
  Dy  Dy3  1  0.999415  0.335543  0.667830  1
  Dy  Dy4  1  0.750000  0.239692  0.004347  1
  Dy  Dy5  1  0.749999  0.758846  0.764200  1
  Dy  Dy6  1  0.750002  0.000487  0.239531  1
  Dy  Dy7  1  0.250001  0.760279  0.997744  1
  Dy  Dy8  1  0.250001  0.241234  0.237626  1
  Dy  Dy9  1  0.250001  0.001116  0.760199  1
  In  In10  1  0.750000  0.603993  0.000488  1
  In  In11  1  0.749999  0.394916  0.395894  1
  Sn  Sn12  1  0.250001  0.393706  0.996950  1
  Sb  Sb13  1  0.750002  0.999809  0.608563  1
  Sb  Sb14  1  0.249997  0.608963  0.606995  1
  Sb  Sb15  1  0.250001  0.999438  0.391239  1
