# generated using pymatgen
data_Tb4Dy2Si3Au
_symmetry_space_group_name_H-M   'P 1'
_cell_length_a   7.52940400
_cell_length_b   7.52940388
_cell_length_c   4.25971900
_cell_angle_alpha   90.00000000
_cell_angle_beta   90.00000000
_cell_angle_gamma   91.71402210
_symmetry_Int_Tables_number   1
_chemical_formula_structural   Tb4Dy2Si3Au
_chemical_formula_sum   'Tb4 Dy2 Si3 Au1'
_cell_volume   241.38361392
_cell_formula_units_Z   1
loop_
 _symmetry_equiv_pos_site_id
 _symmetry_equiv_pos_as_xyz
  1  'x, y, z'
loop_
 _atom_site_type_symbol
 _atom_site_label
 _atom_site_symmetry_multiplicity
 _atom_site_fract_x
 _atom_site_fract_y
 _atom_site_fract_z
 _atom_site_occupancy
  Tb  Tb0  1  0.315191  0.828078  0.500000  1
  Tb  Tb1  1  0.671922  0.184809  0.500000  1
  Tb  Tb2  1  0.175441  0.324559  0.500000  1
  Tb  Tb3  1  0.838226  0.661774  0.500000  1
  Dy  Dy4  1  0.995917  0.990046  0.000000  1
  Dy  Dy5  1  0.509954  0.504083  0.000000  1
  Si  Si6  1  0.370608  0.129392  0.000000  1
  Si  Si7  1  0.885536  0.378182  0.000000  1
  Si  Si8  1  0.121818  0.614464  0.000000  1
  Au  Au9  1  0.615386  0.884614  0.000000  1
