# generated using pymatgen
data_Th14CoNi5
_symmetry_space_group_name_H-M   'P 1'
_cell_length_a   9.79694219
_cell_length_b   9.79694314
_cell_length_c   6.24152242
_cell_angle_alpha   90.16467946
_cell_angle_beta   89.83531943
_cell_angle_gamma   119.91254028
_symmetry_Int_Tables_number   1
_chemical_formula_structural   Th14CoNi5
_chemical_formula_sum   'Th14 Co1 Ni5'
_cell_volume   519.25654065
_cell_formula_units_Z   1
loop_
 _symmetry_equiv_pos_site_id
 _symmetry_equiv_pos_as_xyz
  1  'x, y, z'
loop_
 _atom_site_type_symbol
 _atom_site_label
 _atom_site_symmetry_multiplicity
 _atom_site_fract_x
 _atom_site_fract_y
 _atom_site_fract_z
 _atom_site_occupancy
  Th  Th0  1  0.331759  0.668241  0.067188  1
  Th  Th1  1  0.667096  0.332904  0.570403  1
  Th  Th2  1  0.128192  0.871808  0.235023  1
  Th  Th3  1  0.252835  0.122296  0.740312  1
  Th  Th4  1  0.877704  0.747165  0.740312  1
  Th  Th5  1  0.126965  0.254606  0.240662  1
  Th  Th6  1  0.745394  0.873035  0.240662  1
  Th  Th7  1  0.873313  0.126687  0.740224  1
  Th  Th8  1  0.544320  0.455680  0.038106  1
  Th  Th9  1  0.091609  0.548599  0.541812  1
  Th  Th10  1  0.451401  0.908391  0.541812  1
  Th  Th11  1  0.544810  0.089904  0.039674  1
  Th  Th12  1  0.910096  0.455190  0.039674  1
  Th  Th13  1  0.455799  0.544201  0.539675  1
  Co  Co14  1  0.184213  0.815787  0.803480  1
  Ni  Ni15  1  0.814128  0.185872  0.308659  1
  Ni  Ni16  1  0.628651  0.813857  0.808622  1
  Ni  Ni17  1  0.186143  0.371349  0.808622  1
  Ni  Ni18  1  0.813091  0.627518  0.307539  1
  Ni  Ni19  1  0.372482  0.186909  0.307539  1
