# generated using pymatgen
data_NdSmEr4Ta2O14
_symmetry_space_group_name_H-M   'P 1'
_cell_length_a   6.46136253
_cell_length_b   6.46136271
_cell_length_c   7.55694741
_cell_angle_alpha   89.96930170
_cell_angle_beta   90.03069823
_cell_angle_gamma   109.23999494
_symmetry_Int_Tables_number   1
_chemical_formula_structural   NdSmEr4Ta2O14
_chemical_formula_sum   'Nd1 Sm1 Er4 Ta2 O14'
_cell_volume   297.87493377
_cell_formula_units_Z   1
loop_
 _symmetry_equiv_pos_site_id
 _symmetry_equiv_pos_as_xyz
  1  'x, y, z'
loop_
 _atom_site_type_symbol
 _atom_site_label
 _atom_site_symmetry_multiplicity
 _atom_site_fract_x
 _atom_site_fract_y
 _atom_site_fract_z
 _atom_site_occupancy
  Nd  Nd0  1  0.500000  0.500000  0.500000  1
  Sm  Sm1  1  0.500000  0.500000  0.000000  1
  Er  Er2  1  0.533366  0.001173  0.751567  1
  Er  Er3  1  0.001173  0.533366  0.248433  1
  Er  Er4  1  0.466634  0.998827  0.248433  1
  Er  Er5  1  0.998827  0.466634  0.751567  1
  Ta  Ta6  1  0.000000  0.000000  0.500000  1
  Ta  Ta7  1  0.000000  0.000000  0.000000  1
  O  O8  1  0.678347  0.930968  0.466602  1
  O  O9  1  0.930968  0.678347  0.533398  1
  O  O10  1  0.678521  0.929992  0.033058  1
  O  O11  1  0.929992  0.678521  0.966942  1
  O  O12  1  0.321653  0.069032  0.533398  1
  O  O13  1  0.069032  0.321653  0.466602  1
  O  O14  1  0.321479  0.070008  0.966942  1
  O  O15  1  0.070008  0.321479  0.033058  1
  O  O16  1  0.933651  0.066349  0.750007  1
  O  O17  1  0.066349  0.933651  0.249993  1
  O  O18  1  0.363314  0.636685  0.753730  1
  O  O19  1  0.636685  0.363314  0.246270  1
  O  O20  1  0.643356  0.356644  0.753269  1
  O  O21  1  0.356644  0.643356  0.246731  1
