# generated using pymatgen
data_Ca3HoAl18CuRh5
_symmetry_space_group_name_H-M   'P 1'
_cell_length_a   7.56647241
_cell_length_b   7.56334834
_cell_length_c   9.56884758
_cell_angle_alpha   90.17073792
_cell_angle_beta   90.14247131
_cell_angle_gamma   119.35835896
_symmetry_Int_Tables_number   1
_chemical_formula_structural   Ca3HoAl18CuRh5
_chemical_formula_sum   'Ca3 Ho1 Al18 Cu1 Rh5'
_cell_volume   477.26903710
_cell_formula_units_Z   1
loop_
 _symmetry_equiv_pos_site_id
 _symmetry_equiv_pos_as_xyz
  1  'x, y, z'
loop_
 _atom_site_type_symbol
 _atom_site_label
 _atom_site_symmetry_multiplicity
 _atom_site_fract_x
 _atom_site_fract_y
 _atom_site_fract_z
 _atom_site_occupancy
  Ca  Ca0  1  0.993151  0.671983  0.749731  1
  Ca  Ca1  1  0.005968  0.327766  0.250114  1
  Ca  Ca2  1  0.674406  0.994759  0.750156  1
  Ho  Ho3  1  0.326873  0.003161  0.250430  1
  Al  Al4  1  0.132782  0.133269  0.751562  1
  Al  Al5  1  0.870489  0.867172  0.248536  1
  Al  Al6  1  0.002060  0.338257  0.573093  1
  Al  Al7  1  0.998657  0.662378  0.426111  1
  Al  Al8  1  0.999090  0.664287  0.071169  1
  Al  Al9  1  0.335083  0.000749  0.928642  1
  Al  Al10  1  0.000817  0.335507  0.929247  1
  Al  Al11  1  0.664822  0.999679  0.071975  1
  Al  Al12  1  0.662762  0.999168  0.425499  1
  Al  Al13  1  0.338183  0.001579  0.574264  1
  Al  Al14  1  0.333375  0.333009  0.049345  1
  Al  Al15  1  0.665532  0.666097  0.954755  1
  Al  Al16  1  0.663073  0.663282  0.545681  1
  Al  Al17  1  0.334584  0.334397  0.449397  1
  Al  Al18  1  0.338657  0.549361  0.749793  1
  Al  Al19  1  0.658331  0.449347  0.250308  1
  Al  Al20  1  0.548695  0.338980  0.749597  1
  Al  Al21  1  0.453300  0.665411  0.250569  1
  Cu  Cu22  1  0.001515  0.000869  0.497553  1
  Rh  Rh23  1  0.670191  0.327152  0.498424  1
  Rh  Rh24  1  0.328319  0.672220  0.498985  1
  Rh  Rh25  1  0.328358  0.671605  0.001973  1
  Rh  Rh26  1  0.669829  0.327921  0.001438  1
  Rh  Rh27  1  0.001101  0.000638  0.001657  1
