# generated using pymatgen
data_Y8ErTmIn6
_symmetry_space_group_name_H-M   'P 1'
_cell_length_a   6.07417858
_cell_length_b   9.18189463
_cell_length_c   9.18189400
_cell_angle_alpha   83.69881900
_cell_angle_beta   70.67391709
_cell_angle_gamma   70.67391357
_symmetry_Int_Tables_number   1
_chemical_formula_structural   Y8ErTmIn6
_chemical_formula_sum   'Y8 Er1 Tm1 In6'
_cell_volume   456.00999451
_cell_formula_units_Z   1
loop_
 _symmetry_equiv_pos_site_id
 _symmetry_equiv_pos_as_xyz
  1  'x, y, z'
loop_
 _atom_site_type_symbol
 _atom_site_label
 _atom_site_symmetry_multiplicity
 _atom_site_fract_x
 _atom_site_fract_y
 _atom_site_fract_z
 _atom_site_occupancy
  Y  Y0  1  0.718453  0.863482  0.699507  1
  Y  Y1  1  0.281209  0.136512  0.300510  1
  Y  Y2  1  0.781547  0.300493  0.136518  1
  Y  Y3  1  0.218791  0.699490  0.863488  1
  Y  Y4  1  0.581835  0.699544  0.136556  1
  Y  Y5  1  0.418505  0.300420  0.863468  1
  Y  Y6  1  0.081495  0.136532  0.699580  1
  Y  Y7  1  0.918165  0.863444  0.300456  1
  Er  Er8  1  0.250000  0.500095  0.499905  1
  Tm  Tm9  1  0.750000  0.499936  0.500064  1
  In  In10  1  0.160279  0.500092  0.178711  1
  In  In11  1  0.838863  0.500073  0.821342  1
  In  In12  1  0.339721  0.821289  0.499908  1
  In  In13  1  0.661137  0.178658  0.499927  1
  In  In14  1  0.250000  0.000015  0.999985  1
  In  In15  1  0.750000  0.999925  0.000075  1
