# generated using pymatgen
data_Ho2Tm6In3Fe
_symmetry_space_group_name_H-M   'P 1'
_cell_length_a   10.20093000
_cell_length_b   10.19753625
_cell_length_c   6.98597944
_cell_angle_alpha   90.06955215
_cell_angle_beta   90.00000000
_cell_angle_gamma   120.01100957
_symmetry_Int_Tables_number   1
_chemical_formula_structural   Ho2Tm6In3Fe
_chemical_formula_sum   'Ho4 Tm12 In6 Fe2'
_cell_volume   629.28059901
_cell_formula_units_Z   2
loop_
 _symmetry_equiv_pos_site_id
 _symmetry_equiv_pos_as_xyz
  1  'x, y, z'
loop_
 _atom_site_type_symbol
 _atom_site_label
 _atom_site_symmetry_multiplicity
 _atom_site_fract_x
 _atom_site_fract_y
 _atom_site_fract_z
 _atom_site_occupancy
  Ho  Ho0  1  0.535219  0.070441  0.512758  1
  Ho  Ho1  1  0.930371  0.464887  0.513450  1
  Ho  Ho2  1  0.534516  0.464887  0.513450  1
  Ho  Ho3  1  0.464366  0.928732  0.013265  1
  Tm  Tm4  1  0.070908  0.535474  0.014259  1
  Tm  Tm5  1  0.464567  0.535474  0.014259  1
  Tm  Tm6  1  0.179247  0.358493  0.719726  1
  Tm  Tm7  1  0.642125  0.820751  0.718623  1
  Tm  Tm8  1  0.178626  0.820751  0.718623  1
  Tm  Tm9  1  0.820884  0.641767  0.217509  1
  Tm  Tm10  1  0.357228  0.178788  0.217215  1
  Tm  Tm11  1  0.821560  0.178788  0.217215  1
  Tm  Tm12  1  0.666978  0.333954  0.903568  1
  Tm  Tm13  1  0.333117  0.666234  0.402947  1
  Tm  Tm14  1  0.000267  0.000534  0.499728  1
  Tm  Tm15  1  0.000006  0.000012  0.999737  1
  In  In16  1  0.836884  0.673769  0.764586  1
  In  In17  1  0.325656  0.162871  0.764170  1
  In  In18  1  0.837215  0.162871  0.764170  1
  In  In19  1  0.163309  0.326619  0.263746  1
  In  In20  1  0.673937  0.836883  0.264505  1
  In  In21  1  0.162946  0.836883  0.264505  1
  Fe  Fe22  1  0.666949  0.333896  0.287076  1
  Fe  Fe23  1  0.333119  0.666241  0.788913  1
