# generated using pymatgen
data_Ho20Bi8Pt3Rh
_symmetry_space_group_name_H-M   'P 1'
_cell_length_a   8.02719372
_cell_length_b   9.01302000
_cell_length_c   12.35427109
_cell_angle_alpha   90.00000000
_cell_angle_beta   89.95173298
_cell_angle_gamma   90.00000000
_symmetry_Int_Tables_number   1
_chemical_formula_structural   Ho20Bi8Pt3Rh
_chemical_formula_sum   'Ho20 Bi8 Pt3 Rh1'
_cell_volume   893.82202323
_cell_formula_units_Z   1
loop_
 _symmetry_equiv_pos_site_id
 _symmetry_equiv_pos_as_xyz
  1  'x, y, z'
loop_
 _atom_site_type_symbol
 _atom_site_label
 _atom_site_symmetry_multiplicity
 _atom_site_fract_x
 _atom_site_fract_y
 _atom_site_fract_z
 _atom_site_occupancy
  Ho  Ho0  1  0.165810  0.750000  0.211101  1
  Ho  Ho1  1  0.337512  0.750000  0.707482  1
  Ho  Ho2  1  0.834931  0.250000  0.789351  1
  Ho  Ho3  1  0.664668  0.250000  0.290095  1
  Ho  Ho4  1  0.450002  0.750000  0.999885  1
  Ho  Ho5  1  0.049331  0.750000  0.500018  1
  Ho  Ho6  1  0.549135  0.250000  0.999631  1
  Ho  Ho7  1  0.949775  0.250000  0.499869  1
  Ho  Ho8  1  0.624187  0.750000  0.305506  1
  Ho  Ho9  1  0.873598  0.750000  0.803648  1
  Ho  Ho10  1  0.374008  0.250000  0.696852  1
  Ho  Ho11  1  0.127086  0.250000  0.196626  1
  Ho  Ho12  1  0.821529  0.546661  0.067092  1
  Ho  Ho13  1  0.676532  0.951266  0.565829  1
  Ho  Ho14  1  0.178138  0.046889  0.933316  1
  Ho  Ho15  1  0.323077  0.456136  0.434050  1
  Ho  Ho16  1  0.178138  0.453111  0.933316  1
  Ho  Ho17  1  0.323077  0.043864  0.434050  1
  Ho  Ho18  1  0.821529  0.953339  0.067092  1
  Ho  Ho19  1  0.676532  0.548734  0.565829  1
  Bi  Bi20  1  0.932524  0.509741  0.326734  1
  Bi  Bi21  1  0.568074  0.989766  0.827205  1
  Bi  Bi22  1  0.067719  0.009977  0.672947  1
  Bi  Bi23  1  0.432218  0.489814  0.172641  1
  Bi  Bi24  1  0.067719  0.490023  0.672947  1
  Bi  Bi25  1  0.432218  0.010186  0.172641  1
  Bi  Bi26  1  0.932524  0.990259  0.326734  1
  Bi  Bi27  1  0.568074  0.510234  0.827205  1
  Pt  Pt28  1  0.077467  0.750000  0.989239  1
  Pt  Pt29  1  0.577666  0.250000  0.511476  1
  Pt  Pt30  1  0.922192  0.250000  0.011331  1
  Rh  Rh31  1  0.423009  0.750000  0.488263  1
