# generated using pymatgen
data_Zr4Nb4Si3Sb
_symmetry_space_group_name_H-M   'P 1'
_cell_length_a   7.14667151
_cell_length_b   3.68493300
_cell_length_c   8.65083610
_cell_angle_alpha   90.00000000
_cell_angle_beta   90.66066506
_cell_angle_gamma   90.00000000
_symmetry_Int_Tables_number   1
_chemical_formula_structural   Zr4Nb4Si3Sb
_chemical_formula_sum   'Zr4 Nb4 Si3 Sb1'
_cell_volume   227.80467268
_cell_formula_units_Z   1
loop_
 _symmetry_equiv_pos_site_id
 _symmetry_equiv_pos_as_xyz
  1  'x, y, z'
loop_
 _atom_site_type_symbol
 _atom_site_label
 _atom_site_symmetry_multiplicity
 _atom_site_fract_x
 _atom_site_fract_y
 _atom_site_fract_z
 _atom_site_occupancy
  Zr  Zr0  1  0.955455  0.250000  0.176756  1
  Zr  Zr1  1  0.453995  0.250000  0.332371  1
  Zr  Zr2  1  0.537587  0.750000  0.654706  1
  Zr  Zr3  1  0.066443  0.750000  0.828604  1
  Nb  Nb4  1  0.619416  0.750000  0.070823  1
  Nb  Nb5  1  0.131677  0.750000  0.439585  1
  Nb  Nb6  1  0.872546  0.250000  0.552304  1
  Nb  Nb7  1  0.360871  0.250000  0.944106  1
  Si  Si8  1  0.249577  0.750000  0.142249  1
  Si  Si9  1  0.752388  0.750000  0.360598  1
  Si  Si10  1  0.247834  0.250000  0.637020  1
  Sb  Sb11  1  0.752211  0.250000  0.860878  1
