# generated using pymatgen
data_Dy4Co7P12Ir8Rh5
_symmetry_space_group_name_H-M   'P 1'
_cell_length_a   3.85504800
_cell_length_b   10.61783573
_cell_length_c   12.29601467
_cell_angle_alpha   89.88798310
_cell_angle_beta   90.00000000
_cell_angle_gamma   90.00000000
_symmetry_Int_Tables_number   1
_chemical_formula_structural   Dy4Co7P12Ir8Rh5
_chemical_formula_sum   'Dy4 Co7 P12 Ir8 Rh5'
_cell_volume   503.30278629
_cell_formula_units_Z   1
loop_
 _symmetry_equiv_pos_site_id
 _symmetry_equiv_pos_as_xyz
  1  'x, y, z'
loop_
 _atom_site_type_symbol
 _atom_site_label
 _atom_site_symmetry_multiplicity
 _atom_site_fract_x
 _atom_site_fract_y
 _atom_site_fract_z
 _atom_site_occupancy
  Dy  Dy0  1  0.250000  0.580032  0.711183  1
  Dy  Dy1  1  0.250000  0.916339  0.210405  1
  Dy  Dy2  1  0.750000  0.416374  0.289630  1
  Dy  Dy3  1  0.750000  0.086021  0.790546  1
  Co  Co4  1  0.250000  0.616616  0.196802  1
  Co  Co5  1  0.750000  0.116936  0.303427  1
  Co  Co6  1  0.750000  0.381837  0.804677  1
  Co  Co7  1  0.250000  0.462419  0.934832  1
  Co  Co8  1  0.250000  0.036339  0.430914  1
  Co  Co9  1  0.750000  0.536594  0.067672  1
  Co  Co10  1  0.750000  0.962560  0.563309  1
  P  P11  1  0.250000  0.431664  0.111409  1
  P  P12  1  0.250000  0.077728  0.603858  1
  P  P13  1  0.750000  0.565394  0.890841  1
  P  P14  1  0.750000  0.931136  0.387733  1
  P  P15  1  0.250000  0.274556  0.870177  1
  P  P16  1  0.250000  0.226406  0.369713  1
  P  P17  1  0.750000  0.725858  0.130277  1
  P  P18  1  0.750000  0.769886  0.628465  1
  P  P19  1  0.250000  0.597729  0.377749  1
  P  P20  1  0.250000  0.901163  0.886593  1
  P  P21  1  0.750000  0.401083  0.621130  1
  P  P22  1  0.750000  0.100154  0.122629  1
  Ir  Ir23  1  0.250000  0.092699  0.976731  1
  Ir  Ir24  1  0.750000  0.590355  0.523187  1
  Ir  Ir25  1  0.750000  0.910331  0.024818  1
  Ir  Ir26  1  0.250000  0.225686  0.179515  1
  Ir  Ir27  1  0.250000  0.277115  0.679656  1
  Ir  Ir28  1  0.750000  0.768410  0.823842  1
  Ir  Ir29  1  0.750000  0.724898  0.319845  1
  Ir  Ir30  1  0.250000  0.885482  0.696833  1
  Rh  Rh31  1  0.250000  0.719517  0.991159  1
  Rh  Rh32  1  0.250000  0.780987  0.482228  1
  Rh  Rh33  1  0.750000  0.280593  0.012208  1
  Rh  Rh34  1  0.750000  0.219634  0.510669  1
  Rh  Rh35  1  0.250000  0.409472  0.475337  1
