# generated using pymatgen
data_Sc4Ga2TcAu
_symmetry_space_group_name_H-M   'P 1'
_cell_length_a   6.72489200
_cell_length_b   6.61880600
_cell_length_c   6.72371300
_cell_angle_alpha   90.00000000
_cell_angle_beta   90.00020450
_cell_angle_gamma   90.00000000
_symmetry_Int_Tables_number   1
_chemical_formula_structural   Sc4Ga2TcAu
_chemical_formula_sum   'Sc8 Ga4 Tc2 Au2'
_cell_volume   299.27754552
_cell_formula_units_Z   2
loop_
 _symmetry_equiv_pos_site_id
 _symmetry_equiv_pos_as_xyz
  1  'x, y, z'
loop_
 _atom_site_type_symbol
 _atom_site_label
 _atom_site_symmetry_multiplicity
 _atom_site_fract_x
 _atom_site_fract_y
 _atom_site_fract_z
 _atom_site_occupancy
  Sc  Sc0  1  0.761541  0.501254  0.261524  1
  Sc  Sc1  1  0.761541  0.998746  0.261524  1
  Sc  Sc2  1  0.238413  0.001247  0.261570  1
  Sc  Sc3  1  0.238413  0.498753  0.261570  1
  Sc  Sc4  1  0.761587  0.501247  0.738430  1
  Sc  Sc5  1  0.761587  0.998753  0.738430  1
  Sc  Sc6  1  0.238459  0.001254  0.738476  1
  Sc  Sc7  1  0.238459  0.498746  0.738476  1
  Ga  Ga8  1  0.997365  0.250000  0.999999  1
  Ga  Ga9  1  0.002635  0.750000  0.000001  1
  Ga  Ga10  1  0.502470  0.250000  0.499995  1
  Ga  Ga11  1  0.497530  0.750000  0.500005  1
  Tc  Tc12  1  0.001456  0.750000  0.500019  1
  Tc  Tc13  1  0.998544  0.250000  0.499981  1
  Au  Au14  1  0.502700  0.250000  0.000013  1
  Au  Au15  1  0.497301  0.750000  0.999987  1
