# generated using pymatgen
data_Dy9Ho(InSb)3
_symmetry_space_group_name_H-M   'P 1'
_cell_length_a   8.97603945
_cell_length_b   8.96037118
_cell_length_c   6.56380900
_cell_angle_alpha   90.00173394
_cell_angle_beta   90.00082427
_cell_angle_gamma   120.14233776
_symmetry_Int_Tables_number   1
_chemical_formula_structural   Dy9Ho(InSb)3
_chemical_formula_sum   'Dy9 Ho1 In3 Sb3'
_cell_volume   456.53347419
_cell_formula_units_Z   1
loop_
 _symmetry_equiv_pos_site_id
 _symmetry_equiv_pos_as_xyz
  1  'x, y, z'
loop_
 _atom_site_type_symbol
 _atom_site_label
 _atom_site_symmetry_multiplicity
 _atom_site_fract_x
 _atom_site_fract_y
 _atom_site_fract_z
 _atom_site_occupancy
  Dy  Dy0  1  0.330171  0.665928  0.001113  1
  Dy  Dy1  1  0.664747  0.333586  0.499822  1
  Dy  Dy2  1  0.664695  0.333512  0.000232  1
  Dy  Dy3  1  0.761740  0.999891  0.749946  1
  Dy  Dy4  1  0.763938  0.760934  0.250113  1
  Dy  Dy5  1  0.003457  0.238928  0.250045  1
  Dy  Dy6  1  0.001984  0.763180  0.749850  1
  Dy  Dy7  1  0.239478  0.236151  0.749881  1
  Dy  Dy8  1  0.238307  0.000791  0.250190  1
  Ho  Ho9  1  0.330108  0.665954  0.498770  1
  In  In10  1  0.396974  0.999737  0.749753  1
  In  In11  1  0.395934  0.398130  0.250317  1
  In  In12  1  0.998700  0.602723  0.250291  1
  Sb  Sb13  1  0.997234  0.391659  0.749678  1
  Sb  Sb14  1  0.605669  0.608785  0.749570  1
  Sb  Sb15  1  0.606859  0.000111  0.250428  1
