# generated using pymatgen
data_Tb3Tm5(C2Cl3)2
_symmetry_space_group_name_H-M   'P 1'
_cell_length_a   3.62452200
_cell_length_b   10.38030529
_cell_length_c   19.56923854
_cell_angle_alpha   90.02708747
_cell_angle_beta   90.00000000
_cell_angle_gamma   90.00000000
_symmetry_Int_Tables_number   1
_chemical_formula_structural   Tb3Tm5(C2Cl3)2
_chemical_formula_sum   'Tb6 Tm10 C8 Cl12'
_cell_volume   736.26599958
_cell_formula_units_Z   2
loop_
 _symmetry_equiv_pos_site_id
 _symmetry_equiv_pos_as_xyz
  1  'x, y, z'
loop_
 _atom_site_type_symbol
 _atom_site_label
 _atom_site_symmetry_multiplicity
 _atom_site_fract_x
 _atom_site_fract_y
 _atom_site_fract_z
 _atom_site_occupancy
  Tb  Tb0  1  0.250000  0.862256  0.572648  1
  Tb  Tb1  1  0.750000  0.137744  0.427352  1
  Tb  Tb2  1  0.750000  0.637624  0.073626  1
  Tb  Tb3  1  0.250000  0.362376  0.926374  1
  Tb  Tb4  1  0.250000  0.863912  0.745410  1
  Tb  Tb5  1  0.750000  0.136088  0.254590  1
  Tm  Tm6  1  0.750000  0.636346  0.244161  1
  Tm  Tm7  1  0.250000  0.363654  0.755839  1
  Tm  Tm8  1  0.250000  0.872670  0.166195  1
  Tm  Tm9  1  0.750000  0.127330  0.833805  1
  Tm  Tm10  1  0.750000  0.626210  0.665752  1
  Tm  Tm11  1  0.250000  0.373790  0.334248  1
  Tm  Tm12  1  0.250000  0.898460  0.330739  1
  Tm  Tm13  1  0.750000  0.101540  0.669261  1
  Tm  Tm14  1  0.750000  0.600036  0.830295  1
  Tm  Tm15  1  0.250000  0.399964  0.169705  1
  C  C16  1  0.250000  0.610040  0.749921  1
  C  C17  1  0.750000  0.389960  0.250079  1
  C  C18  1  0.750000  0.883164  0.250120  1
  C  C19  1  0.250000  0.116836  0.749880  1
  C  C20  1  0.250000  0.634874  0.154357  1
  C  C21  1  0.750000  0.365126  0.845643  1
  C  C22  1  0.750000  0.865107  0.652861  1
  C  C23  1  0.250000  0.134893  0.347139  1
  Cl  Cl24  1  0.250000  0.608504  0.557706  1
  Cl  Cl25  1  0.750000  0.391496  0.442294  1
  Cl  Cl26  1  0.750000  0.890255  0.057850  1
  Cl  Cl27  1  0.250000  0.109745  0.942150  1
  Cl  Cl28  1  0.250000  0.625440  0.950639  1
  Cl  Cl29  1  0.750000  0.374560  0.049361  1
  Cl  Cl30  1  0.750000  0.873402  0.450124  1
  Cl  Cl31  1  0.250000  0.126598  0.549876  1
  Cl  Cl32  1  0.250000  0.638173  0.353231  1
  Cl  Cl33  1  0.750000  0.361827  0.646769  1
  Cl  Cl34  1  0.750000  0.861470  0.856682  1
  Cl  Cl35  1  0.250000  0.138530  0.143318  1
