# generated using pymatgen
data_Zr4CoTcOs6
_symmetry_space_group_name_H-M   'P 1'
_cell_length_a   5.16202104
_cell_length_b   5.16201957
_cell_length_c   8.59516500
_cell_angle_alpha   90.00000000
_cell_angle_beta   90.00000000
_cell_angle_gamma   119.03818808
_symmetry_Int_Tables_number   1
_chemical_formula_structural   Zr4CoTcOs6
_chemical_formula_sum   'Zr4 Co1 Tc1 Os6'
_cell_volume   200.24068267
_cell_formula_units_Z   1
loop_
 _symmetry_equiv_pos_site_id
 _symmetry_equiv_pos_as_xyz
  1  'x, y, z'
loop_
 _atom_site_type_symbol
 _atom_site_label
 _atom_site_symmetry_multiplicity
 _atom_site_fract_x
 _atom_site_fract_y
 _atom_site_fract_z
 _atom_site_occupancy
  Zr  Zr0  1  0.333402  0.666598  0.431165  1
  Zr  Zr1  1  0.668299  0.331701  0.561877  1
  Zr  Zr2  1  0.668299  0.331701  0.938123  1
  Zr  Zr3  1  0.333402  0.666598  0.068835  1
  Co  Co4  1  0.829446  0.170554  0.250000  1
  Tc  Tc5  1  0.171576  0.828424  0.750000  1
  Os  Os6  1  0.997311  0.002689  0.495209  1
  Os  Os7  1  0.997311  0.002689  0.004791  1
  Os  Os8  1  0.825917  0.653851  0.250000  1
  Os  Os9  1  0.346149  0.174083  0.250000  1
  Os  Os10  1  0.172398  0.343509  0.750000  1
  Os  Os11  1  0.656491  0.827602  0.750000  1
