# generated using pymatgen
data_Ce6RuAu7
_symmetry_space_group_name_H-M   'P 1'
_cell_length_a   8.27472996
_cell_length_b   8.27472943
_cell_length_c   8.27472794
_cell_angle_alpha   114.39784612
_cell_angle_beta   114.39784089
_cell_angle_gamma   114.39785061
_symmetry_Int_Tables_number   1
_chemical_formula_structural   Ce6RuAu7
_chemical_formula_sum   'Ce6 Ru1 Au7'
_cell_volume   333.82929969
_cell_formula_units_Z   1
loop_
 _symmetry_equiv_pos_site_id
 _symmetry_equiv_pos_as_xyz
  1  'x, y, z'
loop_
 _atom_site_type_symbol
 _atom_site_label
 _atom_site_symmetry_multiplicity
 _atom_site_fract_x
 _atom_site_fract_y
 _atom_site_fract_z
 _atom_site_occupancy
  Ce  Ce0  1  0.378130  0.015727  0.263569  1
  Ce  Ce1  1  0.015727  0.263569  0.378130  1
  Ce  Ce2  1  0.263569  0.378130  0.015727  1
  Ce  Ce3  1  0.621870  0.984273  0.736431  1
  Ce  Ce4  1  0.984273  0.736431  0.621870  1
  Ce  Ce5  1  0.736431  0.621870  0.984273  1
  Ru  Ru6  1  0.000000  0.000000  0.000000  1
  Au  Au7  1  0.070229  0.570115  0.235453  1
  Au  Au8  1  0.235453  0.070229  0.570115  1
  Au  Au9  1  0.570115  0.235453  0.070229  1
  Au  Au10  1  0.764547  0.929771  0.429885  1
  Au  Au11  1  0.929771  0.429885  0.764547  1
  Au  Au12  1  0.429885  0.764547  0.929771  1
  Au  Au13  1  0.500000  0.500000  0.500000  1
