# generated using pymatgen
data_LaPr5Nd4(Sn5Ir2)4
_symmetry_space_group_name_H-M   'P 1'
_cell_length_a   14.20170900
_cell_length_b   14.20170900
_cell_length_c   4.69375400
_cell_angle_alpha   90.00000000
_cell_angle_beta   90.00000000
_cell_angle_gamma   90.00000000
_symmetry_Int_Tables_number   1
_chemical_formula_structural   LaPr5Nd4(Sn5Ir2)4
_chemical_formula_sum   'La1 Pr5 Nd4 Sn20 Ir8'
_cell_volume   946.67638444
_cell_formula_units_Z   1
loop_
 _symmetry_equiv_pos_site_id
 _symmetry_equiv_pos_as_xyz
  1  'x, y, z'
loop_
 _atom_site_type_symbol
 _atom_site_label
 _atom_site_symmetry_multiplicity
 _atom_site_fract_x
 _atom_site_fract_y
 _atom_site_fract_z
 _atom_site_occupancy
  La  La0  1  0.500000  0.500000  0.000000  1
  Pr  Pr1  1  0.000000  0.000000  0.000000  1
  Pr  Pr2  1  0.887003  0.387653  0.500000  1
  Pr  Pr3  1  0.112997  0.612347  0.500000  1
  Pr  Pr4  1  0.387653  0.112997  0.500000  1
  Pr  Pr5  1  0.612347  0.887003  0.500000  1
  Nd  Nd6  1  0.677499  0.177554  0.500000  1
  Nd  Nd7  1  0.322501  0.822446  0.500000  1
  Nd  Nd8  1  0.177554  0.322501  0.500000  1
  Nd  Nd9  1  0.822446  0.677499  0.500000  1
  Sn  Sn10  1  0.570176  0.069424  0.000000  1
  Sn  Sn11  1  0.429824  0.930576  0.000000  1
  Sn  Sn12  1  0.069424  0.429824  0.000000  1
  Sn  Sn13  1  0.930576  0.570176  0.000000  1
  Sn  Sn14  1  0.653510  0.698864  0.000000  1
  Sn  Sn15  1  0.346490  0.301136  0.000000  1
  Sn  Sn16  1  0.154184  0.800163  0.000000  1
  Sn  Sn17  1  0.845816  0.199837  0.000000  1
  Sn  Sn18  1  0.301136  0.653510  0.000000  1
  Sn  Sn19  1  0.698864  0.346490  0.000000  1
  Sn  Sn20  1  0.199837  0.154184  0.000000  1
  Sn  Sn21  1  0.800163  0.845816  0.000000  1
  Sn  Sn22  1  0.663245  0.505438  0.500000  1
  Sn  Sn23  1  0.336755  0.494562  0.500000  1
  Sn  Sn24  1  0.163137  0.995180  0.500000  1
  Sn  Sn25  1  0.836863  0.004820  0.500000  1
  Sn  Sn26  1  0.494562  0.663245  0.500000  1
  Sn  Sn27  1  0.505438  0.336755  0.500000  1
  Sn  Sn28  1  0.004820  0.163137  0.500000  1
  Sn  Sn29  1  0.995180  0.836863  0.500000  1
  Ir  Ir30  1  0.746661  0.529521  0.000000  1
  Ir  Ir31  1  0.253339  0.470479  0.000000  1
  Ir  Ir32  1  0.245617  0.970528  0.000000  1
  Ir  Ir33  1  0.754383  0.029472  0.000000  1
  Ir  Ir34  1  0.470479  0.746661  0.000000  1
  Ir  Ir35  1  0.529521  0.253339  0.000000  1
  Ir  Ir36  1  0.029472  0.245617  0.000000  1
  Ir  Ir37  1  0.970528  0.754383  0.000000  1
