# generated using pymatgen
data_Nd6In7Hg3
_symmetry_space_group_name_H-M   'P 1'
_cell_length_a   6.53248682
_cell_length_b   6.51776070
_cell_length_c   10.81004500
_cell_angle_alpha   90.00000000
_cell_angle_beta   90.00000000
_cell_angle_gamma   103.15270817
_symmetry_Int_Tables_number   1
_chemical_formula_structural   Nd6In7Hg3
_chemical_formula_sum   'Nd6 In7 Hg3'
_cell_volume   448.18728440
_cell_formula_units_Z   1
loop_
 _symmetry_equiv_pos_site_id
 _symmetry_equiv_pos_as_xyz
  1  'x, y, z'
loop_
 _atom_site_type_symbol
 _atom_site_label
 _atom_site_symmetry_multiplicity
 _atom_site_fract_x
 _atom_site_fract_y
 _atom_site_fract_z
 _atom_site_occupancy
  Nd  Nd0  1  0.629912  0.629843  0.250000  1
  Nd  Nd1  1  0.369576  0.367925  0.750000  1
  Nd  Nd2  1  0.202240  0.800485  0.501024  1
  Nd  Nd3  1  0.202240  0.800485  0.998976  1
  Nd  Nd4  1  0.797070  0.201341  0.498450  1
  Nd  Nd5  1  0.797070  0.201341  0.001550  1
  In  In6  1  0.316164  0.317378  0.042995  1
  In  In7  1  0.682305  0.683039  0.955295  1
  In  In8  1  0.316164  0.317378  0.457005  1
  In  In9  1  0.682305  0.683039  0.544705  1
  In  In10  1  0.918452  0.497121  0.750000  1
  In  In11  1  0.496416  0.916874  0.750000  1
  In  In12  1  0.082916  0.503005  0.250000  1
  Hg  Hg13  1  0.018885  0.014136  0.250000  1
  Hg  Hg14  1  0.984032  0.986106  0.750000  1
  Hg  Hg15  1  0.504255  0.080505  0.250000  1
