# generated using pymatgen
data_YLu2Co9(GeB2)2
_symmetry_space_group_name_H-M   'P 1'
_cell_length_a   5.12466103
_cell_length_b   5.12481958
_cell_length_c   9.42656305
_cell_angle_alpha   89.99962158
_cell_angle_beta   90.00075687
_cell_angle_gamma   119.99897017
_symmetry_Int_Tables_number   1
_chemical_formula_structural   YLu2Co9(GeB2)2
_chemical_formula_sum   'Y1 Lu2 Co9 Ge2 B4'
_cell_volume   214.40368223
_cell_formula_units_Z   1
loop_
 _symmetry_equiv_pos_site_id
 _symmetry_equiv_pos_as_xyz
  1  'x, y, z'
loop_
 _atom_site_type_symbol
 _atom_site_label
 _atom_site_symmetry_multiplicity
 _atom_site_fract_x
 _atom_site_fract_y
 _atom_site_fract_z
 _atom_site_occupancy
  Y  Y0  1  0.999993  0.000000  0.000044  1
  Lu  Lu1  1  0.999981  0.000000  0.340082  1
  Lu  Lu2  1  0.999996  0.000000  0.659924  1
  Co  Co3  1  0.499994  0.000000  0.500009  1
  Co  Co4  1  0.499989  0.499997  0.499991  1
  Co  Co5  1  0.999992  0.500003  0.499991  1
  Co  Co6  1  0.499982  0.000000  0.204068  1
  Co  Co7  1  0.499975  0.500000  0.204075  1
  Co  Co8  1  0.999975  0.500000  0.204075  1
  Co  Co9  1  0.500033  0.000000  0.795920  1
  Co  Co10  1  0.500017  0.499995  0.795928  1
  Co  Co11  1  0.000022  0.500005  0.795928  1
  Ge  Ge12  1  0.333300  0.666625  0.999983  1
  Ge  Ge13  1  0.666674  0.333375  0.999983  1
  B  B14  1  0.333320  0.666672  0.348286  1
  B  B15  1  0.666648  0.333328  0.348286  1
  B  B16  1  0.666685  0.333363  0.651715  1
  B  B17  1  0.333322  0.666637  0.651715  1
