# generated using pymatgen
data_NdSm7Cu2(Si6Pd)2
_symmetry_space_group_name_H-M   'P 1'
_cell_length_a   8.15663200
_cell_length_b   8.15663241
_cell_length_c   8.39834900
_cell_angle_alpha   90.00000000
_cell_angle_beta   90.00000000
_cell_angle_gamma   119.99999832
_symmetry_Int_Tables_number   1
_chemical_formula_structural   NdSm7Cu2(Si6Pd)2
_chemical_formula_sum   'Nd1 Sm7 Cu2 Si12 Pd2'
_cell_volume   483.88963207
_cell_formula_units_Z   1
loop_
 _symmetry_equiv_pos_site_id
 _symmetry_equiv_pos_as_xyz
  1  'x, y, z'
loop_
 _atom_site_type_symbol
 _atom_site_label
 _atom_site_symmetry_multiplicity
 _atom_site_fract_x
 _atom_site_fract_y
 _atom_site_fract_z
 _atom_site_occupancy
  Nd  Nd0  1  0.000000  0.000000  0.249323  1
  Sm  Sm1  1  0.499912  0.500088  0.750188  1
  Sm  Sm2  1  0.500088  0.499912  0.249753  1
  Sm  Sm3  1  0.000178  0.500088  0.750188  1
  Sm  Sm4  1  0.999826  0.499912  0.249753  1
  Sm  Sm5  1  0.499912  0.999822  0.750188  1
  Sm  Sm6  1  0.500088  0.000174  0.249753  1
  Sm  Sm7  1  0.000000  0.000000  0.750341  1
  Cu  Cu8  1  0.666667  0.333333  0.999678  1
  Cu  Cu9  1  0.333333  0.666667  0.001031  1
  Si  Si10  1  0.830685  0.169315  0.998719  1
  Si  Si11  1  0.169322  0.830678  0.998969  1
  Si  Si12  1  0.338631  0.169315  0.998719  1
  Si  Si13  1  0.166067  0.833933  0.501032  1
  Si  Si14  1  0.661357  0.830678  0.998969  1
  Si  Si15  1  0.833934  0.166066  0.501351  1
  Si  Si16  1  0.830685  0.661369  0.998719  1
  Si  Si17  1  0.667866  0.833933  0.501032  1
  Si  Si18  1  0.169322  0.338643  0.998969  1
  Si  Si19  1  0.332132  0.166066  0.501351  1
  Si  Si20  1  0.166067  0.332134  0.501032  1
  Si  Si21  1  0.833934  0.667868  0.501351  1
  Pd  Pd22  1  0.333333  0.666667  0.499606  1
  Pd  Pd23  1  0.666667  0.333333  0.499986  1
