# generated using pymatgen
data_TbDy2GaC3
_symmetry_space_group_name_H-M   'P 1'
_cell_length_a   3.57966400
_cell_length_b   7.08003470
_cell_length_c   9.90065898
_cell_angle_alpha   89.94898974
_cell_angle_beta   90.00000000
_cell_angle_gamma   90.00000000
_symmetry_Int_Tables_number   1
_chemical_formula_structural   TbDy2GaC3
_chemical_formula_sum   'Tb2 Dy4 Ga2 C6'
_cell_volume   250.92364073
_cell_formula_units_Z   2
loop_
 _symmetry_equiv_pos_site_id
 _symmetry_equiv_pos_as_xyz
  1  'x, y, z'
loop_
 _atom_site_type_symbol
 _atom_site_label
 _atom_site_symmetry_multiplicity
 _atom_site_fract_x
 _atom_site_fract_y
 _atom_site_fract_z
 _atom_site_occupancy
  Tb  Tb0  1  0.500000  0.510389  0.196200  1
  Tb  Tb1  1  0.000000  0.750153  0.458868  1
  Dy  Dy2  1  0.500000  0.488024  0.803353  1
  Dy  Dy3  1  0.500000  0.988565  0.196697  1
  Dy  Dy4  1  0.500000  0.011680  0.803117  1
  Dy  Dy5  1  0.000000  0.249954  0.542299  1
  Ga  Ga6  1  0.000000  0.751041  0.000445  1
  Ga  Ga7  1  0.000000  0.249102  0.998726  1
  C  C8  1  0.500000  0.507583  0.567161  1
  C  C9  1  0.500000  0.489903  0.433838  1
  C  C10  1  0.500000  0.992657  0.566670  1
  C  C11  1  0.500000  0.010153  0.433222  1
  C  C12  1  0.000000  0.750930  0.208485  1
  C  C13  1  0.000000  0.249867  0.790919  1
