# generated using pymatgen
data_Dy6MgCo17P12
_symmetry_space_group_name_H-M   'P 1'
_cell_length_a   3.71824600
_cell_length_b   10.57319100
_cell_length_c   12.24401100
_cell_angle_alpha   90.00000000
_cell_angle_beta   90.00000000
_cell_angle_gamma   90.00000000
_symmetry_Int_Tables_number   1
_chemical_formula_structural   Dy6MgCo17P12
_chemical_formula_sum   'Dy6 Mg1 Co17 P12'
_cell_volume   481.35768310
_cell_formula_units_Z   1
loop_
 _symmetry_equiv_pos_site_id
 _symmetry_equiv_pos_as_xyz
  1  'x, y, z'
loop_
 _atom_site_type_symbol
 _atom_site_label
 _atom_site_symmetry_multiplicity
 _atom_site_fract_x
 _atom_site_fract_y
 _atom_site_fract_z
 _atom_site_occupancy
  Dy  Dy0  1  0.000000  0.500000  0.525187  1
  Dy  Dy1  1  0.500000  0.000000  0.478616  1
  Dy  Dy2  1  0.500000  0.821319  0.207204  1
  Dy  Dy3  1  0.500000  0.178681  0.207204  1
  Dy  Dy4  1  0.000000  0.682896  0.794424  1
  Dy  Dy5  1  0.000000  0.317104  0.794424  1
  Mg  Mg6  1  0.500000  0.500000  0.153380  1
  Co  Co7  1  0.000000  0.000000  0.839010  1
  Co  Co8  1  0.500000  0.500000  0.703916  1
  Co  Co9  1  0.000000  0.000000  0.296319  1
  Co  Co10  1  0.000000  0.500000  0.985693  1
  Co  Co11  1  0.500000  0.000000  0.012682  1
  Co  Co12  1  0.500000  0.329444  0.992902  1
  Co  Co13  1  0.500000  0.670556  0.992902  1
  Co  Co14  1  0.000000  0.163241  0.002113  1
  Co  Co15  1  0.000000  0.836759  0.002113  1
  Co  Co16  1  0.500000  0.295798  0.432668  1
  Co  Co17  1  0.500000  0.704202  0.432668  1
  Co  Co18  1  0.000000  0.202162  0.570421  1
  Co  Co19  1  0.000000  0.797838  0.570421  1
  Co  Co20  1  0.500000  0.880214  0.708936  1
  Co  Co21  1  0.500000  0.119786  0.708936  1
  Co  Co22  1  0.000000  0.622637  0.293262  1
  Co  Co23  1  0.000000  0.377363  0.293262  1
  P  P24  1  0.500000  0.500000  0.882972  1
  P  P25  1  0.000000  0.000000  0.116401  1
  P  P26  1  0.500000  0.500000  0.353730  1
  P  P27  1  0.000000  0.000000  0.655742  1
  P  P28  1  0.500000  0.309149  0.616944  1
  P  P29  1  0.500000  0.690851  0.616944  1
  P  P30  1  0.000000  0.189422  0.385797  1
  P  P31  1  0.000000  0.810578  0.385797  1
  P  P32  1  0.500000  0.849587  0.890494  1
  P  P33  1  0.500000  0.150413  0.890494  1
  P  P34  1  0.000000  0.662500  0.103012  1
  P  P35  1  0.000000  0.337500  0.103012  1
