# generated using pymatgen
data_TbDy3GaS3
_symmetry_space_group_name_H-M   'P 1'
_cell_length_a   6.91521775
_cell_length_b   6.91521880
_cell_length_c   6.91521793
_cell_angle_alpha   131.89938616
_cell_angle_beta   131.89939555
_cell_angle_gamma   70.38797277
_symmetry_Int_Tables_number   1
_chemical_formula_structural   TbDy3GaS3
_chemical_formula_sum   'Tb1 Dy3 Ga1 S3'
_cell_volume   179.53382729
_cell_formula_units_Z   1
loop_
 _symmetry_equiv_pos_site_id
 _symmetry_equiv_pos_as_xyz
  1  'x, y, z'
loop_
 _atom_site_type_symbol
 _atom_site_label
 _atom_site_symmetry_multiplicity
 _atom_site_fract_x
 _atom_site_fract_y
 _atom_site_fract_z
 _atom_site_occupancy
  Tb  Tb0  1  0.252566  0.252566  0.000000  1
  Dy  Dy1  1  0.747413  0.747413  0.000000  1
  Dy  Dy2  1  0.499987  0.999986  0.500001  1
  Dy  Dy3  1  0.999986  0.499987  0.500001  1
  Ga  Ga4  1  0.999669  0.999669  0.000000  1
  S  S5  1  0.500485  0.500485  0.000000  1
  S  S6  1  0.749949  0.249948  0.500001  1
  S  S7  1  0.249948  0.749949  0.500001  1
