# generated using pymatgen
data_Pr3NdGd2(RuI3)2
_symmetry_space_group_name_H-M   'P 1'
_cell_length_a   4.44827800
_cell_length_b   9.26378800
_cell_length_c   12.88400200
_cell_angle_alpha   85.37560086
_cell_angle_beta   90.00000000
_cell_angle_gamma   90.00000000
_symmetry_Int_Tables_number   1
_chemical_formula_structural   Pr3NdGd2(RuI3)2
_chemical_formula_sum   'Pr3 Nd1 Gd2 Ru2 I6'
_cell_volume   529.19437555
_cell_formula_units_Z   1
loop_
 _symmetry_equiv_pos_site_id
 _symmetry_equiv_pos_as_xyz
  1  'x, y, z'
loop_
 _atom_site_type_symbol
 _atom_site_label
 _atom_site_symmetry_multiplicity
 _atom_site_fract_x
 _atom_site_fract_y
 _atom_site_fract_z
 _atom_site_occupancy
  Pr  Pr0  1  0.750000  0.094887  0.687773  1
  Pr  Pr1  1  0.250000  0.905097  0.311681  1
  Pr  Pr2  1  0.250000  0.274301  0.899803  1
  Nd  Nd3  1  0.750000  0.726013  0.100816  1
  Gd  Gd4  1  0.750000  0.115715  0.114081  1
  Gd  Gd5  1  0.250000  0.881975  0.885155  1
  Ru  Ru6  1  0.750000  0.060790  0.905049  1
  Ru  Ru7  1  0.250000  0.937469  0.094239  1
  I  I8  1  0.250000  0.345409  0.644103  1
  I  I9  1  0.750000  0.655197  0.355772  1
  I  I10  1  0.750000  0.139629  0.381705  1
  I  I11  1  0.250000  0.859065  0.619493  1
  I  I12  1  0.250000  0.417199  0.129472  1
  I  I13  1  0.750000  0.587257  0.870859  1
