# generated using pymatgen
data_YHo4(ZnB4)2
_symmetry_space_group_name_H-M   'P 1'
_cell_length_a   7.17365000
_cell_length_b   7.17365000
_cell_length_c   8.36286600
_cell_angle_alpha   90.00000000
_cell_angle_beta   90.00000000
_cell_angle_gamma   90.00000000
_symmetry_Int_Tables_number   1
_chemical_formula_structural   YHo4(ZnB4)2
_chemical_formula_sum   'Y2 Ho8 Zn4 B16'
_cell_volume   430.36357409
_cell_formula_units_Z   2
loop_
 _symmetry_equiv_pos_site_id
 _symmetry_equiv_pos_as_xyz
  1  'x, y, z'
loop_
 _atom_site_type_symbol
 _atom_site_label
 _atom_site_symmetry_multiplicity
 _atom_site_fract_x
 _atom_site_fract_y
 _atom_site_fract_z
 _atom_site_occupancy
  Y  Y0  1  0.000000  0.000000  0.500000  1
  Y  Y1  1  0.500000  0.500000  0.500000  1
  Ho  Ho2  1  0.682065  0.182065  0.212287  1
  Ho  Ho3  1  0.317935  0.817935  0.787713  1
  Ho  Ho4  1  0.317935  0.817935  0.212287  1
  Ho  Ho5  1  0.817935  0.682065  0.212287  1
  Ho  Ho6  1  0.817935  0.682065  0.787713  1
  Ho  Ho7  1  0.682065  0.182065  0.787713  1
  Ho  Ho8  1  0.182065  0.317935  0.787713  1
  Ho  Ho9  1  0.182065  0.317935  0.212287  1
  Zn  Zn10  1  0.117753  0.617753  0.500000  1
  Zn  Zn11  1  0.882247  0.382247  0.500000  1
  Zn  Zn12  1  0.382247  0.117753  0.500000  1
  Zn  Zn13  1  0.617753  0.882247  0.500000  1
  B  B14  1  0.172028  0.040260  0.000000  1
  B  B15  1  0.827972  0.959740  0.000000  1
  B  B16  1  0.959740  0.172028  0.000000  1
  B  B17  1  0.327972  0.540260  0.000000  1
  B  B18  1  0.040260  0.827972  0.000000  1
  B  B19  1  0.672028  0.459740  0.000000  1
  B  B20  1  0.540260  0.672028  0.000000  1
  B  B21  1  0.459740  0.327972  0.000000  1
  B  B22  1  0.090275  0.590275  0.000000  1
  B  B23  1  0.909725  0.409725  0.000000  1
  B  B24  1  0.409725  0.090275  0.000000  1
  B  B25  1  0.590275  0.909725  0.000000  1
  B  B26  1  0.000000  0.000000  0.158527  1
  B  B27  1  0.000000  0.000000  0.841473  1
  B  B28  1  0.500000  0.500000  0.841473  1
  B  B29  1  0.500000  0.500000  0.158527  1
