# generated using pymatgen
data_Cs4Rb8Li4Si15Ge
_symmetry_space_group_name_H-M   'P 1'
_cell_length_a   8.04372240
_cell_length_b   9.97488000
_cell_length_c   13.04841817
_cell_angle_alpha   90.00000000
_cell_angle_beta   89.94279591
_cell_angle_gamma   90.00000000
_symmetry_Int_Tables_number   1
_chemical_formula_structural   Cs4Rb8Li4Si15Ge
_chemical_formula_sum   'Cs4 Rb8 Li4 Si15 Ge1'
_cell_volume   1046.94147149
_cell_formula_units_Z   1
loop_
 _symmetry_equiv_pos_site_id
 _symmetry_equiv_pos_as_xyz
  1  'x, y, z'
loop_
 _atom_site_type_symbol
 _atom_site_label
 _atom_site_symmetry_multiplicity
 _atom_site_fract_x
 _atom_site_fract_y
 _atom_site_fract_z
 _atom_site_occupancy
  Cs  Cs0  1  0.649769  0.250000  0.397012  1
  Cs  Cs1  1  0.149245  0.250000  0.103040  1
  Cs  Cs2  1  0.349912  0.750000  0.601702  1
  Cs  Cs3  1  0.851864  0.750000  0.897512  1
  Rb  Rb4  1  0.657106  0.443941  0.691835  1
  Rb  Rb5  1  0.156132  0.057623  0.808451  1
  Rb  Rb6  1  0.342878  0.944344  0.308744  1
  Rb  Rb7  1  0.842392  0.555975  0.191712  1
  Rb  Rb8  1  0.342878  0.555656  0.308744  1
  Rb  Rb9  1  0.842392  0.944025  0.191712  1
  Rb  Rb10  1  0.657106  0.056059  0.691835  1
  Rb  Rb11  1  0.156132  0.442377  0.808451  1
  Li  Li12  1  0.500177  0.498839  0.001132  1
  Li  Li13  1  0.999881  0.000039  0.500092  1
  Li  Li14  1  0.500177  0.001161  0.001132  1
  Li  Li15  1  0.999881  0.499961  0.500092  1
  Si  Si16  1  0.863358  0.750000  0.590192  1
  Si  Si17  1  0.636304  0.250000  0.090091  1
  Si  Si18  1  0.136677  0.250000  0.409935  1
  Si  Si19  1  0.725725  0.630691  0.450012  1
  Si  Si20  1  0.225647  0.869195  0.051379  1
  Si  Si21  1  0.274219  0.130690  0.550165  1
  Si  Si22  1  0.774316  0.369319  0.949939  1
  Si  Si23  1  0.013742  0.250000  0.582048  1
  Si  Si24  1  0.514094  0.250000  0.917834  1
  Si  Si25  1  0.986153  0.750000  0.417954  1
  Si  Si26  1  0.485828  0.750000  0.083004  1
  Si  Si27  1  0.225647  0.630805  0.051379  1
  Si  Si28  1  0.725725  0.869309  0.450012  1
  Si  Si29  1  0.774316  0.130681  0.949939  1
  Si  Si30  1  0.274219  0.369310  0.550165  1
  Ge  Ge31  1  0.366112  0.750000  0.902756  1
