# generated using pymatgen
data_Lu10(TlSb)3
_symmetry_space_group_name_H-M   'P 1'
_cell_length_a   6.40307000
_cell_length_b   8.77179193
_cell_length_c   8.77190001
_cell_angle_alpha   59.99893338
_cell_angle_beta   89.99661569
_cell_angle_gamma   89.99946521
_symmetry_Int_Tables_number   1
_chemical_formula_structural   Lu10(TlSb)3
_chemical_formula_sum   'Lu10 Tl3 Sb3'
_cell_volume   426.67402697
_cell_formula_units_Z   1
loop_
 _symmetry_equiv_pos_site_id
 _symmetry_equiv_pos_as_xyz
  1  'x, y, z'
loop_
 _atom_site_type_symbol
 _atom_site_label
 _atom_site_symmetry_multiplicity
 _atom_site_fract_x
 _atom_site_fract_y
 _atom_site_fract_z
 _atom_site_occupancy
  Lu  Lu0  1  0.503104  0.333519  0.333169  1
  Lu  Lu1  1  0.503098  0.666825  0.666529  1
  Lu  Lu2  1  0.996914  0.666842  0.666621  1
  Lu  Lu3  1  0.996894  0.333452  0.333219  1
  Lu  Lu4  1  0.749940  0.236609  0.763124  1
  Lu  Lu5  1  0.749955  0.763262  0.000138  1
  Lu  Lu6  1  0.749957  0.000111  0.236417  1
  Lu  Lu7  1  0.249966  0.764392  0.235585  1
  Lu  Lu8  1  0.249939  0.235721  0.999898  1
  Lu  Lu9  1  0.250000  0.000108  0.764190  1
  Tl  Tl10  1  0.750251  0.606140  0.393590  1
  Tl  Tl11  1  0.750131  0.393120  0.000864  1
  Tl  Tl12  1  0.749835  0.999481  0.607100  1
  Sb  Sb13  1  0.250016  0.395613  0.604362  1
  Sb  Sb14  1  0.250062  0.604622  0.999862  1
  Sb  Sb15  1  0.249942  0.000183  0.395329  1
