# generated using pymatgen
data_Hf3Zn3CoPd2
_symmetry_space_group_name_H-M   'P 1'
_cell_length_a   7.17027300
_cell_length_b   7.17027226
_cell_length_c   6.70885800
_cell_angle_alpha   90.00000000
_cell_angle_beta   90.00000000
_cell_angle_gamma   119.99999882
_symmetry_Int_Tables_number   1
_chemical_formula_structural   Hf3Zn3CoPd2
_chemical_formula_sum   'Hf6 Zn6 Co2 Pd4'
_cell_volume   298.71055861
_cell_formula_units_Z   2
loop_
 _symmetry_equiv_pos_site_id
 _symmetry_equiv_pos_as_xyz
  1  'x, y, z'
loop_
 _atom_site_type_symbol
 _atom_site_label
 _atom_site_symmetry_multiplicity
 _atom_site_fract_x
 _atom_site_fract_y
 _atom_site_fract_z
 _atom_site_occupancy
  Hf  Hf0  1  0.588169  0.608496  0.250000  1
  Hf  Hf1  1  0.025903  0.414578  0.750000  1
  Hf  Hf2  1  0.391504  0.979673  0.250000  1
  Hf  Hf3  1  0.020327  0.411831  0.250000  1
  Hf  Hf4  1  0.388675  0.974097  0.750000  1
  Hf  Hf5  1  0.585422  0.611325  0.750000  1
  Zn  Zn6  1  0.274115  0.275198  0.499790  1
  Zn  Zn7  1  0.724802  0.998917  0.499790  1
  Zn  Zn8  1  0.001083  0.725885  0.499790  1
  Zn  Zn9  1  0.724802  0.998917  0.000210  1
  Zn  Zn10  1  0.274115  0.275198  0.000210  1
  Zn  Zn11  1  0.001083  0.725885  0.000210  1
  Co  Co12  1  0.333333  0.666667  0.496296  1
  Co  Co13  1  0.333333  0.666667  0.003704  1
  Pd  Pd14  1  0.000000  0.000000  0.750000  1
  Pd  Pd15  1  0.000000  0.000000  0.250000  1
  Pd  Pd16  1  0.666667  0.333333  0.505379  1
  Pd  Pd17  1  0.666667  0.333333  0.994621  1
