# generated using pymatgen
data_Zr8Nb11Si16W
_symmetry_space_group_name_H-M   'P 1'
_cell_length_a   6.69720125
_cell_length_b   6.87767933
_cell_length_c   13.15024300
_cell_angle_alpha   90.00000000
_cell_angle_beta   90.00000000
_cell_angle_gamma   89.92594228
_symmetry_Int_Tables_number   1
_chemical_formula_structural   Zr8Nb11Si16W
_chemical_formula_sum   'Zr8 Nb11 Si16 W1'
_cell_volume   605.71550060
_cell_formula_units_Z   1
loop_
 _symmetry_equiv_pos_site_id
 _symmetry_equiv_pos_as_xyz
  1  'x, y, z'
loop_
 _atom_site_type_symbol
 _atom_site_label
 _atom_site_symmetry_multiplicity
 _atom_site_fract_x
 _atom_site_fract_y
 _atom_site_fract_z
 _atom_site_occupancy
  Zr  Zr0  1  0.498402  0.672992  0.594265  1
  Zr  Zr1  1  0.998283  0.827673  0.905710  1
  Zr  Zr2  1  0.501559  0.327448  0.094111  1
  Zr  Zr3  1  0.002693  0.172440  0.405622  1
  Zr  Zr4  1  0.501559  0.327448  0.405889  1
  Zr  Zr5  1  0.002693  0.172440  0.094378  1
  Zr  Zr6  1  0.498402  0.672992  0.905735  1
  Zr  Zr7  1  0.998283  0.827673  0.594290  1
  Nb  Nb8  1  0.664187  0.171083  0.622772  1
  Nb  Nb9  1  0.165391  0.328947  0.876305  1
  Nb  Nb10  1  0.334694  0.829389  0.124522  1
  Nb  Nb11  1  0.834726  0.669953  0.375513  1
  Nb  Nb12  1  0.334694  0.829389  0.375478  1
  Nb  Nb13  1  0.834726  0.669953  0.124487  1
  Nb  Nb14  1  0.664187  0.171083  0.877228  1
  Nb  Nb15  1  0.165391  0.328947  0.623695  1
  Nb  Nb16  1  0.838997  0.496559  0.750000  1
  Nb  Nb17  1  0.338314  0.003423  0.750000  1
  Nb  Nb18  1  0.160964  0.502195  0.250000  1
  Si  Si19  1  0.670021  0.963015  0.458979  1
  Si  Si20  1  0.169796  0.537079  0.039007  1
  Si  Si21  1  0.329935  0.036768  0.961634  1
  Si  Si22  1  0.830505  0.463157  0.538780  1
  Si  Si23  1  0.329935  0.036768  0.538366  1
  Si  Si24  1  0.830505  0.463157  0.961220  1
  Si  Si25  1  0.670021  0.963015  0.041021  1
  Si  Si26  1  0.169796  0.537079  0.460993  1
  Si  Si27  1  0.463596  0.385540  0.750000  1
  Si  Si28  1  0.962381  0.114468  0.750000  1
  Si  Si29  1  0.537838  0.616069  0.250000  1
  Si  Si30  1  0.032691  0.887880  0.250000  1
  Si  Si31  1  0.705449  0.863756  0.750000  1
  Si  Si32  1  0.205472  0.636686  0.750000  1
  Si  Si33  1  0.298773  0.135927  0.250000  1
  Si  Si34  1  0.793694  0.358724  0.250000  1
  W  W35  1  0.661451  0.998883  0.250000  1
