# generated using pymatgen
data_Er20Si15Os
_symmetry_space_group_name_H-M   'P 1'
_cell_length_a   7.31834693
_cell_length_b   7.68432274
_cell_length_c   14.42157700
_cell_angle_alpha   90.00000000
_cell_angle_beta   90.00000000
_cell_angle_gamma   90.07232125
_symmetry_Int_Tables_number   1
_chemical_formula_structural   Er20Si15Os
_chemical_formula_sum   'Er20 Si15 Os1'
_cell_volume   811.01894152
_cell_formula_units_Z   1
loop_
 _symmetry_equiv_pos_site_id
 _symmetry_equiv_pos_as_xyz
  1  'x, y, z'
loop_
 _atom_site_type_symbol
 _atom_site_label
 _atom_site_symmetry_multiplicity
 _atom_site_fract_x
 _atom_site_fract_y
 _atom_site_fract_z
 _atom_site_occupancy
  Er  Er0  1  0.023190  0.184862  0.097197  1
  Er  Er1  1  0.980799  0.828118  0.904200  1
  Er  Er2  1  0.478199  0.680671  0.904599  1
  Er  Er3  1  0.980799  0.828118  0.595800  1
  Er  Er4  1  0.522525  0.318219  0.096863  1
  Er  Er5  1  0.023190  0.184862  0.402803  1
  Er  Er6  1  0.522525  0.318219  0.403137  1
  Er  Er7  1  0.478199  0.680671  0.595401  1
  Er  Er8  1  0.149832  0.513714  0.750000  1
  Er  Er9  1  0.845903  0.488515  0.250000  1
  Er  Er10  1  0.346545  0.014924  0.250000  1
  Er  Er11  1  0.661444  0.985755  0.750000  1
  Er  Er12  1  0.310448  0.174561  0.626525  1
  Er  Er13  1  0.680175  0.823689  0.375853  1
  Er  Er14  1  0.178056  0.680772  0.376001  1
  Er  Er15  1  0.680175  0.823689  0.124147  1
  Er  Er16  1  0.832477  0.313041  0.626084  1
  Er  Er17  1  0.310448  0.174561  0.873475  1
  Er  Er18  1  0.832477  0.313041  0.873916  1
  Er  Er19  1  0.178056  0.680772  0.123999  1
  Si  Si20  1  0.975341  0.896620  0.250000  1
  Si  Si21  1  0.476923  0.606931  0.250000  1
  Si  Si22  1  0.523281  0.397456  0.750000  1
  Si  Si23  1  0.276152  0.864220  0.750000  1
  Si  Si24  1  0.725279  0.132344  0.250000  1
  Si  Si25  1  0.227311  0.370508  0.250000  1
  Si  Si26  1  0.763350  0.623456  0.750000  1
  Si  Si27  1  0.154288  0.473813  0.538345  1
  Si  Si28  1  0.848817  0.530294  0.461456  1
  Si  Si29  1  0.347979  0.971237  0.460331  1
  Si  Si30  1  0.848817  0.530294  0.038544  1
  Si  Si31  1  0.646053  0.029279  0.538797  1
  Si  Si32  1  0.154288  0.473813  0.961655  1
  Si  Si33  1  0.646053  0.029279  0.961203  1
  Si  Si34  1  0.347979  0.971237  0.039669  1
  Os  Os35  1  0.022624  0.088443  0.750000  1
