# generated using pymatgen
data_Ba2ThCu2Se3S2
_symmetry_space_group_name_H-M   'P 1'
_cell_length_a   4.25686424
_cell_length_b   7.31479653
_cell_length_c   9.43196274
_cell_angle_alpha   103.18343930
_cell_angle_beta   103.04179595
_cell_angle_gamma   106.91640832
_symmetry_Int_Tables_number   1
_chemical_formula_structural   Ba2ThCu2Se3S2
_chemical_formula_sum   'Ba2 Th1 Cu2 Se3 S2'
_cell_volume   259.78880996
_cell_formula_units_Z   1
loop_
 _symmetry_equiv_pos_site_id
 _symmetry_equiv_pos_as_xyz
  1  'x, y, z'
loop_
 _atom_site_type_symbol
 _atom_site_label
 _atom_site_symmetry_multiplicity
 _atom_site_fract_x
 _atom_site_fract_y
 _atom_site_fract_z
 _atom_site_occupancy
  Ba  Ba0  1  0.481283  0.649448  0.313119  1
  Ba  Ba1  1  0.519976  0.350809  0.689142  1
  Th  Th2  1  0.994269  0.990584  0.997954  1
  Cu  Cu3  1  0.748262  0.197331  0.299193  1
  Cu  Cu4  1  0.252817  0.800531  0.705104  1
  Se  Se5  1  0.683181  0.302477  0.063887  1
  Se  Se6  1  0.166655  0.015597  0.317714  1
  Se  Se7  1  0.831945  0.982014  0.681877  1
  S  S8  1  0.000209  0.499116  0.501302  1
  S  S9  1  0.321403  0.712096  0.930710  1
