# generated using pymatgen
data_Tb4Ho4Si12Ir3Pd
_symmetry_space_group_name_H-M   'P 1'
_cell_length_a   8.18526698
_cell_length_b   8.18526581
_cell_length_c   7.92594800
_cell_angle_alpha   90.00078136
_cell_angle_beta   89.99921754
_cell_angle_gamma   120.05599585
_symmetry_Int_Tables_number   1
_chemical_formula_structural   Tb4Ho4Si12Ir3Pd
_chemical_formula_sum   'Tb4 Ho4 Si12 Ir3 Pd1'
_cell_volume   459.62342954
_cell_formula_units_Z   1
loop_
 _symmetry_equiv_pos_site_id
 _symmetry_equiv_pos_as_xyz
  1  'x, y, z'
loop_
 _atom_site_type_symbol
 _atom_site_label
 _atom_site_symmetry_multiplicity
 _atom_site_fract_x
 _atom_site_fract_y
 _atom_site_fract_z
 _atom_site_occupancy
  Tb  Tb0  1  0.511347  0.488653  0.247125  1
  Tb  Tb1  1  0.491478  0.508522  0.751953  1
  Tb  Tb2  1  0.999963  0.000037  0.251941  1
  Tb  Tb3  1  0.000033  0.999967  0.750593  1
  Ho  Ho4  1  0.511329  0.022476  0.246800  1
  Ho  Ho5  1  0.491761  0.983771  0.752290  1
  Ho  Ho6  1  0.977524  0.488671  0.246800  1
  Ho  Ho7  1  0.016229  0.508239  0.752290  1
  Si  Si8  1  0.166347  0.333666  0.003008  1
  Si  Si9  1  0.834039  0.667181  0.997945  1
  Si  Si10  1  0.666334  0.833653  0.003008  1
  Si  Si11  1  0.832952  0.664944  0.499565  1
  Si  Si12  1  0.332819  0.165961  0.997945  1
  Si  Si13  1  0.164469  0.329751  0.501945  1
  Si  Si14  1  0.166855  0.833145  0.002744  1
  Si  Si15  1  0.335056  0.167048  0.499565  1
  Si  Si16  1  0.833571  0.166429  0.998236  1
  Si  Si17  1  0.670249  0.835531  0.501945  1
  Si  Si18  1  0.832458  0.167542  0.499238  1
  Si  Si19  1  0.165028  0.834972  0.502209  1
  Ir  Ir20  1  0.332782  0.667218  0.027702  1
  Ir  Ir21  1  0.667265  0.332735  0.966335  1
  Ir  Ir22  1  0.667314  0.332686  0.537615  1
  Pd  Pd23  1  0.332798  0.667202  0.461201  1
