# generated using pymatgen
data_Y3Al12Ir3Os
_symmetry_space_group_name_H-M   'P 1'
_cell_length_a   8.84317000
_cell_length_b   8.84317098
_cell_length_c   9.50207100
_cell_angle_alpha   90.00000000
_cell_angle_beta   90.00000000
_cell_angle_gamma   119.99999634
_symmetry_Int_Tables_number   1
_chemical_formula_structural   Y3Al12Ir3Os
_chemical_formula_sum   'Y6 Al24 Ir6 Os2'
_cell_volume   643.52424654
_cell_formula_units_Z   2
loop_
 _symmetry_equiv_pos_site_id
 _symmetry_equiv_pos_as_xyz
  1  'x, y, z'
loop_
 _atom_site_type_symbol
 _atom_site_label
 _atom_site_symmetry_multiplicity
 _atom_site_fract_x
 _atom_site_fract_y
 _atom_site_fract_z
 _atom_site_occupancy
  Y  Y0  1  0.190889  0.381778  0.250000  1
  Y  Y1  1  0.809111  0.618222  0.750000  1
  Y  Y2  1  0.618222  0.809111  0.250000  1
  Y  Y3  1  0.381778  0.190889  0.750000  1
  Y  Y4  1  0.190889  0.809111  0.250000  1
  Y  Y5  1  0.809111  0.190889  0.750000  1
  Al  Al6  1  0.333333  0.666667  0.031992  1
  Al  Al7  1  0.666667  0.333333  0.968008  1
  Al  Al8  1  0.666667  0.333333  0.531992  1
  Al  Al9  1  0.333333  0.666667  0.468008  1
  Al  Al10  1  0.163943  0.327886  0.574223  1
  Al  Al11  1  0.836057  0.672114  0.425777  1
  Al  Al12  1  0.672114  0.836057  0.574223  1
  Al  Al13  1  0.836057  0.672114  0.074223  1
  Al  Al14  1  0.327886  0.163943  0.425777  1
  Al  Al15  1  0.163943  0.327886  0.925777  1
  Al  Al16  1  0.163943  0.836057  0.574223  1
  Al  Al17  1  0.327886  0.163943  0.074223  1
  Al  Al18  1  0.836057  0.163943  0.425777  1
  Al  Al19  1  0.672114  0.836057  0.925777  1
  Al  Al20  1  0.836057  0.163943  0.074223  1
  Al  Al21  1  0.163943  0.836057  0.925777  1
  Al  Al22  1  0.561892  0.123784  0.250000  1
  Al  Al23  1  0.438108  0.876216  0.750000  1
  Al  Al24  1  0.876216  0.438108  0.250000  1
  Al  Al25  1  0.123784  0.561892  0.750000  1
  Al  Al26  1  0.561892  0.438108  0.250000  1
  Al  Al27  1  0.438108  0.561892  0.750000  1
  Al  Al28  1  0.000000  0.000000  0.250000  1
  Al  Al29  1  0.000000  0.000000  0.750000  1
  Ir  Ir30  1  0.500000  0.000000  0.000000  1
  Ir  Ir31  1  0.000000  0.500000  0.000000  1
  Ir  Ir32  1  0.500000  0.000000  0.500000  1
  Ir  Ir33  1  0.500000  0.500000  0.000000  1
  Ir  Ir34  1  0.000000  0.500000  0.500000  1
  Ir  Ir35  1  0.500000  0.500000  0.500000  1
  Os  Os36  1  0.000000  0.000000  0.000000  1
  Os  Os37  1  0.000000  0.000000  0.500000  1
