# generated using pymatgen
data_NbZn6ReN8
_symmetry_space_group_name_H-M   'P 1'
_cell_length_a   6.62632700
_cell_length_b   5.72602139
_cell_length_c   5.38927736
_cell_angle_alpha   90.04210895
_cell_angle_beta   90.00000000
_cell_angle_gamma   90.00000000
_symmetry_Int_Tables_number   1
_chemical_formula_structural   NbZn6ReN8
_chemical_formula_sum   'Nb1 Zn6 Re1 N8'
_cell_volume   204.48254789
_cell_formula_units_Z   1
loop_
 _symmetry_equiv_pos_site_id
 _symmetry_equiv_pos_as_xyz
  1  'x, y, z'
loop_
 _atom_site_type_symbol
 _atom_site_label
 _atom_site_symmetry_multiplicity
 _atom_site_fract_x
 _atom_site_fract_y
 _atom_site_fract_z
 _atom_site_occupancy
  Nb  Nb0  1  0.000000  0.668635  0.230850  1
  Zn  Zn1  1  0.245763  0.830399  0.738095  1
  Zn  Zn2  1  0.243075  0.163204  0.224139  1
  Zn  Zn3  1  0.754237  0.830399  0.738095  1
  Zn  Zn4  1  0.756925  0.163204  0.224139  1
  Zn  Zn5  1  0.000000  0.343982  0.735650  1
  Zn  Zn6  1  0.500000  0.677561  0.225481  1
  Re  Re7  1  0.500000  0.328878  0.725662  1
  N  N8  1  0.754536  0.830041  0.112876  1
  N  N9  1  0.729669  0.176723  0.612923  1
  N  N10  1  0.245464  0.830041  0.112876  1
  N  N11  1  0.270331  0.176723  0.612923  1
  N  N12  1  0.000000  0.343919  0.111380  1
  N  N13  1  0.500000  0.633469  0.613923  1
  N  N14  1  0.000000  0.673139  0.594032  1
  N  N15  1  0.500000  0.329683  0.065474  1
