# generated using pymatgen
data_KLiGdTaO5
_symmetry_space_group_name_H-M   'P 1'
_cell_length_a   5.64740500
_cell_length_b   5.64740500
_cell_length_c   8.12928000
_cell_angle_alpha   90.00000000
_cell_angle_beta   90.00000000
_cell_angle_gamma   90.00000000
_symmetry_Int_Tables_number   1
_chemical_formula_structural   KLiGdTaO5
_chemical_formula_sum   'K2 Li2 Gd2 Ta2 O10'
_cell_volume   259.26861660
_cell_formula_units_Z   2
loop_
 _symmetry_equiv_pos_site_id
 _symmetry_equiv_pos_as_xyz
  1  'x, y, z'
loop_
 _atom_site_type_symbol
 _atom_site_label
 _atom_site_symmetry_multiplicity
 _atom_site_fract_x
 _atom_site_fract_y
 _atom_site_fract_z
 _atom_site_occupancy
  K  K0  1  0.000000  0.000000  0.000000  1
  K  K1  1  0.500000  0.500000  0.000000  1
  Li  Li2  1  0.000000  0.500000  0.244667  1
  Li  Li3  1  0.500000  0.000000  0.755333  1
  Gd  Gd4  1  0.000000  0.000000  0.500000  1
  Gd  Gd5  1  0.500000  0.500000  0.500000  1
  Ta  Ta6  1  0.500000  0.000000  0.253379  1
  Ta  Ta7  1  0.000000  0.500000  0.746621  1
  O  O8  1  0.500000  0.000000  0.024115  1
  O  O9  1  0.263122  0.763122  0.325651  1
  O  O10  1  0.736878  0.763122  0.325651  1
  O  O11  1  0.263122  0.236878  0.325651  1
  O  O12  1  0.736878  0.236878  0.325651  1
  O  O13  1  0.763122  0.263122  0.674349  1
  O  O14  1  0.236878  0.263122  0.674349  1
  O  O15  1  0.763122  0.736878  0.674349  1
  O  O16  1  0.236878  0.736878  0.674349  1
  O  O17  1  0.000000  0.500000  0.975885  1
