# generated using pymatgen
data_Y2Al2IrPt
_symmetry_space_group_name_H-M   'P 1'
_cell_length_a   4.38674200
_cell_length_b   6.83010200
_cell_length_c   7.84106400
_cell_angle_alpha   90.00000000
_cell_angle_beta   90.00000000
_cell_angle_gamma   90.00000000
_symmetry_Int_Tables_number   1
_chemical_formula_structural   Y2Al2IrPt
_chemical_formula_sum   'Y4 Al4 Ir2 Pt2'
_cell_volume   234.93313867
_cell_formula_units_Z   2
loop_
 _symmetry_equiv_pos_site_id
 _symmetry_equiv_pos_as_xyz
  1  'x, y, z'
loop_
 _atom_site_type_symbol
 _atom_site_label
 _atom_site_symmetry_multiplicity
 _atom_site_fract_x
 _atom_site_fract_y
 _atom_site_fract_z
 _atom_site_occupancy
  Y  Y0  1  0.250000  0.030486  0.679402  1
  Y  Y1  1  0.250000  0.530486  0.820598  1
  Y  Y2  1  0.750000  0.975352  0.316754  1
  Y  Y3  1  0.750000  0.475352  0.183246  1
  Al  Al4  1  0.250000  0.141578  0.065075  1
  Al  Al5  1  0.250000  0.641578  0.434925  1
  Al  Al6  1  0.750000  0.855126  0.939081  1
  Al  Al7  1  0.750000  0.355126  0.560919  1
  Ir  Ir8  1  0.250000  0.269721  0.383591  1
  Ir  Ir9  1  0.250000  0.769721  0.116409  1
  Pt  Pt10  1  0.750000  0.727737  0.618410  1
  Pt  Pt11  1  0.750000  0.227737  0.881590  1
