# generated using pymatgen
data_Nd6Al24Os5Pd3
_symmetry_space_group_name_H-M   'P 1'
_cell_length_a   8.93800919
_cell_length_b   8.92459434
_cell_length_c   9.69726849
_cell_angle_alpha   90.11344477
_cell_angle_beta   89.90303867
_cell_angle_gamma   119.38163926
_symmetry_Int_Tables_number   1
_chemical_formula_structural   Nd6Al24Os5Pd3
_chemical_formula_sum   'Nd6 Al24 Os5 Pd3'
_cell_volume   674.03250989
_cell_formula_units_Z   1
loop_
 _symmetry_equiv_pos_site_id
 _symmetry_equiv_pos_as_xyz
  1  'x, y, z'
loop_
 _atom_site_type_symbol
 _atom_site_label
 _atom_site_symmetry_multiplicity
 _atom_site_fract_x
 _atom_site_fract_y
 _atom_site_fract_z
 _atom_site_occupancy
  Nd  Nd0  1  0.186503  0.382817  0.251964  1
  Nd  Nd1  1  0.813497  0.617183  0.748036  1
  Nd  Nd2  1  0.619901  0.812038  0.249484  1
  Nd  Nd3  1  0.380099  0.187962  0.750516  1
  Nd  Nd4  1  0.189134  0.808380  0.249745  1
  Nd  Nd5  1  0.810866  0.191620  0.750255  1
  Al  Al6  1  0.328240  0.664795  0.023282  1
  Al  Al7  1  0.671760  0.335205  0.976718  1
  Al  Al8  1  0.669129  0.329853  0.523710  1
  Al  Al9  1  0.330871  0.670147  0.476290  1
  Al  Al10  1  0.157841  0.326111  0.574160  1
  Al  Al11  1  0.842159  0.673889  0.425840  1
  Al  Al12  1  0.674127  0.842831  0.572183  1
  Al  Al13  1  0.842410  0.674278  0.074533  1
  Al  Al14  1  0.325873  0.157169  0.427817  1
  Al  Al15  1  0.157590  0.325722  0.925467  1
  Al  Al16  1  0.165085  0.835785  0.574509  1
  Al  Al17  1  0.324044  0.163681  0.076521  1
  Al  Al18  1  0.834915  0.164215  0.425491  1
  Al  Al19  1  0.675956  0.836319  0.923479  1
  Al  Al20  1  0.841980  0.169201  0.077912  1
  Al  Al21  1  0.158020  0.830799  0.922088  1
  Al  Al22  1  0.563440  0.127242  0.253336  1
  Al  Al23  1  0.436560  0.872758  0.746664  1
  Al  Al24  1  0.873923  0.438507  0.249986  1
  Al  Al25  1  0.126077  0.561493  0.750014  1
  Al  Al26  1  0.564244  0.436644  0.249869  1
  Al  Al27  1  0.435756  0.563356  0.750131  1
  Al  Al28  1  0.995654  0.002271  0.250215  1
  Al  Al29  1  0.004346  0.997729  0.749785  1
  Os  Os30  1  0.000000  0.500000  0.000000  1
  Os  Os31  1  0.500000  0.000000  0.500000  1
  Os  Os32  1  0.000000  0.500000  0.500000  1
  Os  Os33  1  0.000000  0.000000  0.000000  1
  Os  Os34  1  0.000000  0.000000  0.500000  1
  Pd  Pd35  1  0.500000  0.000000  0.000000  1
  Pd  Pd36  1  0.500000  0.500000  0.000000  1
  Pd  Pd37  1  0.500000  0.500000  0.500000  1
