# generated using pymatgen
data_YbDy2Ho3(CoSn6)2
_symmetry_space_group_name_H-M   'P 1'
_cell_length_a   8.44619909
_cell_length_b   8.44619940
_cell_length_c   13.10410407
_cell_angle_alpha   90.02272980
_cell_angle_beta   89.97727098
_cell_angle_gamma   148.51140584
_symmetry_Int_Tables_number   1
_chemical_formula_structural   YbDy2Ho3(CoSn6)2
_chemical_formula_sum   'Yb1 Dy2 Ho3 Co2 Sn12'
_cell_volume   488.28561474
_cell_formula_units_Z   1
loop_
 _symmetry_equiv_pos_site_id
 _symmetry_equiv_pos_as_xyz
  1  'x, y, z'
loop_
 _atom_site_type_symbol
 _atom_site_label
 _atom_site_symmetry_multiplicity
 _atom_site_fract_x
 _atom_site_fract_y
 _atom_site_fract_z
 _atom_site_occupancy
  Yb  Yb0  1  0.899356  0.100644  0.403283  1
  Dy  Dy1  1  0.898495  0.101505  0.094280  1
  Dy  Dy2  1  0.101515  0.898485  0.595278  1
  Ho  Ho3  1  0.900959  0.099041  0.752211  1
  Ho  Ho4  1  0.100909  0.899091  0.905969  1
  Ho  Ho5  1  0.099483  0.900517  0.248969  1
  Co  Co6  1  0.298970  0.701030  0.250155  1
  Co  Co7  1  0.700031  0.299969  0.749692  1
  Sn  Sn8  1  0.757741  0.242259  0.572061  1
  Sn  Sn9  1  0.428148  0.571852  0.576925  1
  Sn  Sn10  1  0.573000  0.427000  0.424142  1
  Sn  Sn11  1  0.733613  0.266387  0.248986  1
  Sn  Sn12  1  0.265846  0.734154  0.750419  1
  Sn  Sn13  1  0.243250  0.756750  0.071265  1
  Sn  Sn14  1  0.243349  0.756651  0.428801  1
  Sn  Sn15  1  0.572347  0.427653  0.074805  1
  Sn  Sn16  1  0.454411  0.545589  0.248018  1
  Sn  Sn17  1  0.545729  0.454271  0.750845  1
  Sn  Sn18  1  0.756313  0.243687  0.928327  1
  Sn  Sn19  1  0.426536  0.573464  0.925567  1
