# generated using pymatgen
data_Sm2Y4(NiRh5)3
_symmetry_space_group_name_H-M   'P 1'
_cell_length_a   5.30003500
_cell_length_b   5.30003566
_cell_length_c   17.02574200
_cell_angle_alpha   90.00000000
_cell_angle_beta   90.00000000
_cell_angle_gamma   119.99998965
_symmetry_Int_Tables_number   1
_chemical_formula_structural   Sm2Y4(NiRh5)3
_chemical_formula_sum   'Sm2 Y4 Ni3 Rh15'
_cell_volume   414.18489276
_cell_formula_units_Z   1
loop_
 _symmetry_equiv_pos_site_id
 _symmetry_equiv_pos_as_xyz
  1  'x, y, z'
loop_
 _atom_site_type_symbol
 _atom_site_label
 _atom_site_symmetry_multiplicity
 _atom_site_fract_x
 _atom_site_fract_y
 _atom_site_fract_z
 _atom_site_occupancy
  Sm  Sm0  1  0.333333  0.666667  0.750000  1
  Sm  Sm1  1  0.666667  0.333333  0.250000  1
  Y  Y2  1  0.333333  0.666667  0.960156  1
  Y  Y3  1  0.666667  0.333333  0.043491  1
  Y  Y4  1  0.666667  0.333333  0.456509  1
  Y  Y5  1  0.333333  0.666667  0.539844  1
  Ni  Ni6  1  0.333333  0.666667  0.250000  1
  Ni  Ni7  1  0.666667  0.333333  0.750000  1
  Ni  Ni8  1  0.000000  0.000000  0.250000  1
  Rh  Rh9  1  0.167495  0.832505  0.369009  1
  Rh  Rh10  1  0.167495  0.334989  0.369009  1
  Rh  Rh11  1  0.665011  0.832505  0.369009  1
  Rh  Rh12  1  0.831581  0.168419  0.626559  1
  Rh  Rh13  1  0.831581  0.663164  0.626559  1
  Rh  Rh14  1  0.336836  0.168419  0.626559  1
  Rh  Rh15  1  0.831581  0.168419  0.873441  1
  Rh  Rh16  1  0.831581  0.663164  0.873441  1
  Rh  Rh17  1  0.336836  0.168419  0.873441  1
  Rh  Rh18  1  0.167495  0.832505  0.130991  1
  Rh  Rh19  1  0.167495  0.334989  0.130991  1
  Rh  Rh20  1  0.665011  0.832505  0.130991  1
  Rh  Rh21  1  0.000000  0.000000  0.750000  1
  Rh  Rh22  1  0.000000  0.000000  0.497456  1
  Rh  Rh23  1  0.000000  0.000000  0.002544  1
