# generated using pymatgen
data_Ti5Co16Si7Rh
_symmetry_space_group_name_H-M   'P 1'
_cell_length_a   7.85358961
_cell_length_b   7.85571690
_cell_length_c   7.85571729
_cell_angle_alpha   59.98208135
_cell_angle_beta   60.00895560
_cell_angle_gamma   60.00896347
_symmetry_Int_Tables_number   1
_chemical_formula_structural   Ti5Co16Si7Rh
_chemical_formula_sum   'Ti5 Co16 Si7 Rh1'
_cell_volume   342.70845047
_cell_formula_units_Z   1
loop_
 _symmetry_equiv_pos_site_id
 _symmetry_equiv_pos_as_xyz
  1  'x, y, z'
loop_
 _atom_site_type_symbol
 _atom_site_label
 _atom_site_symmetry_multiplicity
 _atom_site_fract_x
 _atom_site_fract_y
 _atom_site_fract_z
 _atom_site_occupancy
  Ti  Ti0  1  0.800915  0.792374  0.199085  1
  Ti  Ti1  1  0.787851  0.212149  0.212149  1
  Ti  Ti2  1  0.207626  0.199085  0.792374  1
  Ti  Ti3  1  0.800915  0.199085  0.792374  1
  Ti  Ti4  1  0.207626  0.792374  0.199085  1
  Co  Co5  1  0.620187  0.616605  0.143020  1
  Co  Co6  1  0.167063  0.489326  0.176546  1
  Co  Co7  1  0.856980  0.379813  0.379813  1
  Co  Co8  1  0.510674  0.832937  0.832937  1
  Co  Co9  1  0.511994  0.164256  0.164256  1
  Co  Co10  1  0.835744  0.840507  0.488006  1
  Co  Co11  1  0.167063  0.176546  0.489326  1
  Co  Co12  1  0.144339  0.618775  0.618775  1
  Co  Co13  1  0.159493  0.164256  0.164256  1
  Co  Co14  1  0.381225  0.381888  0.855661  1
  Co  Co15  1  0.618112  0.618775  0.618775  1
  Co  Co16  1  0.381225  0.855661  0.381888  1
  Co  Co17  1  0.383395  0.379813  0.379813  1
  Co  Co18  1  0.823454  0.832937  0.832937  1
  Co  Co19  1  0.620187  0.143020  0.616605  1
  Co  Co20  1  0.835744  0.488006  0.840507  1
  Si  Si21  1  0.493652  0.993423  0.506348  1
  Si  Si22  1  0.493652  0.506348  0.993423  1
  Si  Si23  1  0.501258  0.498742  0.498742  1
  Si  Si24  1  0.006577  0.993423  0.506348  1
  Si  Si25  1  0.006577  0.506348  0.993423  1
  Si  Si26  1  0.996022  0.503978  0.503978  1
  Si  Si27  1  0.496022  0.003978  0.003978  1
  Rh  Rh28  1  0.184428  0.815572  0.815572  1
