# generated using pymatgen
data_Tb5TmAl24(NiOs3)2
_symmetry_space_group_name_H-M   'P 1'
_cell_length_a   8.88297008
_cell_length_b   8.77079040
_cell_length_c   9.52678700
_cell_angle_alpha   90.00000000
_cell_angle_beta   90.00000000
_cell_angle_gamma   120.43914815
_symmetry_Int_Tables_number   1
_chemical_formula_structural   Tb5TmAl24(NiOs3)2
_chemical_formula_sum   'Tb5 Tm1 Al24 Ni2 Os6'
_cell_volume   639.93393700
_cell_formula_units_Z   1
loop_
 _symmetry_equiv_pos_site_id
 _symmetry_equiv_pos_as_xyz
  1  'x, y, z'
loop_
 _atom_site_type_symbol
 _atom_site_label
 _atom_site_symmetry_multiplicity
 _atom_site_fract_x
 _atom_site_fract_y
 _atom_site_fract_z
 _atom_site_occupancy
  Tb  Tb0  1  0.194522  0.388352  0.250000  1
  Tb  Tb1  1  0.805958  0.611092  0.750000  1
  Tb  Tb2  1  0.615493  0.798546  0.250000  1
  Tb  Tb3  1  0.384132  0.201095  0.750000  1
  Tb  Tb4  1  0.183342  0.798264  0.250000  1
  Tm  Tm5  1  0.816644  0.205141  0.750000  1
  Al  Al6  1  0.335474  0.670501  0.020783  1
  Al  Al7  1  0.664574  0.328823  0.978037  1
  Al  Al8  1  0.664574  0.328823  0.521963  1
  Al  Al9  1  0.335474  0.670501  0.479217  1
  Al  Al10  1  0.164771  0.329812  0.574362  1
  Al  Al11  1  0.834633  0.669320  0.426361  1
  Al  Al12  1  0.673401  0.838620  0.576387  1
  Al  Al13  1  0.834633  0.669320  0.073639  1
  Al  Al14  1  0.327091  0.162178  0.424260  1
  Al  Al15  1  0.164771  0.329812  0.925638  1
  Al  Al16  1  0.164916  0.837834  0.575871  1
  Al  Al17  1  0.327091  0.162178  0.075740  1
  Al  Al18  1  0.835181  0.161844  0.425410  1
  Al  Al19  1  0.673401  0.838620  0.923613  1
  Al  Al20  1  0.835181  0.161844  0.074590  1
  Al  Al21  1  0.164916  0.837834  0.924129  1
  Al  Al22  1  0.556952  0.113248  0.250000  1
  Al  Al23  1  0.445094  0.888534  0.750000  1
  Al  Al24  1  0.872166  0.432512  0.250000  1
  Al  Al25  1  0.127817  0.566529  0.750000  1
  Al  Al26  1  0.560970  0.432732  0.250000  1
  Al  Al27  1  0.439339  0.567243  0.750000  1
  Al  Al28  1  0.998133  0.995930  0.250000  1
  Al  Al29  1  0.000128  0.005152  0.750000  1
  Ni  Ni30  1  0.499847  0.000279  0.000247  1
  Ni  Ni31  1  0.499847  0.000279  0.499753  1
  Os  Os32  1  0.999511  0.498982  0.999209  1
  Os  Os33  1  0.500213  0.499958  0.999820  1
  Os  Os34  1  0.999511  0.498982  0.500791  1
  Os  Os35  1  0.500213  0.499958  0.500180  1
  Os  Os36  1  0.000042  0.999666  0.999916  1
  Os  Os37  1  0.000042  0.999666  0.500084  1
