# generated using pymatgen
data_InBr35
_symmetry_space_group_name_H-M   'P 1'
_cell_length_a   15.98197694
_cell_length_b   11.40028128
_cell_length_c   10.79188300
_cell_angle_alpha   88.81408278
_cell_angle_beta   66.02770512
_cell_angle_gamma   92.31545406
_symmetry_Int_Tables_number   1
_chemical_formula_structural   InBr35
_chemical_formula_sum   'In1 Br35'
_cell_volume   1793.71352310
_cell_formula_units_Z   1
loop_
 _symmetry_equiv_pos_site_id
 _symmetry_equiv_pos_as_xyz
  1  'x, y, z'
loop_
 _atom_site_type_symbol
 _atom_site_label
 _atom_site_symmetry_multiplicity
 _atom_site_fract_x
 _atom_site_fract_y
 _atom_site_fract_z
 _atom_site_occupancy
  In  In0  1  0.210534  0.357821  0.456414  1
  Br  Br1  1  0.501308  0.313149  0.542758  1
  Br  Br2  1  0.737711  0.574485  0.590685  1
  Br  Br3  1  0.479610  0.715344  0.780488  1
  Br  Br4  1  0.068960  0.849444  0.789820  1
  Br  Br5  1  0.895725  0.143502  0.032184  1
  Br  Br6  1  0.624024  0.348584  0.297490  1
  Br  Br7  1  0.618324  0.316612  0.859080  1
  Br  Br8  1  0.350648  0.823983  0.751936  1
  Br  Br9  1  0.358068  0.575617  0.169619  1
  Br  Br10  1  0.665417  0.120628  0.809323  1
  Br  Br11  1  0.880850  0.549380  0.380551  1
  Br  Br12  1  0.069308  0.900804  0.558556  1
  Br  Br13  1  0.896902  0.114846  0.273182  1
  Br  Br14  1  0.890770  0.179296  0.808086  1
  Br  Br15  1  0.639966  0.073717  0.265360  1
  Br  Br16  1  0.045737  0.812582  0.041891  1
  Br  Br17  1  0.370635  0.042357  0.771084  1
  Br  Br18  1  0.885698  0.329093  0.332973  1
  Br  Br19  1  0.884429  0.898433  0.655746  1
  Br  Br20  1  0.882209  0.625143  0.806770  1
  Br  Br21  1  0.346433  0.021169  0.191902  1
  Br  Br22  1  0.337522  0.315775  0.220316  1
  Br  Br23  1  0.598493  0.596661  0.819300  1
  Br  Br24  1  0.088029  0.466085  0.429128  1
  Br  Br25  1  0.717116  0.891241  0.758090  1
  Br  Br26  1  0.873141  0.415714  0.815468  1
  Br  Br27  1  0.499120  0.044122  0.230450  1
  Br  Br28  1  0.186307  0.187601  0.616196  1
  Br  Br29  1  0.694592  0.795144  0.254016  1
  Br  Br30  1  0.865698  0.803823  0.151095  1
  Br  Br31  1  0.384180  0.267482  0.783340  1
  Br  Br32  1  0.288820  0.515147  0.579545  1
  Br  Br33  1  0.654578  0.567256  0.274202  1
  Br  Br34  1  0.177206  0.664681  0.681322  1
  Br  Br35  1  0.331931  0.783280  0.221636  1
