# generated using pymatgen
data_Ta3Ti9(VP4)2
_symmetry_space_group_name_H-M   'P 1'
_cell_length_a   7.49392762
_cell_length_b   7.49392613
_cell_length_c   13.55417649
_cell_angle_alpha   76.32290330
_cell_angle_beta   76.32290614
_cell_angle_gamma   25.99303865
_symmetry_Int_Tables_number   1
_chemical_formula_structural   Ta3Ti9(VP4)2
_chemical_formula_sum   'Ta3 Ti9 V2 P8'
_cell_volume   323.62848428
_cell_formula_units_Z   1
loop_
 _symmetry_equiv_pos_site_id
 _symmetry_equiv_pos_as_xyz
  1  'x, y, z'
loop_
 _atom_site_type_symbol
 _atom_site_label
 _atom_site_symmetry_multiplicity
 _atom_site_fract_x
 _atom_site_fract_y
 _atom_site_fract_z
 _atom_site_occupancy
  Ta  Ta0  1  0.500000  0.500000  0.500000  1
  Ta  Ta1  1  0.425327  0.425327  0.177660  1
  Ta  Ta2  1  0.574673  0.574673  0.822340  1
  Ti  Ti3  1  0.000000  0.000000  0.000000  1
  Ti  Ti4  1  0.208029  0.208029  0.208513  1
  Ti  Ti5  1  0.791971  0.791971  0.791487  1
  Ti  Ti6  1  0.339289  0.339289  0.969351  1
  Ti  Ti7  1  0.660711  0.660711  0.030649  1
  Ti  Ti8  1  0.003357  0.003357  0.335392  1
  Ti  Ti9  1  0.996643  0.996643  0.664608  1
  Ti  Ti10  1  0.178385  0.178385  0.459921  1
  Ti  Ti11  1  0.821615  0.821615  0.540079  1
  V  V12  1  0.198242  0.198242  0.689938  1
  V  V13  1  0.801758  0.801758  0.310062  1
  P  P14  1  0.179259  0.179259  0.890012  1
  P  P15  1  0.820741  0.820741  0.109988  1
  P  P16  1  0.370992  0.370992  0.391907  1
  P  P17  1  0.629008  0.629008  0.608093  1
  P  P18  1  0.367620  0.367620  0.659979  1
  P  P19  1  0.632380  0.632380  0.340021  1
  P  P20  1  0.063310  0.063310  0.151288  1
  P  P21  1  0.936690  0.936690  0.848712  1
