# generated using pymatgen
data_Nd3Y2(RhO6)2
_symmetry_space_group_name_H-M   'P 1'
_cell_length_a   7.01917143
_cell_length_b   7.01917061
_cell_length_c   7.48041015
_cell_angle_alpha   73.99554049
_cell_angle_beta   73.99554364
_cell_angle_gamma   50.90285140
_symmetry_Int_Tables_number   1
_chemical_formula_structural   Nd3Y2(RhO6)2
_chemical_formula_sum   'Nd3 Y2 Rh2 O12'
_cell_volume   272.36381456
_cell_formula_units_Z   1
loop_
 _symmetry_equiv_pos_site_id
 _symmetry_equiv_pos_as_xyz
  1  'x, y, z'
loop_
 _atom_site_type_symbol
 _atom_site_label
 _atom_site_symmetry_multiplicity
 _atom_site_fract_x
 _atom_site_fract_y
 _atom_site_fract_z
 _atom_site_occupancy
  Nd  Nd0  1  0.500000  0.500000  0.500000  1
  Nd  Nd1  1  0.192200  0.192200  0.170563  1
  Nd  Nd2  1  0.807800  0.807800  0.829437  1
  Y  Y3  1  0.803081  0.803081  0.360863  1
  Y  Y4  1  0.196919  0.196919  0.639137  1
  Rh  Rh5  1  0.747179  0.252821  0.000000  1
  Rh  Rh6  1  0.252821  0.747179  0.000000  1
  O  O7  1  0.997327  0.997327  0.185793  1
  O  O8  1  0.002673  0.002673  0.814207  1
  O  O9  1  0.498042  0.498042  0.825435  1
  O  O10  1  0.501958  0.501958  0.174565  1
  O  O11  1  0.593117  0.095147  0.569364  1
  O  O12  1  0.904853  0.406883  0.430636  1
  O  O13  1  0.406883  0.904853  0.430636  1
  O  O14  1  0.395861  0.930347  0.912589  1
  O  O15  1  0.069653  0.604139  0.087411  1
  O  O16  1  0.604139  0.069653  0.087411  1
  O  O17  1  0.930347  0.395861  0.912589  1
  O  O18  1  0.095147  0.593117  0.569364  1
