# generated using pymatgen
data_Dy5Ho11Cd2(Ni2Ag)2
_symmetry_space_group_name_H-M   'P 1'
_cell_length_a   9.46239596
_cell_length_b   9.46281139
_cell_length_c   9.44867400
_cell_angle_alpha   60.04814301
_cell_angle_beta   60.05073281
_cell_angle_gamma   60.04292375
_symmetry_Int_Tables_number   1
_chemical_formula_structural   Dy5Ho11Cd2(Ni2Ag)2
_chemical_formula_sum   'Dy5 Ho11 Cd2 Ni4 Ag2'
_cell_volume   598.88328029
_cell_formula_units_Z   1
loop_
 _symmetry_equiv_pos_site_id
 _symmetry_equiv_pos_as_xyz
  1  'x, y, z'
loop_
 _atom_site_type_symbol
 _atom_site_label
 _atom_site_symmetry_multiplicity
 _atom_site_fract_x
 _atom_site_fract_y
 _atom_site_fract_z
 _atom_site_occupancy
  Dy  Dy0  1  0.348646  0.348812  0.348273  1
  Dy  Dy1  1  0.348780  0.348793  0.954203  1
  Dy  Dy2  1  0.351124  0.949441  0.349731  1
  Dy  Dy3  1  0.949478  0.351131  0.349777  1
  Dy  Dy4  1  0.811616  0.188694  0.189433  1
  Ho  Ho5  1  0.188656  0.811623  0.810293  1
  Ho  Ho6  1  0.188756  0.811502  0.189436  1
  Ho  Ho7  1  0.811642  0.188677  0.810159  1
  Ho  Ho8  1  0.189480  0.189379  0.810493  1
  Ho  Ho9  1  0.811667  0.811539  0.188348  1
  Ho  Ho10  1  0.932899  0.563585  0.564920  1
  Ho  Ho11  1  0.563596  0.932878  0.938591  1
  Ho  Ho12  1  0.563516  0.932869  0.564995  1
  Ho  Ho13  1  0.932931  0.563655  0.938547  1
  Ho  Ho14  1  0.563351  0.563494  0.936548  1
  Ho  Ho15  1  0.935713  0.935609  0.564392  1
  Cd  Cd16  1  0.581688  0.258983  0.579715  1
  Cd  Cd17  1  0.258961  0.581732  0.579653  1
  Ni  Ni18  1  0.142994  0.142874  0.143263  1
  Ni  Ni19  1  0.142879  0.142864  0.571011  1
  Ni  Ni20  1  0.142029  0.572501  0.142740  1
  Ni  Ni21  1  0.572363  0.142038  0.142742  1
  Ag  Ag22  1  0.583629  0.583640  0.581789  1
  Ag  Ag23  1  0.583605  0.583688  0.250950  1
