# generated using pymatgen
data_CeSi2OsPt
_symmetry_space_group_name_H-M   'P 1'
_cell_length_a   4.26270400
_cell_length_b   4.26270400
_cell_length_c   9.70594800
_cell_angle_alpha   90.00000000
_cell_angle_beta   90.00000000
_cell_angle_gamma   90.00000000
_symmetry_Int_Tables_number   1
_chemical_formula_structural   CeSi2OsPt
_chemical_formula_sum   'Ce2 Si4 Os2 Pt2'
_cell_volume   176.36333930
_cell_formula_units_Z   2
loop_
 _symmetry_equiv_pos_site_id
 _symmetry_equiv_pos_as_xyz
  1  'x, y, z'
loop_
 _atom_site_type_symbol
 _atom_site_label
 _atom_site_symmetry_multiplicity
 _atom_site_fract_x
 _atom_site_fract_y
 _atom_site_fract_z
 _atom_site_occupancy
  Ce  Ce0  1  0.000000  0.500000  0.246731  1
  Ce  Ce1  1  0.500000  0.000000  0.753269  1
  Si  Si2  1  0.500000  0.500000  0.500000  1
  Si  Si3  1  0.500000  0.000000  0.120938  1
  Si  Si4  1  0.000000  0.000000  0.500000  1
  Si  Si5  1  0.000000  0.500000  0.879062  1
  Os  Os6  1  0.000000  0.000000  0.000000  1
  Os  Os7  1  0.500000  0.500000  0.000000  1
  Pt  Pt8  1  0.000000  0.500000  0.624715  1
  Pt  Pt9  1  0.500000  0.000000  0.375285  1
