# generated using pymatgen
data_YZrScFe9
_symmetry_space_group_name_H-M   'P 1'
_cell_length_a   4.99876096
_cell_length_b   4.99876152
_cell_length_c   8.45986309
_cell_angle_alpha   72.81608702
_cell_angle_beta   72.81608744
_cell_angle_gamma   60.00001313
_symmetry_Int_Tables_number   1
_chemical_formula_structural   YZrScFe9
_chemical_formula_sum   'Y1 Zr1 Sc1 Fe9'
_cell_volume   172.08843230
_cell_formula_units_Z   1
loop_
 _symmetry_equiv_pos_site_id
 _symmetry_equiv_pos_as_xyz
  1  'x, y, z'
loop_
 _atom_site_type_symbol
 _atom_site_label
 _atom_site_symmetry_multiplicity
 _atom_site_fract_x
 _atom_site_fract_y
 _atom_site_fract_z
 _atom_site_occupancy
  Y  Y0  1  0.000411  0.000411  0.998767  1
  Zr  Zr1  1  0.856597  0.856597  0.430209  1
  Sc  Sc2  1  0.142370  0.142370  0.572888  1
  Fe  Fe3  1  0.083236  0.585257  0.746247  1
  Fe  Fe4  1  0.585257  0.585257  0.746247  1
  Fe  Fe5  1  0.585257  0.083236  0.746247  1
  Fe  Fe6  1  0.917350  0.414882  0.252888  1
  Fe  Fe7  1  0.414882  0.414882  0.252888  1
  Fe  Fe8  1  0.414882  0.917350  0.252888  1
  Fe  Fe9  1  0.332613  0.332613  0.002161  1
  Fe  Fe10  1  0.667253  0.667253  0.998241  1
  Fe  Fe11  1  0.499890  0.499890  0.500330  1
