# generated using pymatgen
data_Lu2Mg2MnIr7
_symmetry_space_group_name_H-M   'P 1'
_cell_length_a   5.31720500
_cell_length_b   5.31720472
_cell_length_c   8.28576100
_cell_angle_alpha   90.00000000
_cell_angle_beta   90.00000000
_cell_angle_gamma   120.00000794
_symmetry_Int_Tables_number   1
_chemical_formula_structural   Lu2Mg2MnIr7
_chemical_formula_sum   'Lu2 Mg2 Mn1 Ir7'
_cell_volume   202.87558514
_cell_formula_units_Z   1
loop_
 _symmetry_equiv_pos_site_id
 _symmetry_equiv_pos_as_xyz
  1  'x, y, z'
loop_
 _atom_site_type_symbol
 _atom_site_label
 _atom_site_symmetry_multiplicity
 _atom_site_fract_x
 _atom_site_fract_y
 _atom_site_fract_z
 _atom_site_occupancy
  Lu  Lu0  1  0.333333  0.666667  0.072491  1
  Lu  Lu1  1  0.666667  0.333333  0.568755  1
  Mg  Mg2  1  0.666667  0.333333  0.935664  1
  Mg  Mg3  1  0.333333  0.666667  0.439896  1
  Mn  Mn4  1  0.000000  0.000000  0.994066  1
  Ir  Ir5  1  0.000000  0.000000  0.496193  1
  Ir  Ir6  1  0.829033  0.658066  0.243043  1
  Ir  Ir7  1  0.171914  0.828086  0.754601  1
  Ir  Ir8  1  0.656172  0.828086  0.754601  1
  Ir  Ir9  1  0.341934  0.170967  0.243043  1
  Ir  Ir10  1  0.829033  0.170967  0.243043  1
  Ir  Ir11  1  0.171914  0.343828  0.754601  1
