# generated using pymatgen
data_TmLu11Tc3Ru
_symmetry_space_group_name_H-M   'P 1'
_cell_length_a   6.14030300
_cell_length_b   7.33041202
_cell_length_c   8.88792100
_cell_angle_alpha   90.00000000
_cell_angle_beta   90.00000000
_cell_angle_gamma   90.00647122
_symmetry_Int_Tables_number   1
_chemical_formula_structural   TmLu11Tc3Ru
_chemical_formula_sum   'Tm1 Lu11 Tc3 Ru1'
_cell_volume   400.05377373
_cell_formula_units_Z   1
loop_
 _symmetry_equiv_pos_site_id
 _symmetry_equiv_pos_as_xyz
  1  'x, y, z'
loop_
 _atom_site_type_symbol
 _atom_site_label
 _atom_site_symmetry_multiplicity
 _atom_site_fract_x
 _atom_site_fract_y
 _atom_site_fract_z
 _atom_site_occupancy
  Tm  Tm0  1  0.874051  0.540759  0.250000  1
  Lu  Lu1  1  0.339482  0.675668  0.062206  1
  Lu  Lu2  1  0.157965  0.175229  0.438161  1
  Lu  Lu3  1  0.658955  0.325351  0.562671  1
  Lu  Lu4  1  0.841126  0.824874  0.937735  1
  Lu  Lu5  1  0.658955  0.325351  0.937329  1
  Lu  Lu6  1  0.841126  0.824874  0.562265  1
  Lu  Lu7  1  0.339482  0.675668  0.437794  1
  Lu  Lu8  1  0.157965  0.175229  0.061839  1
  Lu  Lu9  1  0.625723  0.039479  0.250000  1
  Lu  Lu10  1  0.130126  0.457844  0.750000  1
  Lu  Lu11  1  0.374846  0.958060  0.750000  1
  Tc  Tc12  1  0.041348  0.883319  0.250000  1
  Tc  Tc13  1  0.459550  0.384295  0.250000  1
  Tc  Tc14  1  0.959798  0.116716  0.750000  1
  Ru  Ru15  1  0.539501  0.617282  0.750000  1
