# generated using pymatgen
data_Tm7Lu3(Bi2Ir)2
_symmetry_space_group_name_H-M   'P 1'
_cell_length_a   7.86805031
_cell_length_b   8.95989597
_cell_length_c   12.41614700
_cell_angle_alpha   89.95901641
_cell_angle_beta   90.13645904
_cell_angle_gamma   90.06460710
_symmetry_Int_Tables_number   1
_chemical_formula_structural   Tm7Lu3(Bi2Ir)2
_chemical_formula_sum   'Tm14 Lu6 Bi8 Ir4'
_cell_volume   875.29676520
_cell_formula_units_Z   2
loop_
 _symmetry_equiv_pos_site_id
 _symmetry_equiv_pos_as_xyz
  1  'x, y, z'
loop_
 _atom_site_type_symbol
 _atom_site_label
 _atom_site_symmetry_multiplicity
 _atom_site_fract_x
 _atom_site_fract_y
 _atom_site_fract_z
 _atom_site_occupancy
  Tm  Tm0  1  0.661688  0.749582  0.707283  1
  Tm  Tm1  1  0.338312  0.250418  0.292717  1
  Tm  Tm2  1  0.160907  0.249761  0.792896  1
  Tm  Tm3  1  0.839093  0.750239  0.207104  1
  Tm  Tm4  1  0.125358  0.750756  0.810419  1
  Tm  Tm5  1  0.874642  0.249244  0.189581  1
  Tm  Tm6  1  0.625290  0.251230  0.690291  1
  Tm  Tm7  1  0.374710  0.748770  0.309709  1
  Tm  Tm8  1  0.557894  0.749861  0.998339  1
  Tm  Tm9  1  0.442106  0.250139  0.001661  1
  Tm  Tm10  1  0.056366  0.251624  0.501475  1
  Tm  Tm11  1  0.943634  0.748376  0.498525  1
  Tm  Tm12  1  0.673767  0.042223  0.433575  1
  Tm  Tm13  1  0.326233  0.957777  0.566425  1
  Lu  Lu14  1  0.828685  0.458055  0.933515  1
  Lu  Lu15  1  0.171315  0.541945  0.066485  1
  Lu  Lu16  1  0.328945  0.542874  0.566712  1
  Lu  Lu17  1  0.171520  0.958076  0.066447  1
  Lu  Lu18  1  0.671055  0.457126  0.433288  1
  Lu  Lu19  1  0.828480  0.041924  0.933553  1
  Bi  Bi20  1  0.934614  0.008614  0.672049  1
  Bi  Bi21  1  0.065386  0.991386  0.327951  1
  Bi  Bi22  1  0.436935  0.991973  0.827738  1
  Bi  Bi23  1  0.063182  0.508023  0.327085  1
  Bi  Bi24  1  0.563065  0.008027  0.172262  1
  Bi  Bi25  1  0.936818  0.491977  0.672915  1
  Bi  Bi26  1  0.563861  0.491613  0.172128  1
  Bi  Bi27  1  0.436139  0.508387  0.827872  1
  Ir  Ir28  1  0.928935  0.750044  0.992235  1
  Ir  Ir29  1  0.071065  0.249956  0.007765  1
  Ir  Ir30  1  0.427783  0.251038  0.508269  1
  Ir  Ir31  1  0.572217  0.748962  0.491731  1
