# generated using pymatgen
data_La9Nd3(PBr3)4
_symmetry_space_group_name_H-M   'P 1'
_cell_length_a   10.43824663
_cell_length_b   10.43809722
_cell_length_c   10.45013195
_cell_angle_alpha   109.24413237
_cell_angle_beta   109.61965320
_cell_angle_gamma   109.57303984
_symmetry_Int_Tables_number   1
_chemical_formula_structural   La9Nd3(PBr3)4
_chemical_formula_sum   'La9 Nd3 P4 Br12'
_cell_volume   876.23462142
_cell_formula_units_Z   1
loop_
 _symmetry_equiv_pos_site_id
 _symmetry_equiv_pos_as_xyz
  1  'x, y, z'
loop_
 _atom_site_type_symbol
 _atom_site_label
 _atom_site_symmetry_multiplicity
 _atom_site_fract_x
 _atom_site_fract_y
 _atom_site_fract_z
 _atom_site_occupancy
  La  La0  1  0.237514  0.475582  0.486842  1
  La  La1  1  0.263348  0.749647  0.238598  1
  La  La2  1  0.024676  0.262338  0.012338  1
  La  La3  1  0.011513  0.024780  0.262376  1
  La  La4  1  0.489595  0.751141  0.014071  1
  La  La5  1  0.489595  0.238455  0.475524  1
  La  La6  1  0.011513  0.486734  0.749137  1
  La  La7  1  0.263348  0.013701  0.024751  1
  La  La8  1  0.237514  0.261931  0.750672  1
  Nd  Nd9  1  0.469215  0.484608  0.234608  1
  Nd  Nd10  1  0.750609  0.234880  0.266497  1
  Nd  Nd11  1  0.750609  0.015730  0.484113  1
  P  P12  1  0.250373  0.250162  0.250253  1
  P  P13  1  0.500412  0.000206  0.250206  1
  P  P14  1  0.000451  0.250225  0.500225  1
  P  P15  1  0.250373  0.500211  0.000120  1
  Br  Br16  1  0.250720  0.757318  0.743595  1
  Br  Br17  1  0.514073  0.507036  0.757036  1
  Br  Br18  1  0.986793  0.743397  0.993397  1
  Br  Br19  1  0.742280  0.244508  0.751918  1
  Br  Br20  1  0.990278  0.986661  0.740909  1
  Br  Br21  1  0.250720  0.993402  0.507125  1
  Br  Br22  1  0.754739  0.509775  0.499242  1
  Br  Br23  1  0.511220  0.255660  0.001479  1
  Br  Br24  1  0.754739  0.744964  0.255496  1
  Br  Br25  1  0.742280  0.997772  0.990363  1
  Br  Br26  1  0.990278  0.503617  0.249369  1
  Br  Br27  1  0.511220  0.755560  0.509741  1
