# generated using pymatgen
data_Ti9Zn(TcSn3)3
_symmetry_space_group_name_H-M   'P 1'
_cell_length_a   9.19020100
_cell_length_b   9.19020166
_cell_length_c   5.51499900
_cell_angle_alpha   90.00000000
_cell_angle_beta   90.00000000
_cell_angle_gamma   120.00000124
_symmetry_Int_Tables_number   1
_chemical_formula_structural   Ti9Zn(TcSn3)3
_chemical_formula_sum   'Ti9 Zn1 Tc3 Sn9'
_cell_volume   403.39091711
_cell_formula_units_Z   1
loop_
 _symmetry_equiv_pos_site_id
 _symmetry_equiv_pos_as_xyz
  1  'x, y, z'
loop_
 _atom_site_type_symbol
 _atom_site_label
 _atom_site_symmetry_multiplicity
 _atom_site_fract_x
 _atom_site_fract_y
 _atom_site_fract_z
 _atom_site_occupancy
  Ti  Ti0  1  0.849030  0.698059  0.748384  1
  Ti  Ti1  1  0.150970  0.849030  0.251616  1
  Ti  Ti2  1  0.698059  0.849030  0.251616  1
  Ti  Ti3  1  0.301941  0.150970  0.748384  1
  Ti  Ti4  1  0.849030  0.150970  0.748384  1
  Ti  Ti5  1  0.150970  0.301941  0.251616  1
  Ti  Ti6  1  0.500000  0.500000  0.000000  1
  Ti  Ti7  1  0.000000  0.500000  0.000000  1
  Ti  Ti8  1  0.500000  0.000000  0.000000  1
  Zn  Zn9  1  0.000000  0.000000  0.500000  1
  Tc  Tc10  1  0.500000  0.000000  0.500000  1
  Tc  Tc11  1  0.000000  0.500000  0.500000  1
  Tc  Tc12  1  0.500000  0.500000  0.500000  1
  Sn  Sn13  1  0.201875  0.403751  0.746320  1
  Sn  Sn14  1  0.798125  0.201875  0.253680  1
  Sn  Sn15  1  0.403751  0.201875  0.253680  1
  Sn  Sn16  1  0.596249  0.798125  0.746320  1
  Sn  Sn17  1  0.201875  0.798125  0.746320  1
  Sn  Sn18  1  0.798125  0.596249  0.253680  1
  Sn  Sn19  1  0.666667  0.333333  0.729802  1
  Sn  Sn20  1  0.333333  0.666667  0.270198  1
  Sn  Sn21  1  0.000000  0.000000  0.000000  1
