# generated using pymatgen
data_NaDy2Si2(PPd5)4
_symmetry_space_group_name_H-M   'P 1'
_cell_length_a   8.65687177
_cell_length_b   8.66898271
_cell_length_c   8.66898443
_cell_angle_alpha   59.90758379
_cell_angle_beta   60.04621055
_cell_angle_gamma   60.04619767
_symmetry_Int_Tables_number   1
_chemical_formula_structural   NaDy2Si2(PPd5)4
_chemical_formula_sum   'Na1 Dy2 Si2 P4 Pd20'
_cell_volume   460.02414569
_cell_formula_units_Z   1
loop_
 _symmetry_equiv_pos_site_id
 _symmetry_equiv_pos_as_xyz
  1  'x, y, z'
loop_
 _atom_site_type_symbol
 _atom_site_label
 _atom_site_symmetry_multiplicity
 _atom_site_fract_x
 _atom_site_fract_y
 _atom_site_fract_z
 _atom_site_occupancy
  Na  Na0  1  0.000000  0.000000  0.000000  1
  Dy  Dy1  1  0.250000  0.250000  0.250000  1
  Dy  Dy2  1  0.750000  0.750000  0.750000  1
  Si  Si3  1  0.737683  0.262317  0.262317  1
  Si  Si4  1  0.262317  0.737683  0.737683  1
  P  P5  1  0.262178  0.737822  0.262178  1
  P  P6  1  0.737822  0.262178  0.737822  1
  P  P7  1  0.262178  0.262178  0.737822  1
  P  P8  1  0.737822  0.737822  0.262178  1
  Pd  Pd9  1  0.383323  0.385192  0.385192  1
  Pd  Pd10  1  0.616677  0.614808  0.614808  1
  Pd  Pd11  1  0.385192  0.383323  0.846295  1
  Pd  Pd12  1  0.385192  0.846295  0.383323  1
  Pd  Pd13  1  0.614808  0.616677  0.153705  1
  Pd  Pd14  1  0.614808  0.153705  0.616677  1
  Pd  Pd15  1  0.846295  0.385192  0.385192  1
  Pd  Pd16  1  0.153705  0.614808  0.614808  1
  Pd  Pd17  1  0.345245  0.000000  0.000000  1
  Pd  Pd18  1  0.654755  0.000000  0.000000  1
  Pd  Pd19  1  0.000000  0.345245  0.654755  1
  Pd  Pd20  1  0.000000  0.654755  0.345245  1
  Pd  Pd21  1  0.002048  0.346919  0.997952  1
  Pd  Pd22  1  0.653081  0.997952  0.346919  1
  Pd  Pd23  1  0.997952  0.653081  0.002048  1
  Pd  Pd24  1  0.346919  0.002048  0.653081  1
  Pd  Pd25  1  0.002048  0.997952  0.346919  1
  Pd  Pd26  1  0.997952  0.002048  0.653081  1
  Pd  Pd27  1  0.653081  0.346919  0.997952  1
  Pd  Pd28  1  0.346919  0.653081  0.002048  1
