# generated using pymatgen
data_Nd6Ho3Er7(CdIr)4
_symmetry_space_group_name_H-M   'P 1'
_cell_length_a   9.71323350
_cell_length_b   9.71408142
_cell_length_c   9.71408000
_cell_angle_alpha   59.99999801
_cell_angle_beta   59.99711027
_cell_angle_gamma   59.99711013
_symmetry_Int_Tables_number   1
_chemical_formula_structural   Nd6Ho3Er7(CdIr)4
_chemical_formula_sum   'Nd6 Ho3 Er7 Cd4 Ir4'
_cell_volume   648.08693791
_cell_formula_units_Z   1
loop_
 _symmetry_equiv_pos_site_id
 _symmetry_equiv_pos_as_xyz
  1  'x, y, z'
loop_
 _atom_site_type_symbol
 _atom_site_label
 _atom_site_symmetry_multiplicity
 _atom_site_fract_x
 _atom_site_fract_y
 _atom_site_fract_z
 _atom_site_occupancy
  Nd  Nd0  1  0.940640  0.559343  0.559343  1
  Nd  Nd1  1  0.559399  0.940622  0.940622  1
  Nd  Nd2  1  0.559399  0.940622  0.559357  1
  Nd  Nd3  1  0.940640  0.559343  0.940674  1
  Nd  Nd4  1  0.559399  0.559357  0.940622  1
  Nd  Nd5  1  0.940640  0.940674  0.559343  1
  Ho  Ho6  1  0.347096  0.347152  0.347152  1
  Ho  Ho7  1  0.347096  0.347152  0.958600  1
  Ho  Ho8  1  0.347096  0.958600  0.347152  1
  Er  Er9  1  0.958985  0.347005  0.347005  1
  Er  Er10  1  0.812842  0.187198  0.187198  1
  Er  Er11  1  0.187147  0.812833  0.812833  1
  Er  Er12  1  0.187147  0.812833  0.187188  1
  Er  Er13  1  0.812842  0.187198  0.812763  1
  Er  Er14  1  0.187147  0.187188  0.812833  1
  Er  Er15  1  0.812842  0.812763  0.187198  1
  Cd  Cd16  1  0.579342  0.579272  0.579272  1
  Cd  Cd17  1  0.579342  0.579272  0.262114  1
  Cd  Cd18  1  0.579342  0.262114  0.579272  1
  Cd  Cd19  1  0.262090  0.579303  0.579303  1
  Ir  Ir20  1  0.140980  0.141285  0.141285  1
  Ir  Ir21  1  0.140980  0.141285  0.576449  1
  Ir  Ir22  1  0.140980  0.576449  0.141285  1
  Ir  Ir23  1  0.576586  0.141138  0.141138  1
