# generated using pymatgen
data_Yb5Pr8Dy7Si16
_symmetry_space_group_name_H-M   'P 1'
_cell_length_a   7.88633400
_cell_length_b   7.88182251
_cell_length_c   14.51285100
_cell_angle_alpha   90.14571441
_cell_angle_beta   89.99924442
_cell_angle_gamma   90.00445077
_symmetry_Int_Tables_number   1
_chemical_formula_structural   Yb5Pr8Dy7Si16
_chemical_formula_sum   'Yb5 Pr8 Dy7 Si16'
_cell_volume   902.09681178
_cell_formula_units_Z   1
loop_
 _symmetry_equiv_pos_site_id
 _symmetry_equiv_pos_as_xyz
  1  'x, y, z'
loop_
 _atom_site_type_symbol
 _atom_site_label
 _atom_site_symmetry_multiplicity
 _atom_site_fract_x
 _atom_site_fract_y
 _atom_site_fract_z
 _atom_site_occupancy
  Yb  Yb0  1  0.134256  0.989779  0.872728  1
  Yb  Yb1  1  0.687250  0.687494  0.499521  1
  Yb  Yb2  1  0.817230  0.185059  0.751497  1
  Yb  Yb3  1  0.186368  0.813362  0.250971  1
  Yb  Yb4  1  0.309730  0.307358  0.998273  1
  Pr  Pr5  1  0.992427  0.636351  0.044100  1
  Pr  Pr6  1  0.008387  0.363690  0.542033  1
  Pr  Pr7  1  0.636652  0.989955  0.957892  1
  Pr  Pr8  1  0.135895  0.511523  0.791937  1
  Pr  Pr9  1  0.862885  0.491177  0.292466  1
  Pr  Pr10  1  0.509054  0.135926  0.207231  1
  Pr  Pr11  1  0.492097  0.865956  0.706390  1
  Pr  Pr12  1  0.362905  0.010117  0.457619  1
  Dy  Dy13  1  0.367516  0.493944  0.376680  1
  Dy  Dy14  1  0.867887  0.006620  0.373633  1
  Dy  Dy15  1  0.992219  0.133059  0.127586  1
  Dy  Dy16  1  0.005814  0.867701  0.625444  1
  Dy  Dy17  1  0.632436  0.506827  0.876365  1
  Dy  Dy18  1  0.493677  0.367978  0.622280  1
  Dy  Dy19  1  0.505818  0.631981  0.125137  1
  Si  Si20  1  0.074823  0.712332  0.441643  1
  Si  Si21  1  0.921957  0.291174  0.943482  1
  Si  Si22  1  0.712812  0.076302  0.558296  1
  Si  Si23  1  0.212808  0.423787  0.191825  1
  Si  Si24  1  0.786436  0.574323  0.690730  1
  Si  Si25  1  0.428216  0.215725  0.805746  1
  Si  Si26  1  0.575132  0.788519  0.309048  1
  Si  Si27  1  0.291286  0.923281  0.060821  1
  Si  Si28  1  0.839487  0.790037  0.808271  1
  Si  Si29  1  0.154126  0.209428  0.311487  1
  Si  Si30  1  0.791551  0.845680  0.189139  1
  Si  Si31  1  0.290934  0.655397  0.561329  1
  Si  Si32  1  0.708587  0.347822  0.062477  1
  Si  Si33  1  0.653721  0.290340  0.437712  1
  Si  Si34  1  0.346588  0.703849  0.942294  1
  Si  Si35  1  0.211034  0.156147  0.685919  1
