# generated using pymatgen
data_Y7Tm3(GaSb2)2
_symmetry_space_group_name_H-M   'P 1'
_cell_length_a   8.82878406
_cell_length_b   8.79796044
_cell_length_c   6.42677804
_cell_angle_alpha   90.00678081
_cell_angle_beta   89.98648572
_cell_angle_gamma   120.11595504
_symmetry_Int_Tables_number   1
_chemical_formula_structural   Y7Tm3(GaSb2)2
_chemical_formula_sum   'Y7 Tm3 Ga2 Sb4'
_cell_volume   431.81545973
_cell_formula_units_Z   1
loop_
 _symmetry_equiv_pos_site_id
 _symmetry_equiv_pos_as_xyz
  1  'x, y, z'
loop_
 _atom_site_type_symbol
 _atom_site_label
 _atom_site_symmetry_multiplicity
 _atom_site_fract_x
 _atom_site_fract_y
 _atom_site_fract_z
 _atom_site_occupancy
  Y  Y0  1  0.341564  0.683129  0.000000  1
  Y  Y1  1  0.244726  0.000111  0.250548  1
  Y  Y2  1  0.755385  0.000111  0.749452  1
  Y  Y3  1  0.988145  0.235016  0.250195  1
  Y  Y4  1  0.753242  0.765404  0.250169  1
  Y  Y5  1  0.246870  0.235016  0.749805  1
  Y  Y6  1  0.012163  0.765404  0.749831  1
  Tm  Tm7  1  0.657611  0.315219  0.500000  1
  Tm  Tm8  1  0.656972  0.313942  0.000000  1
  Tm  Tm9  1  0.342684  0.685369  0.500000  1
  Ga  Ga10  1  0.602438  0.001341  0.251634  1
  Ga  Ga11  1  0.398903  0.001341  0.748366  1
  Sb  Sb12  1  0.993431  0.604746  0.251045  1
  Sb  Sb13  1  0.390100  0.394552  0.251156  1
  Sb  Sb14  1  0.611315  0.604746  0.748955  1
  Sb  Sb15  1  0.004452  0.394552  0.748844  1
