# generated using pymatgen
data_TbDy(Si2Ni9)2
_symmetry_space_group_name_H-M   'P 1'
_cell_length_a   7.55269437
_cell_length_b   7.55216062
_cell_length_c   7.55269405
_cell_angle_alpha   99.59167676
_cell_angle_beta   99.59355399
_cell_angle_gamma   131.81869801
_symmetry_Int_Tables_number   1
_chemical_formula_structural   TbDy(Si2Ni9)2
_chemical_formula_sum   'Tb1 Dy1 Si4 Ni18'
_cell_volume   293.08265911
_cell_formula_units_Z   1
loop_
 _symmetry_equiv_pos_site_id
 _symmetry_equiv_pos_as_xyz
  1  'x, y, z'
loop_
 _atom_site_type_symbol
 _atom_site_label
 _atom_site_symmetry_multiplicity
 _atom_site_fract_x
 _atom_site_fract_y
 _atom_site_fract_z
 _atom_site_occupancy
  Tb  Tb0  1  0.500009  0.499923  0.999914  1
  Dy  Dy1  1  0.750035  0.250011  0.499976  1
  Si  Si2  1  0.625143  0.874375  0.750634  1
  Si  Si3  1  0.125574  0.374911  0.249337  1
  Si  Si4  1  0.125513  0.876247  0.750734  1
  Si  Si5  1  0.123741  0.874375  0.249232  1
  Ni  Ni6  1  0.249993  0.749977  0.499984  1
  Ni  Ni7  1  0.000007  0.999990  0.999983  1
  Ni  Ni8  1  0.686774  0.013605  0.079094  1
  Ni  Ni9  1  0.686797  0.607715  0.673211  1
  Ni  Ni10  1  0.262980  0.436570  0.578768  1
  Ni  Ni11  1  0.263003  0.684253  0.826461  1
  Ni  Ni12  1  0.934510  0.013605  0.326831  1
  Ni  Ni13  1  0.934504  0.607715  0.920918  1
  Ni  Ni14  1  0.857802  0.436570  0.173589  1
  Ni  Ni15  1  0.857791  0.684253  0.421250  1
  Ni  Ni16  1  0.563425  0.737011  0.421235  1
  Ni  Ni17  1  0.563439  0.142217  0.826429  1
  Ni  Ni18  1  0.986393  0.313242  0.920931  1
  Ni  Ni19  1  0.986406  0.065482  0.673198  1
  Ni  Ni20  1  0.315776  0.737011  0.173586  1
  Ni  Ni21  1  0.315788  0.142217  0.578778  1
  Ni  Ni22  1  0.392311  0.313242  0.326849  1
  Ni  Ni23  1  0.392284  0.065482  0.079076  1
