# generated using pymatgen
data_AcHgPd4
_symmetry_space_group_name_H-M   'P 1'
_cell_length_a   5.54348626
_cell_length_b   5.54348664
_cell_length_c   5.54348700
_cell_angle_alpha   60.00000384
_cell_angle_beta   60.00000154
_cell_angle_gamma   59.99999988
_symmetry_Int_Tables_number   1
_chemical_formula_structural   AcHgPd4
_chemical_formula_sum   'Ac1 Hg1 Pd4'
_cell_volume   120.45755217
_cell_formula_units_Z   1
loop_
 _symmetry_equiv_pos_site_id
 _symmetry_equiv_pos_as_xyz
  1  'x, y, z'
loop_
 _atom_site_type_symbol
 _atom_site_label
 _atom_site_symmetry_multiplicity
 _atom_site_fract_x
 _atom_site_fract_y
 _atom_site_fract_z
 _atom_site_occupancy
  Ac  Ac0  1  0.750001  0.750001  0.750001  1
  Hg  Hg1  1  0.000000  0.000000  0.000000  1
  Pd  Pd2  1  0.374481  0.374481  0.374481  1
  Pd  Pd3  1  0.876557  0.374481  0.374481  1
  Pd  Pd4  1  0.374481  0.876557  0.374481  1
  Pd  Pd5  1  0.374481  0.374481  0.876557  1
