# generated using pymatgen
data_La7Sm(B4Br5)2
_symmetry_space_group_name_H-M   'P 1'
_cell_length_a   9.47603254
_cell_length_b   9.47603334
_cell_length_c   19.63698471
_cell_angle_alpha   75.96824724
_cell_angle_beta   75.96824623
_cell_angle_gamma   26.31792967
_symmetry_Int_Tables_number   1
_chemical_formula_structural   La7Sm(B4Br5)2
_chemical_formula_sum   'La7 Sm1 B8 Br10'
_cell_volume   757.14273724
_cell_formula_units_Z   1
loop_
 _symmetry_equiv_pos_site_id
 _symmetry_equiv_pos_as_xyz
  1  'x, y, z'
loop_
 _atom_site_type_symbol
 _atom_site_label
 _atom_site_symmetry_multiplicity
 _atom_site_fract_x
 _atom_site_fract_y
 _atom_site_fract_z
 _atom_site_occupancy
  La  La0  1  0.610670  0.610670  0.722438  1
  La  La1  1  0.389370  0.389370  0.276944  1
  La  La2  1  0.972642  0.972642  0.628406  1
  La  La3  1  0.027672  0.027672  0.371429  1
  La  La4  1  0.332460  0.332460  0.793378  1
  La  La5  1  0.667029  0.667029  0.204861  1
  La  La6  1  0.971600  0.971600  0.888305  1
  Sm  Sm7  1  0.027318  0.027318  0.117583  1
  B  B8  1  0.156141  0.787283  0.758398  1
  B  B9  1  0.212620  0.843542  0.241950  1
  B  B10  1  0.843542  0.212620  0.241950  1
  B  B11  1  0.787283  0.156141  0.758398  1
  B  B12  1  0.472233  0.472233  0.806823  1
  B  B13  1  0.527383  0.527383  0.193459  1
  B  B14  1  0.470287  0.470287  0.710137  1
  B  B15  1  0.529927  0.529927  0.289650  1
  Br  Br16  1  0.143386  0.143386  0.604013  1
  Br  Br17  1  0.856689  0.856689  0.395530  1
  Br  Br18  1  0.147008  0.147008  0.827844  1
  Br  Br19  1  0.855779  0.855779  0.168947  1
  Br  Br20  1  0.801102  0.801102  0.912097  1
  Br  Br21  1  0.193316  0.193316  0.085502  1
  Br  Br22  1  0.797250  0.797250  0.686192  1
  Br  Br23  1  0.203604  0.203604  0.311617  1
  Br  Br24  1  0.500265  0.500265  0.499816  1
  Br  Br25  1  0.503423  0.503423  0.004331  1
