# generated using pymatgen
data_Zr10HgPb7
_symmetry_space_group_name_H-M   'P 1'
_cell_length_a   8.99236600
_cell_length_b   8.99236652
_cell_length_c   6.05400200
_cell_angle_alpha   90.00000000
_cell_angle_beta   90.00000000
_cell_angle_gamma   119.99999808
_symmetry_Int_Tables_number   1
_chemical_formula_structural   Zr10HgPb7
_chemical_formula_sum   'Zr10 Hg1 Pb7'
_cell_volume   423.95638001
_cell_formula_units_Z   1
loop_
 _symmetry_equiv_pos_site_id
 _symmetry_equiv_pos_as_xyz
  1  'x, y, z'
loop_
 _atom_site_type_symbol
 _atom_site_label
 _atom_site_symmetry_multiplicity
 _atom_site_fract_x
 _atom_site_fract_y
 _atom_site_fract_z
 _atom_site_occupancy
  Zr  Zr0  1  0.666666  0.333333  0.000000  1
  Zr  Zr1  1  0.333333  0.666666  0.000000  1
  Zr  Zr2  1  0.281281  0.000000  0.249823  1
  Zr  Zr3  1  0.000000  0.281281  0.249823  1
  Zr  Zr4  1  0.718719  0.718719  0.249823  1
  Zr  Zr5  1  0.666666  0.333333  0.500000  1
  Zr  Zr6  1  0.333333  0.666666  0.500000  1
  Zr  Zr7  1  0.718720  0.000000  0.750178  1
  Zr  Zr8  1  0.281280  0.281281  0.750178  1
  Zr  Zr9  1  0.000000  0.718719  0.750178  1
  Hg  Hg10  1  0.000000  0.000000  0.000000  1
  Pb  Pb11  1  0.617232  0.000000  0.249554  1
  Pb  Pb12  1  0.382768  0.382769  0.249554  1
  Pb  Pb13  1  0.000000  0.617232  0.249554  1
  Pb  Pb14  1  0.000000  0.000000  0.500000  1
  Pb  Pb15  1  0.382769  0.000000  0.750447  1
  Pb  Pb16  1  0.000000  0.382769  0.750447  1
  Pb  Pb17  1  0.617232  0.617232  0.750447  1
