# generated using pymatgen
data_Ti8Re3
_symmetry_space_group_name_H-M   'P 1'
_cell_length_a   5.29565876
_cell_length_b   5.29565919
_cell_length_c   11.56118321
_cell_angle_alpha   105.06836872
_cell_angle_beta   105.06837046
_cell_angle_gamma   34.80452425
_symmetry_Int_Tables_number   1
_chemical_formula_structural   Ti8Re3
_chemical_formula_sum   'Ti8 Re3'
_cell_volume   178.05849850
_cell_formula_units_Z   1
loop_
 _symmetry_equiv_pos_site_id
 _symmetry_equiv_pos_as_xyz
  1  'x, y, z'
loop_
 _atom_site_type_symbol
 _atom_site_label
 _atom_site_symmetry_multiplicity
 _atom_site_fract_x
 _atom_site_fract_y
 _atom_site_fract_z
 _atom_site_occupancy
  Ti  Ti0  1  0.707043  0.707043  0.084175  1
  Ti  Ti1  1  0.456328  0.456328  0.181927  1
  Ti  Ti2  1  0.204317  0.204317  0.282638  1
  Ti  Ti3  1  0.624228  0.624228  0.456707  1
  Ti  Ti4  1  0.375773  0.375773  0.543292  1
  Ti  Ti5  1  0.795683  0.795683  0.717362  1
  Ti  Ti6  1  0.543672  0.543672  0.818073  1
  Ti  Ti7  1  0.292958  0.292958  0.915826  1
  Re  Re8  1  0.000000  0.000000  0.000000  1
  Re  Re9  1  0.913792  0.913792  0.360588  1
  Re  Re10  1  0.086208  0.086208  0.639413  1
