# generated using pymatgen
data_PrDy5Ho10(CdPt)4
_symmetry_space_group_name_H-M   'P 1'
_cell_length_a   9.68594497
_cell_length_b   9.68594446
_cell_length_c   9.66064800
_cell_angle_alpha   60.08634889
_cell_angle_beta   60.08635060
_cell_angle_gamma   59.83473487
_symmetry_Int_Tables_number   1
_chemical_formula_structural   PrDy5Ho10(CdPt)4
_chemical_formula_sum   'Pr1 Dy5 Ho10 Cd4 Pt4'
_cell_volume   640.90558788
_cell_formula_units_Z   1
loop_
 _symmetry_equiv_pos_site_id
 _symmetry_equiv_pos_as_xyz
  1  'x, y, z'
loop_
 _atom_site_type_symbol
 _atom_site_label
 _atom_site_symmetry_multiplicity
 _atom_site_fract_x
 _atom_site_fract_y
 _atom_site_fract_z
 _atom_site_occupancy
  Pr  Pr0  1  0.934862  0.934862  0.565138  1
  Dy  Dy1  1  0.935979  0.560695  0.565094  1
  Dy  Dy2  1  0.560695  0.935979  0.938233  1
  Dy  Dy3  1  0.560695  0.935979  0.565094  1
  Dy  Dy4  1  0.935979  0.560695  0.938233  1
  Dy  Dy5  1  0.565692  0.565692  0.934308  1
  Ho  Ho6  1  0.352258  0.352258  0.349816  1
  Ho  Ho7  1  0.352258  0.352258  0.945668  1
  Ho  Ho8  1  0.355993  0.941126  0.351441  1
  Ho  Ho9  1  0.941126  0.355993  0.351441  1
  Ho  Ho10  1  0.810497  0.191393  0.187624  1
  Ho  Ho11  1  0.191393  0.810497  0.810486  1
  Ho  Ho12  1  0.191393  0.810497  0.187624  1
  Ho  Ho13  1  0.810497  0.191393  0.810486  1
  Ho  Ho14  1  0.190333  0.190333  0.809667  1
  Ho  Ho15  1  0.811480  0.811480  0.188520  1
  Cd  Cd16  1  0.581659  0.581659  0.581761  1
  Cd  Cd17  1  0.581659  0.581659  0.254921  1
  Cd  Cd18  1  0.577956  0.256524  0.582760  1
  Cd  Cd19  1  0.256524  0.577956  0.582760  1
  Pt  Pt20  1  0.144303  0.144303  0.142500  1
  Pt  Pt21  1  0.144303  0.144303  0.568895  1
  Pt  Pt22  1  0.141792  0.570677  0.143766  1
  Pt  Pt23  1  0.570677  0.141792  0.143766  1
