# generated using pymatgen
data_Nd17Lu3(Ga5Pb)2
_symmetry_space_group_name_H-M   'P 1'
_cell_length_a   7.97992200
_cell_length_b   7.97992200
_cell_length_c   14.67129600
_cell_angle_alpha   90.00000000
_cell_angle_beta   90.00000000
_cell_angle_gamma   90.00000000
_symmetry_Int_Tables_number   1
_chemical_formula_structural   Nd17Lu3(Ga5Pb)2
_chemical_formula_sum   'Nd17 Lu3 Ga10 Pb2'
_cell_volume   934.25573388
_cell_formula_units_Z   1
loop_
 _symmetry_equiv_pos_site_id
 _symmetry_equiv_pos_as_xyz
  1  'x, y, z'
loop_
 _atom_site_type_symbol
 _atom_site_label
 _atom_site_symmetry_multiplicity
 _atom_site_fract_x
 _atom_site_fract_y
 _atom_site_fract_z
 _atom_site_occupancy
  Nd  Nd0  1  0.819717  0.839140  0.611512  1
  Nd  Nd1  1  0.177095  0.836821  0.101133  1
  Nd  Nd2  1  0.162146  0.823851  0.387423  1
  Nd  Nd3  1  0.837854  0.176149  0.387423  1
  Nd  Nd4  1  0.676149  0.662146  0.387423  1
  Nd  Nd5  1  0.660860  0.319717  0.611512  1
  Nd  Nd6  1  0.339140  0.680283  0.611512  1
  Nd  Nd7  1  0.663179  0.677095  0.101133  1
  Nd  Nd8  1  0.683601  0.342415  0.898966  1
  Nd  Nd9  1  0.842415  0.816399  0.898966  1
  Nd  Nd10  1  0.323851  0.337854  0.387423  1
  Nd  Nd11  1  0.180283  0.160860  0.611512  1
  Nd  Nd12  1  0.822905  0.163179  0.101133  1
  Nd  Nd13  1  0.316399  0.657585  0.898966  1
  Nd  Nd14  1  0.336821  0.322905  0.101133  1
  Nd  Nd15  1  0.157585  0.183601  0.898966  1
  Nd  Nd16  1  0.500000  0.000000  0.795186  1
  Lu  Lu17  1  0.000000  0.500000  0.741881  1
  Lu  Lu18  1  0.000000  0.500000  0.220199  1
  Lu  Lu19  1  0.500000  0.000000  0.248391  1
  Ga  Ga20  1  0.624192  0.373863  0.245851  1
  Ga  Ga21  1  0.119451  0.872568  0.751992  1
  Ga  Ga22  1  0.372568  0.380549  0.751992  1
  Ga  Ga23  1  0.375808  0.626137  0.245851  1
  Ga  Ga24  1  0.873863  0.875808  0.245851  1
  Ga  Ga25  1  0.627432  0.619451  0.751992  1
  Ga  Ga26  1  0.880549  0.127432  0.751992  1
  Ga  Ga27  1  0.500000  0.000000  0.006178  1
  Ga  Ga28  1  0.126137  0.124192  0.245851  1
  Ga  Ga29  1  0.000000  0.500000  0.007509  1
  Pb  Pb30  1  0.000000  0.500000  0.509761  1
  Pb  Pb31  1  0.500000  0.000000  0.483392  1
