# generated using pymatgen
data_YHo19(CoSb2)4
_symmetry_space_group_name_H-M   'P 1'
_cell_length_a   7.86638412
_cell_length_b   8.74319000
_cell_length_c   12.16532918
_cell_angle_alpha   90.00000000
_cell_angle_beta   90.01968100
_cell_angle_gamma   90.00000000
_symmetry_Int_Tables_number   1
_chemical_formula_structural   YHo19(CoSb2)4
_chemical_formula_sum   'Y1 Ho19 Co4 Sb8'
_cell_volume   836.69833498
_cell_formula_units_Z   1
loop_
 _symmetry_equiv_pos_site_id
 _symmetry_equiv_pos_as_xyz
  1  'x, y, z'
loop_
 _atom_site_type_symbol
 _atom_site_label
 _atom_site_symmetry_multiplicity
 _atom_site_fract_x
 _atom_site_fract_y
 _atom_site_fract_z
 _atom_site_occupancy
  Y  Y0  1  0.157357  0.750000  0.204933  1
  Ho  Ho1  1  0.656885  0.250000  0.296213  1
  Ho  Ho2  1  0.843053  0.250000  0.796124  1
  Ho  Ho3  1  0.343024  0.750000  0.703902  1
  Ho  Ho4  1  0.452943  0.750000  0.997790  1
  Ho  Ho5  1  0.952519  0.250000  0.502074  1
  Ho  Ho6  1  0.547552  0.250000  0.001841  1
  Ho  Ho7  1  0.047378  0.750000  0.498325  1
  Ho  Ho8  1  0.622824  0.750000  0.307369  1
  Ho  Ho9  1  0.122588  0.250000  0.192623  1
  Ho  Ho10  1  0.377432  0.250000  0.692646  1
  Ho  Ho11  1  0.877429  0.750000  0.807269  1
  Ho  Ho12  1  0.822395  0.963622  0.065323  1
  Ho  Ho13  1  0.322618  0.036646  0.434514  1
  Ho  Ho14  1  0.177363  0.463447  0.934399  1
  Ho  Ho15  1  0.677351  0.536551  0.565616  1
  Ho  Ho16  1  0.177363  0.036553  0.934399  1
  Ho  Ho17  1  0.677351  0.963449  0.565616  1
  Ho  Ho18  1  0.822395  0.536378  0.065323  1
  Ho  Ho19  1  0.322618  0.463354  0.434514  1
  Co  Co20  1  0.431813  0.750000  0.490262  1
  Co  Co21  1  0.931886  0.250000  0.009674  1
  Co  Co22  1  0.568160  0.250000  0.509699  1
  Co  Co23  1  0.067748  0.750000  0.989281  1
  Sb  Sb24  1  0.929795  0.991938  0.327284  1
  Sb  Sb25  1  0.430561  0.008636  0.172878  1
  Sb  Sb26  1  0.069853  0.491572  0.672999  1
  Sb  Sb27  1  0.569769  0.508283  0.826975  1
  Sb  Sb28  1  0.069853  0.008428  0.672999  1
  Sb  Sb29  1  0.569769  0.991717  0.826975  1
  Sb  Sb30  1  0.929795  0.508062  0.327284  1
  Sb  Sb31  1  0.430561  0.491364  0.172878  1
