# generated using pymatgen
data_Lu12MgFe3Cu
_symmetry_space_group_name_H-M   'P 1'
_cell_length_a   8.08993670
_cell_length_b   8.08993501
_cell_length_c   8.08993648
_cell_angle_alpha   106.94418757
_cell_angle_beta   109.98843862
_cell_angle_gamma   111.51405729
_symmetry_Int_Tables_number   1
_chemical_formula_structural   Lu12MgFe3Cu
_chemical_formula_sum   'Lu12 Mg1 Fe3 Cu1'
_cell_volume   406.91348012
_cell_formula_units_Z   1
loop_
 _symmetry_equiv_pos_site_id
 _symmetry_equiv_pos_as_xyz
  1  'x, y, z'
loop_
 _atom_site_type_symbol
 _atom_site_label
 _atom_site_symmetry_multiplicity
 _atom_site_fract_x
 _atom_site_fract_y
 _atom_site_fract_z
 _atom_site_occupancy
  Lu  Lu0  1  0.311545  0.307361  0.618906  1
  Lu  Lu1  1  0.688455  0.692639  0.381094  1
  Lu  Lu2  1  0.688455  0.307361  0.995815  1
  Lu  Lu3  1  0.311545  0.692639  0.004185  1
  Lu  Lu4  1  0.187708  0.411822  0.224114  1
  Lu  Lu5  1  0.812292  0.588178  0.775886  1
  Lu  Lu6  1  0.187708  0.963593  0.775886  1
  Lu  Lu7  1  0.933069  0.190533  0.742537  1
  Lu  Lu8  1  0.812292  0.036407  0.224114  1
  Lu  Lu9  1  0.066931  0.809467  0.257463  1
  Lu  Lu10  1  0.447996  0.190533  0.257463  1
  Lu  Lu11  1  0.552004  0.809467  0.742537  1
  Mg  Mg12  1  0.000000  0.500000  0.500000  1
  Fe  Fe13  1  0.380729  0.380729  0.000000  1
  Fe  Fe14  1  0.619271  0.619271  0.000000  1
  Fe  Fe15  1  0.000000  0.000000  0.000000  1
  Cu  Cu16  1  0.500000  0.000000  0.500000  1
