# generated using pymatgen
data_Nd2Tm4FeCl10
_symmetry_space_group_name_H-M   'P 1'
_cell_length_a   7.06180013
_cell_length_b   8.87468357
_cell_length_c   8.73536600
_cell_angle_alpha   106.70129629
_cell_angle_beta   95.59242702
_cell_angle_gamma   105.55886883
_symmetry_Int_Tables_number   1
_chemical_formula_structural   Nd2Tm4FeCl10
_chemical_formula_sum   'Nd2 Tm4 Fe1 Cl10'
_cell_volume   496.02809295
_cell_formula_units_Z   1
loop_
 _symmetry_equiv_pos_site_id
 _symmetry_equiv_pos_as_xyz
  1  'x, y, z'
loop_
 _atom_site_type_symbol
 _atom_site_label
 _atom_site_symmetry_multiplicity
 _atom_site_fract_x
 _atom_site_fract_y
 _atom_site_fract_z
 _atom_site_occupancy
  Nd  Nd0  1  0.123975  0.049680  0.763662  1
  Nd  Nd1  1  0.876025  0.950320  0.236338  1
  Tm  Tm2  1  0.969582  0.303612  0.095358  1
  Tm  Tm3  1  0.030418  0.696388  0.904642  1
  Tm  Tm4  1  0.365660  0.137548  0.179923  1
  Tm  Tm5  1  0.634340  0.862452  0.820077  1
  Fe  Fe6  1  0.000000  0.000000  0.000000  1
  Cl  Cl7  1  0.339042  0.439786  0.263984  1
  Cl  Cl8  1  0.660958  0.560214  0.736016  1
  Cl  Cl9  1  0.261109  0.086268  0.446538  1
  Cl  Cl10  1  0.738891  0.913732  0.553462  1
  Cl  Cl11  1  0.080277  0.378280  0.835070  1
  Cl  Cl12  1  0.919723  0.621720  0.164930  1
  Cl  Cl13  1  0.452280  0.825694  0.080663  1
  Cl  Cl14  1  0.547720  0.174306  0.919337  1
  Cl  Cl15  1  0.777205  0.258230  0.334478  1
  Cl  Cl16  1  0.222795  0.741770  0.665522  1
