# generated using pymatgen
data_MnZnGaPd5
_symmetry_space_group_name_H-M   'P 1'
_cell_length_a   4.11823000
_cell_length_b   5.45908600
_cell_length_c   10.65589400
_cell_angle_alpha   90.00000000
_cell_angle_beta   90.00000000
_cell_angle_gamma   90.00000000
_symmetry_Int_Tables_number   1
_chemical_formula_structural   MnZnGaPd5
_chemical_formula_sum   'Mn2 Zn2 Ga2 Pd10'
_cell_volume   239.56337657
_cell_formula_units_Z   2
loop_
 _symmetry_equiv_pos_site_id
 _symmetry_equiv_pos_as_xyz
  1  'x, y, z'
loop_
 _atom_site_type_symbol
 _atom_site_label
 _atom_site_symmetry_multiplicity
 _atom_site_fract_x
 _atom_site_fract_y
 _atom_site_fract_z
 _atom_site_occupancy
  Mn  Mn0  1  0.000000  0.825077  0.637121  1
  Mn  Mn1  1  0.000000  0.325077  0.862879  1
  Zn  Zn2  1  0.000000  0.163459  0.359607  1
  Zn  Zn3  1  0.000000  0.663459  0.140393  1
  Ga  Ga4  1  0.500000  0.517717  0.503452  1
  Ga  Ga5  1  0.500000  0.017717  0.996548  1
  Pd  Pd6  1  0.000000  0.815777  0.892591  1
  Pd  Pd7  1  0.000000  0.686683  0.389562  1
  Pd  Pd8  1  0.000000  0.315777  0.607409  1
  Pd  Pd9  1  0.500000  0.903413  0.231445  1
  Pd  Pd10  1  0.500000  0.403413  0.268555  1
  Pd  Pd11  1  0.500000  0.576681  0.743526  1
  Pd  Pd12  1  0.500000  0.076681  0.756474  1
  Pd  Pd13  1  0.500000  0.511193  0.005338  1
  Pd  Pd14  1  0.500000  0.011193  0.494662  1
  Pd  Pd15  1  0.000000  0.186683  0.110438  1
