# generated using pymatgen
data_Ba2Pa2O7
_symmetry_space_group_name_H-M   'P 1'
_cell_length_a   8.24079908
_cell_length_b   8.24079847
_cell_length_c   8.24079867
_cell_angle_alpha   119.55290651
_cell_angle_beta   118.95068074
_cell_angle_gamma   91.30166715
_symmetry_Int_Tables_number   1
_chemical_formula_structural   Ba2Pa2O7
_chemical_formula_sum   'Ba4 Pa4 O14'
_cell_volume   400.07460037
_cell_formula_units_Z   2
loop_
 _symmetry_equiv_pos_site_id
 _symmetry_equiv_pos_as_xyz
  1  'x, y, z'
loop_
 _atom_site_type_symbol
 _atom_site_label
 _atom_site_symmetry_multiplicity
 _atom_site_fract_x
 _atom_site_fract_y
 _atom_site_fract_z
 _atom_site_occupancy
  Ba  Ba0  1  0.000000  0.000000  0.000000  1
  Ba  Ba1  1  0.500000  0.500000  0.000000  1
  Ba  Ba2  1  0.500000  0.000000  0.000000  1
  Ba  Ba3  1  0.500000  0.500000  0.500000  1
  Pa  Pa4  1  0.000000  0.000000  0.500000  1
  Pa  Pa5  1  0.000000  0.500000  0.500000  1
  Pa  Pa6  1  0.000000  0.500000  0.000000  1
  Pa  Pa7  1  0.500000  0.000000  0.500000  1
  O  O8  1  0.912031  0.750000  0.162031  1
  O  O9  1  0.686361  0.913770  0.363254  1
  O  O10  1  0.621967  0.905668  0.716299  1
  O  O11  1  0.686361  0.323107  0.772592  1
  O  O12  1  0.313639  0.676893  0.227408  1
  O  O13  1  0.313639  0.086230  0.636746  1
  O  O14  1  0.689370  0.405668  0.283701  1
  O  O15  1  0.050516  0.823107  0.636746  1
  O  O16  1  0.050516  0.413770  0.227408  1
  O  O17  1  0.087969  0.250000  0.837969  1
  O  O18  1  0.378033  0.094332  0.283701  1
  O  O19  1  0.949484  0.176893  0.363254  1
  O  O20  1  0.949484  0.586230  0.772592  1
  O  O21  1  0.310630  0.594332  0.716299  1
