# generated using pymatgen
data_Er5Lu11In6FeCo
_symmetry_space_group_name_H-M   'P 1'
_cell_length_a   10.16735724
_cell_length_b   10.16735698
_cell_length_c   6.91119907
_cell_angle_alpha   90.01432421
_cell_angle_beta   89.98567811
_cell_angle_gamma   120.05464984
_symmetry_Int_Tables_number   1
_chemical_formula_structural   Er5Lu11In6FeCo
_chemical_formula_sum   'Er5 Lu11 In6 Fe1 Co1'
_cell_volume   618.38756406
_cell_formula_units_Z   1
loop_
 _symmetry_equiv_pos_site_id
 _symmetry_equiv_pos_as_xyz
  1  'x, y, z'
loop_
 _atom_site_type_symbol
 _atom_site_label
 _atom_site_symmetry_multiplicity
 _atom_site_fract_x
 _atom_site_fract_y
 _atom_site_fract_z
 _atom_site_occupancy
  Er  Er0  1  0.534897  0.069704  0.522079  1
  Er  Er1  1  0.930296  0.465103  0.522079  1
  Er  Er2  1  0.534613  0.465387  0.522464  1
  Er  Er3  1  0.466120  0.932126  0.022210  1
  Er  Er4  1  0.067874  0.533880  0.022210  1
  Lu  Lu5  1  0.465925  0.534075  0.022649  1
  Lu  Lu6  1  0.179550  0.358816  0.726985  1
  Lu  Lu7  1  0.641184  0.820450  0.726985  1
  Lu  Lu8  1  0.179210  0.820790  0.726805  1
  Lu  Lu9  1  0.820403  0.641342  0.227219  1
  Lu  Lu10  1  0.358658  0.179597  0.227219  1
  Lu  Lu11  1  0.820842  0.179158  0.227649  1
  Lu  Lu12  1  0.666511  0.333489  0.912117  1
  Lu  Lu13  1  0.333488  0.666512  0.412153  1
  Lu  Lu14  1  0.000015  0.999985  0.508546  1
  Lu  Lu15  1  0.999941  0.000059  0.008253  1
  In  In16  1  0.837700  0.675309  0.770799  1
  In  In17  1  0.324691  0.162300  0.770799  1
  In  In18  1  0.837631  0.162369  0.770496  1
  In  In19  1  0.163212  0.325988  0.269943  1
  In  In20  1  0.674012  0.836788  0.269943  1
  In  In21  1  0.162828  0.837172  0.270093  1
  Fe  Fe22  1  0.666784  0.333216  0.298075  1
  Co  Co23  1  0.333613  0.666387  0.797915  1
