# generated using pymatgen
data_Na2PdRhPb2
_symmetry_space_group_name_H-M   'P 1'
_cell_length_a   5.97666012
_cell_length_b   5.97665946
_cell_length_c   5.33719422
_cell_angle_alpha   105.67138311
_cell_angle_beta   105.67138971
_cell_angle_gamma   121.16890991
_symmetry_Int_Tables_number   1
_chemical_formula_structural   Na2PdRhPb2
_chemical_formula_sum   'Na2 Pd1 Rh1 Pb2'
_cell_volume   136.23888672
_cell_formula_units_Z   1
loop_
 _symmetry_equiv_pos_site_id
 _symmetry_equiv_pos_as_xyz
  1  'x, y, z'
loop_
 _atom_site_type_symbol
 _atom_site_label
 _atom_site_symmetry_multiplicity
 _atom_site_fract_x
 _atom_site_fract_y
 _atom_site_fract_z
 _atom_site_occupancy
  Na  Na0  1  0.921241  0.421241  0.842482  1
  Na  Na1  1  0.578759  0.078759  0.157518  1
  Pd  Pd2  1  0.000000  0.000000  0.000000  1
  Rh  Rh3  1  0.500000  0.500000  0.000000  1
  Pb  Pb4  1  0.085493  0.914507  0.500000  1
  Pb  Pb5  1  0.414507  0.585493  0.500000  1
