# generated using pymatgen
data_DyThP2
_symmetry_space_group_name_H-M   'P 1'
_cell_length_a   7.00303458
_cell_length_b   7.00303438
_cell_length_c   7.00303481
_cell_angle_alpha   34.00569890
_cell_angle_beta   34.00569690
_cell_angle_gamma   34.00569980
_symmetry_Int_Tables_number   1
_chemical_formula_structural   DyThP2
_chemical_formula_sum   'Dy1 Th1 P2'
_cell_volume   95.75805105
_cell_formula_units_Z   1
loop_
 _symmetry_equiv_pos_site_id
 _symmetry_equiv_pos_as_xyz
  1  'x, y, z'
loop_
 _atom_site_type_symbol
 _atom_site_label
 _atom_site_symmetry_multiplicity
 _atom_site_fract_x
 _atom_site_fract_y
 _atom_site_fract_z
 _atom_site_occupancy
  Dy  Dy0  1  0.000000  0.000000  0.000000  1
  Th  Th1  1  0.500000  0.500000  0.500000  1
  P  P2  1  0.252368  0.252368  0.252368  1
  P  P3  1  0.747632  0.747632  0.747632  1
