# generated using pymatgen
data_Er8Ta9Ge16Mo3
_symmetry_space_group_name_H-M   'P 1'
_cell_length_a   6.91079131
_cell_length_b   7.12085880
_cell_length_c   13.47232600
_cell_angle_alpha   90.00000000
_cell_angle_beta   90.00000000
_cell_angle_gamma   89.95575488
_symmetry_Int_Tables_number   1
_chemical_formula_structural   Er8Ta9Ge16Mo3
_chemical_formula_sum   'Er8 Ta9 Ge16 Mo3'
_cell_volume   662.98332615
_cell_formula_units_Z   1
loop_
 _symmetry_equiv_pos_site_id
 _symmetry_equiv_pos_as_xyz
  1  'x, y, z'
loop_
 _atom_site_type_symbol
 _atom_site_label
 _atom_site_symmetry_multiplicity
 _atom_site_fract_x
 _atom_site_fract_y
 _atom_site_fract_z
 _atom_site_occupancy
  Er  Er0  1  0.494311  0.324844  0.092592  1
  Er  Er1  1  0.994087  0.175388  0.407339  1
  Er  Er2  1  0.505506  0.674781  0.593056  1
  Er  Er3  1  0.005444  0.824907  0.906885  1
  Er  Er4  1  0.505506  0.674781  0.906944  1
  Er  Er5  1  0.005444  0.824907  0.593115  1
  Er  Er6  1  0.494311  0.324844  0.407408  1
  Er  Er7  1  0.994087  0.175388  0.092661  1
  Ta  Ta8  1  0.840070  0.334680  0.626794  1
  Ta  Ta9  1  0.339710  0.165647  0.873826  1
  Ta  Ta10  1  0.159988  0.664509  0.127246  1
  Ta  Ta11  1  0.660248  0.835717  0.372136  1
  Ta  Ta12  1  0.159988  0.664509  0.372754  1
  Ta  Ta13  1  0.660248  0.835717  0.127864  1
  Ta  Ta14  1  0.840070  0.334680  0.873206  1
  Ta  Ta15  1  0.339710  0.165647  0.626174  1
  Ta  Ta16  1  0.664212  0.013783  0.750000  1
  Ge  Ge17  1  0.678044  0.040425  0.542539  1
  Ge  Ge18  1  0.177506  0.458220  0.957049  1
  Ge  Ge19  1  0.322248  0.957867  0.043389  1
  Ge  Ge20  1  0.822440  0.542490  0.456740  1
  Ge  Ge21  1  0.322248  0.957867  0.456611  1
  Ge  Ge22  1  0.822440  0.542490  0.043260  1
  Ge  Ge23  1  0.678044  0.040425  0.957461  1
  Ge  Ge24  1  0.177506  0.458220  0.542951  1
  Ge  Ge25  1  0.533662  0.382757  0.750000  1
  Ge  Ge26  1  0.039920  0.119235  0.750000  1
  Ge  Ge27  1  0.463525  0.618210  0.250000  1
  Ge  Ge28  1  0.964790  0.882570  0.250000  1
  Ge  Ge29  1  0.805986  0.642478  0.750000  1
  Ge  Ge30  1  0.304924  0.853923  0.750000  1
  Ge  Ge31  1  0.193688  0.354889  0.250000  1
  Ge  Ge32  1  0.693594  0.145745  0.250000  1
  Mo  Mo33  1  0.162906  0.486726  0.750000  1
  Mo  Mo34  1  0.337210  0.986336  0.250000  1
  Mo  Mo35  1  0.836379  0.514403  0.250000  1
