# generated using pymatgen
data_CsRb3(SbPt)4
_symmetry_space_group_name_H-M   'P 1'
_cell_length_a   7.28366352
_cell_length_b   7.28366292
_cell_length_c   7.28366356
_cell_angle_alpha   90.13026313
_cell_angle_beta   89.86973752
_cell_angle_gamma   90.13026304
_symmetry_Int_Tables_number   1
_chemical_formula_structural   CsRb3(SbPt)4
_chemical_formula_sum   'Cs1 Rb3 Sb4 Pt4'
_cell_volume   386.40810604
_cell_formula_units_Z   1
loop_
 _symmetry_equiv_pos_site_id
 _symmetry_equiv_pos_as_xyz
  1  'x, y, z'
loop_
 _atom_site_type_symbol
 _atom_site_label
 _atom_site_symmetry_multiplicity
 _atom_site_fract_x
 _atom_site_fract_y
 _atom_site_fract_z
 _atom_site_occupancy
  Cs  Cs0  1  0.861540  0.638460  0.361540  1
  Rb  Rb1  1  0.636569  0.361648  0.862890  1
  Rb  Rb2  1  0.362890  0.863431  0.638352  1
  Rb  Rb3  1  0.138352  0.137110  0.136569  1
  Sb  Sb4  1  0.154561  0.345439  0.654561  1
  Sb  Sb5  1  0.653399  0.153300  0.347209  1
  Sb  Sb6  1  0.346700  0.652791  0.153399  1
  Sb  Sb7  1  0.847209  0.846601  0.846700  1
  Pt  Pt8  1  0.598560  0.901440  0.098560  1
  Pt  Pt9  1  0.101199  0.600354  0.899374  1
  Pt  Pt10  1  0.399374  0.398801  0.399646  1
  Pt  Pt11  1  0.899646  0.100626  0.601199  1
