# generated using pymatgen
data_Rb3Cu2AgP2
_symmetry_space_group_name_H-M   'P 1'
_cell_length_a   7.78289378
_cell_length_b   7.74594066
_cell_length_c   7.78289430
_cell_angle_alpha   46.71888940
_cell_angle_beta   45.52648539
_cell_angle_gamma   46.71889141
_symmetry_Int_Tables_number   1
_chemical_formula_structural   Rb3Cu2AgP2
_chemical_formula_sum   'Rb3 Cu2 Ag1 P2'
_cell_volume   223.90272267
_cell_formula_units_Z   1
loop_
 _symmetry_equiv_pos_site_id
 _symmetry_equiv_pos_as_xyz
  1  'x, y, z'
loop_
 _atom_site_type_symbol
 _atom_site_label
 _atom_site_symmetry_multiplicity
 _atom_site_fract_x
 _atom_site_fract_y
 _atom_site_fract_z
 _atom_site_occupancy
  Rb  Rb0  1  0.903079  0.916934  0.903079  1
  Rb  Rb1  1  0.500000  0.500000  0.500000  1
  Rb  Rb2  1  0.096921  0.083066  0.096921  1
  Cu  Cu3  1  0.000000  0.500000  0.500000  1
  Cu  Cu4  1  0.500000  0.500000  0.000000  1
  Ag  Ag5  1  0.500000  0.000000  0.500000  1
  P  P6  1  0.246694  0.287424  0.246694  1
  P  P7  1  0.753306  0.712576  0.753306  1
