# generated using pymatgen
data_HoTm15In2(AgIr2)2
_symmetry_space_group_name_H-M   'P 1'
_cell_length_a   9.48649456
_cell_length_b   9.48159266
_cell_length_c   9.50739925
_cell_angle_alpha   59.93286718
_cell_angle_beta   59.92281281
_cell_angle_gamma   59.88374185
_symmetry_Int_Tables_number   1
_chemical_formula_structural   HoTm15In2(AgIr2)2
_chemical_formula_sum   'Ho1 Tm15 In2 Ag2 Ir4'
_cell_volume   603.49966869
_cell_formula_units_Z   1
loop_
 _symmetry_equiv_pos_site_id
 _symmetry_equiv_pos_as_xyz
  1  'x, y, z'
loop_
 _atom_site_type_symbol
 _atom_site_label
 _atom_site_symmetry_multiplicity
 _atom_site_fract_x
 _atom_site_fract_y
 _atom_site_fract_z
 _atom_site_occupancy
  Ho  Ho0  1  0.439046  0.065326  0.437058  1
  Tm  Tm1  1  0.439434  0.439764  0.060158  1
  Tm  Tm2  1  0.650032  0.649952  0.049911  1
  Tm  Tm3  1  0.190563  0.810068  0.190420  1
  Tm  Tm4  1  0.065189  0.439187  0.058526  1
  Tm  Tm5  1  0.190417  0.809975  0.809089  1
  Tm  Tm6  1  0.064885  0.439516  0.437126  1
  Tm  Tm7  1  0.810353  0.190639  0.190246  1
  Tm  Tm8  1  0.650115  0.649868  0.650171  1
  Tm  Tm9  1  0.810115  0.190526  0.808904  1
  Tm  Tm10  1  0.189505  0.189699  0.810627  1
  Tm  Tm11  1  0.050290  0.649561  0.650151  1
  Tm  Tm12  1  0.439233  0.065185  0.058207  1
  Tm  Tm13  1  0.062386  0.062734  0.437338  1
  Tm  Tm14  1  0.649829  0.050176  0.650191  1
  Tm  Tm15  1  0.808555  0.808195  0.191518  1
  In  In16  1  0.416550  0.742520  0.420372  1
  In  In17  1  0.742933  0.416480  0.420305  1
  Ag  Ag18  1  0.416242  0.416789  0.417625  1
  Ag  Ag19  1  0.416329  0.416249  0.749692  1
  Ir  Ir20  1  0.424950  0.857583  0.858910  1
  Ir  Ir21  1  0.857517  0.857537  0.859371  1
  Ir  Ir22  1  0.857727  0.425049  0.858605  1
  Ir  Ir23  1  0.857803  0.857422  0.425485  1
