# generated using pymatgen
data_Nd20Si11Te
_symmetry_space_group_name_H-M   'P 1'
_cell_length_a   7.75186700
_cell_length_b   7.75186700
_cell_length_c   14.31160400
_cell_angle_alpha   90.00000000
_cell_angle_beta   90.00000000
_cell_angle_gamma   90.00000000
_symmetry_Int_Tables_number   1
_chemical_formula_structural   Nd20Si11Te
_chemical_formula_sum   'Nd20 Si11 Te1'
_cell_volume   860.00492149
_cell_formula_units_Z   1
loop_
 _symmetry_equiv_pos_site_id
 _symmetry_equiv_pos_as_xyz
  1  'x, y, z'
loop_
 _atom_site_type_symbol
 _atom_site_label
 _atom_site_symmetry_multiplicity
 _atom_site_fract_x
 _atom_site_fract_y
 _atom_site_fract_z
 _atom_site_occupancy
  Nd  Nd0  1  0.329002  0.684862  0.111415  1
  Nd  Nd1  1  0.184862  0.170998  0.111415  1
  Nd  Nd2  1  0.500000  0.000000  0.720459  1
  Nd  Nd3  1  0.322594  0.678678  0.397572  1
  Nd  Nd4  1  0.665849  0.688535  0.888631  1
  Nd  Nd5  1  0.178678  0.177406  0.397572  1
  Nd  Nd6  1  0.677406  0.321322  0.397572  1
  Nd  Nd7  1  0.171184  0.815926  0.603501  1
  Nd  Nd8  1  0.334151  0.311465  0.888631  1
  Nd  Nd9  1  0.188535  0.834151  0.888631  1
  Nd  Nd10  1  0.500000  0.000000  0.261651  1
  Nd  Nd11  1  0.828816  0.184074  0.603501  1
  Nd  Nd12  1  0.315926  0.328816  0.603501  1
  Nd  Nd13  1  0.821322  0.822594  0.397572  1
  Nd  Nd14  1  0.811465  0.165849  0.888631  1
  Nd  Nd15  1  0.815138  0.829002  0.111415  1
  Nd  Nd16  1  0.000000  0.500000  0.261676  1
  Nd  Nd17  1  0.000000  0.500000  0.748590  1
  Nd  Nd18  1  0.670998  0.315138  0.111415  1
  Nd  Nd19  1  0.684074  0.671184  0.603501  1
  Si  Si20  1  0.114790  0.116194  0.748191  1
  Si  Si21  1  0.383806  0.614790  0.748191  1
  Si  Si22  1  0.615744  0.614914  0.252274  1
  Si  Si23  1  0.500000  0.000000  0.007091  1
  Si  Si24  1  0.114914  0.884256  0.252274  1
  Si  Si25  1  0.616194  0.385210  0.748191  1
  Si  Si26  1  0.885210  0.883806  0.748191  1
  Si  Si27  1  0.384256  0.385086  0.252274  1
  Si  Si28  1  0.885086  0.115744  0.252274  1
  Si  Si29  1  0.500000  0.000000  0.498612  1
  Si  Si30  1  0.000000  0.500000  0.499176  1
  Te  Te31  1  0.000000  0.500000  0.996412  1
