# generated using pymatgen
data_Ta8Tl(PbO5)5
_symmetry_space_group_name_H-M   'P 1'
_cell_length_a   7.54596298
_cell_length_b   7.53281067
_cell_length_c   10.62131900
_cell_angle_alpha   90.00653369
_cell_angle_beta   90.08330938
_cell_angle_gamma   90.02327294
_symmetry_Int_Tables_number   1
_chemical_formula_structural   Ta8Tl(PbO5)5
_chemical_formula_sum   'Ta8 Tl1 Pb5 O25'
_cell_volume   603.73961983
_cell_formula_units_Z   1
loop_
 _symmetry_equiv_pos_site_id
 _symmetry_equiv_pos_as_xyz
  1  'x, y, z'
loop_
 _atom_site_type_symbol
 _atom_site_label
 _atom_site_symmetry_multiplicity
 _atom_site_fract_x
 _atom_site_fract_y
 _atom_site_fract_z
 _atom_site_occupancy
  Ta  Ta0  1  0.750686  0.003794  0.123650  1
  Ta  Ta1  1  0.502421  0.257075  0.372920  1
  Ta  Ta2  1  0.249209  0.005371  0.122968  1
  Ta  Ta3  1  0.248702  0.505396  0.618104  1
  Ta  Ta4  1  0.998137  0.255690  0.870606  1
  Ta  Ta5  1  0.999877  0.754702  0.870620  1
  Ta  Ta6  1  0.754531  0.507441  0.616952  1
  Ta  Ta7  1  0.497763  0.759743  0.375463  1
  Tl  Tl8  1  0.082889  0.048391  0.434535  1
  Pb  Pb9  1  0.731769  0.013583  0.627860  1
  Pb  Pb10  1  0.745220  0.506273  0.128712  1
  Pb  Pb11  1  0.484343  0.253945  0.865247  1
  Pb  Pb12  1  0.489637  0.752940  0.862124  1
  Pb  Pb13  1  0.243575  0.511403  0.131665  1
  O  O14  1  0.317486  0.320943  0.497963  1
  O  O15  1  0.998972  0.006612  0.178842  1
  O  O16  1  0.991501  0.003844  0.815670  1
  O  O17  1  0.810896  0.312265  0.745798  1
  O  O18  1  0.806442  0.197454  0.997680  1
  O  O19  1  0.806642  0.811252  0.998557  1
  O  O20  1  0.684555  0.314263  0.501406  1
  O  O21  1  0.501808  0.505403  0.694852  1
  O  O22  1  0.496483  0.005627  0.054910  1
  O  O23  1  0.500298  0.505839  0.304181  1
  O  O24  1  0.491330  0.506150  0.005286  1
  O  O25  1  0.311700  0.190748  0.249495  1
  O  O26  1  0.311276  0.817888  0.248328  1
  O  O27  1  0.318436  0.690199  0.499380  1
  O  O28  1  0.191027  0.196375  0.997714  1
  O  O29  1  0.190492  0.320635  0.753779  1
  O  O30  1  0.189826  0.809331  0.000218  1
  O  O31  1  0.000763  0.503957  0.567863  1
  O  O32  1  0.994395  0.504080  0.940430  1
  O  O33  1  0.809963  0.693014  0.748558  1
  O  O34  1  0.682531  0.195583  0.244283  1
  O  O35  1  0.680574  0.816218  0.244066  1
  O  O36  1  0.684331  0.693372  0.499950  1
  O  O37  1  0.506871  0.006569  0.435283  1
  O  O38  1  0.190740  0.688541  0.754085  1
