# generated using pymatgen
data_Yb6SmDyBi6
_symmetry_space_group_name_H-M   'P 1'
_cell_length_a   8.21855665
_cell_length_b   8.37721137
_cell_length_c   8.37721139
_cell_angle_alpha   109.85168325
_cell_angle_beta   109.08802522
_cell_angle_gamma   109.08802395
_symmetry_Int_Tables_number   1
_chemical_formula_structural   Yb6SmDyBi6
_chemical_formula_sum   'Yb6 Sm1 Dy1 Bi6'
_cell_volume   446.07166404
_cell_formula_units_Z   1
loop_
 _symmetry_equiv_pos_site_id
 _symmetry_equiv_pos_as_xyz
  1  'x, y, z'
loop_
 _atom_site_type_symbol
 _atom_site_label
 _atom_site_symmetry_multiplicity
 _atom_site_fract_x
 _atom_site_fract_y
 _atom_site_fract_z
 _atom_site_occupancy
  Yb  Yb0  1  0.501073  0.998582  0.645340  1
  Yb  Yb1  1  0.355461  0.353172  0.354650  1
  Yb  Yb2  1  0.502290  0.001478  0.146828  1
  Yb  Yb3  1  0.002492  0.646758  0.501418  1
  Yb  Yb4  1  0.855733  0.854660  0.853242  1
  Yb  Yb5  1  0.000811  0.145350  0.498522  1
  Sm  Sm6  1  0.139821  0.500000  0.000000  1
  Dy  Dy7  1  0.639751  0.500000  0.000000  1
  Bi  Bi8  1  0.378494  0.623470  0.754457  1
  Bi  Bi9  1  0.874169  0.253298  0.124195  1
  Bi  Bi10  1  0.624036  0.745543  0.369012  1
  Bi  Bi11  1  0.120870  0.870895  0.246702  1
  Bi  Bi12  1  0.255024  0.130988  0.876530  1
  Bi  Bi13  1  0.749975  0.375805  0.629105  1
