# generated using pymatgen
data_HoPuF7
_symmetry_space_group_name_H-M   'P 1'
_cell_length_a   5.89195300
_cell_length_b   6.22815236
_cell_length_c   8.49189876
_cell_angle_alpha   103.17829268
_cell_angle_beta   90.00000000
_cell_angle_gamma   90.00000000
_symmetry_Int_Tables_number   1
_chemical_formula_structural   HoPuF7
_chemical_formula_sum   'Ho2 Pu2 F14'
_cell_volume   303.41218912
_cell_formula_units_Z   2
loop_
 _symmetry_equiv_pos_site_id
 _symmetry_equiv_pos_as_xyz
  1  'x, y, z'
loop_
 _atom_site_type_symbol
 _atom_site_label
 _atom_site_symmetry_multiplicity
 _atom_site_fract_x
 _atom_site_fract_y
 _atom_site_fract_z
 _atom_site_occupancy
  Ho  Ho0  1  0.699230  0.650551  0.682471  1
  Ho  Ho1  1  0.199230  0.349449  0.317529  1
  Pu  Pu2  1  0.706707  0.812940  0.226188  1
  Pu  Pu3  1  0.206707  0.187060  0.773812  1
  F  F4  1  0.908744  0.472340  0.482435  1
  F  F5  1  0.408744  0.527660  0.517565  1
  F  F6  1  0.433492  0.911869  0.763880  1
  F  F7  1  0.933492  0.088131  0.236120  1
  F  F8  1  0.939009  0.941601  0.757340  1
  F  F9  1  0.439009  0.058399  0.242660  1
  F  F10  1  0.981558  0.465351  0.788294  1
  F  F11  1  0.481558  0.534649  0.211706  1
  F  F12  1  0.697479  0.757625  0.968588  1
  F  F13  1  0.197479  0.242375  0.031412  1
  F  F14  1  0.699656  0.865770  0.484751  1
  F  F15  1  0.199656  0.134230  0.515249  1
  F  F16  1  0.510484  0.389416  0.780886  1
  F  F17  1  0.010484  0.610584  0.219114  1
