# generated using pymatgen
data_Gd7Dy(Pt2Pb)4
_symmetry_space_group_name_H-M   'P 1'
_cell_length_a   8.03066400
_cell_length_b   8.03066483
_cell_length_c   7.39408500
_cell_angle_alpha   90.00000000
_cell_angle_beta   90.00000000
_cell_angle_gamma   89.85468181
_symmetry_Int_Tables_number   1
_chemical_formula_structural   Gd7Dy(Pt2Pb)4
_chemical_formula_sum   'Gd7 Dy1 Pt8 Pb4'
_cell_volume   476.85462359
_cell_formula_units_Z   1
loop_
 _symmetry_equiv_pos_site_id
 _symmetry_equiv_pos_as_xyz
  1  'x, y, z'
loop_
 _atom_site_type_symbol
 _atom_site_label
 _atom_site_symmetry_multiplicity
 _atom_site_fract_x
 _atom_site_fract_y
 _atom_site_fract_z
 _atom_site_occupancy
  Gd  Gd0  1  0.671766  0.670307  0.000000  1
  Gd  Gd1  1  0.333831  0.335263  0.500000  1
  Gd  Gd2  1  0.829207  0.170793  0.500000  1
  Gd  Gd3  1  0.664737  0.666169  0.500000  1
  Gd  Gd4  1  0.329693  0.328234  0.000000  1
  Gd  Gd5  1  0.172031  0.827969  0.500000  1
  Gd  Gd6  1  0.833636  0.166364  0.000000  1
  Dy  Dy7  1  0.163927  0.836073  0.000000  1
  Pt  Pt8  1  0.873585  0.872029  0.744885  1
  Pt  Pt9  1  0.127971  0.126415  0.744885  1
  Pt  Pt10  1  0.627006  0.372994  0.754455  1
  Pt  Pt11  1  0.627006  0.372994  0.245545  1
  Pt  Pt12  1  0.371179  0.628821  0.239956  1
  Pt  Pt13  1  0.127971  0.126415  0.255115  1
  Pt  Pt14  1  0.873585  0.872029  0.255115  1
  Pt  Pt15  1  0.371179  0.628821  0.760044  1
  Pb  Pb16  1  0.500244  0.999399  0.752152  1
  Pb  Pb17  1  0.500244  0.999399  0.247848  1
  Pb  Pb18  1  0.000601  0.499756  0.752152  1
  Pb  Pb19  1  0.000601  0.499756  0.247848  1
