# generated using pymatgen
data_Tb16Ag4Ir3Rh
_symmetry_space_group_name_H-M   'P 1'
_cell_length_a   9.57803872
_cell_length_b   9.60532926
_cell_length_c   9.60532900
_cell_angle_alpha   59.99999744
_cell_angle_beta   59.90569908
_cell_angle_gamma   59.90569736
_symmetry_Int_Tables_number   1
_chemical_formula_structural   Tb16Ag4Ir3Rh
_chemical_formula_sum   'Tb16 Ag4 Ir3 Rh1'
_cell_volume   623.97268698
_cell_formula_units_Z   1
loop_
 _symmetry_equiv_pos_site_id
 _symmetry_equiv_pos_as_xyz
  1  'x, y, z'
loop_
 _atom_site_type_symbol
 _atom_site_label
 _atom_site_symmetry_multiplicity
 _atom_site_fract_x
 _atom_site_fract_y
 _atom_site_fract_z
 _atom_site_occupancy
  Tb  Tb0  1  0.306935  0.897688  0.897688  1
  Tb  Tb1  1  0.687187  0.313750  0.685312  1
  Tb  Tb2  1  0.313428  0.686567  0.313440  1
  Tb  Tb3  1  0.061905  0.438535  0.438535  1
  Tb  Tb4  1  0.687187  0.313750  0.313750  1
  Tb  Tb5  1  0.438328  0.061411  0.438851  1
  Tb  Tb6  1  0.438328  0.061411  0.061411  1
  Tb  Tb7  1  0.897315  0.897345  0.897345  1
  Tb  Tb8  1  0.061905  0.438535  0.061025  1
  Tb  Tb9  1  0.897315  0.307996  0.897345  1
  Tb  Tb10  1  0.313428  0.686567  0.686567  1
  Tb  Tb11  1  0.897315  0.897345  0.307996  1
  Tb  Tb12  1  0.438328  0.438851  0.061411  1
  Tb  Tb13  1  0.313428  0.313440  0.686567  1
  Tb  Tb14  1  0.687187  0.685312  0.313750  1
  Tb  Tb15  1  0.061905  0.061025  0.438535  1
  Ag  Ag16  1  0.996226  0.667925  0.667925  1
  Ag  Ag17  1  0.668075  0.996342  0.667791  1
  Ag  Ag18  1  0.668075  0.667791  0.996342  1
  Ag  Ag19  1  0.668075  0.667791  0.667791  1
  Ir  Ir20  1  0.106754  0.107258  0.678728  1
  Ir  Ir21  1  0.106754  0.678728  0.107258  1
  Ir  Ir22  1  0.106754  0.107258  0.107258  1
  Rh  Rh23  1  0.677865  0.107378  0.107378  1
