# generated using pymatgen
data_Dy10ZnIrPb6
_symmetry_space_group_name_H-M   'P 1'
_cell_length_a   9.24067000
_cell_length_b   9.24066866
_cell_length_c   6.74839400
_cell_angle_alpha   90.00000000
_cell_angle_beta   90.00000000
_cell_angle_gamma   119.99999763
_symmetry_Int_Tables_number   1
_chemical_formula_structural   Dy10ZnIrPb6
_chemical_formula_sum   'Dy10 Zn1 Ir1 Pb6'
_cell_volume   499.04295847
_cell_formula_units_Z   1
loop_
 _symmetry_equiv_pos_site_id
 _symmetry_equiv_pos_as_xyz
  1  'x, y, z'
loop_
 _atom_site_type_symbol
 _atom_site_label
 _atom_site_symmetry_multiplicity
 _atom_site_fract_x
 _atom_site_fract_y
 _atom_site_fract_z
 _atom_site_occupancy
  Dy  Dy0  1  0.249237  0.000000  0.268186  1
  Dy  Dy1  1  0.000000  0.750763  0.731814  1
  Dy  Dy2  1  0.000000  0.249237  0.268186  1
  Dy  Dy3  1  0.333333  0.666667  0.500000  1
  Dy  Dy4  1  0.750763  0.000000  0.731814  1
  Dy  Dy5  1  0.666667  0.333333  0.500000  1
  Dy  Dy6  1  0.249237  0.249237  0.731814  1
  Dy  Dy7  1  0.333333  0.666667  0.000000  1
  Dy  Dy8  1  0.666667  0.333333  0.000000  1
  Dy  Dy9  1  0.750763  0.750763  0.268186  1
  Zn  Zn10  1  0.000000  0.000000  0.000000  1
  Ir  Ir11  1  0.000000  0.000000  0.500000  1
  Pb  Pb12  1  0.603940  0.000000  0.246364  1
  Pb  Pb13  1  0.396060  0.000000  0.753636  1
  Pb  Pb14  1  0.000000  0.603940  0.246364  1
  Pb  Pb15  1  0.603940  0.603940  0.753636  1
  Pb  Pb16  1  0.396060  0.396060  0.246364  1
  Pb  Pb17  1  0.000000  0.396060  0.753636  1
