# generated using pymatgen
data_Tm3LuMnRu7
_symmetry_space_group_name_H-M   'P 1'
_cell_length_a   5.30669000
_cell_length_b   5.17995674
_cell_length_c   8.85948960
_cell_angle_alpha   89.96358138
_cell_angle_beta   90.00000000
_cell_angle_gamma   120.81267352
_symmetry_Int_Tables_number   1
_chemical_formula_structural   Tm3LuMnRu7
_chemical_formula_sum   'Tm3 Lu1 Mn1 Ru7'
_cell_volume   209.15778919
_cell_formula_units_Z   1
loop_
 _symmetry_equiv_pos_site_id
 _symmetry_equiv_pos_as_xyz
  1  'x, y, z'
loop_
 _atom_site_type_symbol
 _atom_site_label
 _atom_site_symmetry_multiplicity
 _atom_site_fract_x
 _atom_site_fract_y
 _atom_site_fract_z
 _atom_site_occupancy
  Tm  Tm0  1  0.331126  0.662255  0.432844  1
  Tm  Tm1  1  0.667967  0.335933  0.566383  1
  Tm  Tm2  1  0.667968  0.335934  0.934042  1
  Lu  Lu3  1  0.330827  0.661657  0.066959  1
  Mn  Mn4  1  0.166908  0.333817  0.750401  1
  Ru  Ru5  1  0.172332  0.824543  0.750585  1
  Ru  Ru6  1  0.346561  0.172760  0.249245  1
  Ru  Ru7  1  0.834648  0.669297  0.249328  1
  Ru  Ru8  1  0.652210  0.824543  0.750585  1
  Ru  Ru9  1  0.001743  0.003486  0.997927  1
  Ru  Ru10  1  0.826200  0.172760  0.249245  1
  Ru  Ru11  1  0.001510  0.003020  0.502456  1
