# generated using pymatgen
data_Dy3Ho17AlBi11
_symmetry_space_group_name_H-M   'P 1'
_cell_length_a   8.21185680
_cell_length_b   9.47444300
_cell_length_c   12.00349700
_cell_angle_alpha   90.00000000
_cell_angle_beta   90.28300775
_cell_angle_gamma   90.00000000
_symmetry_Int_Tables_number   1
_chemical_formula_structural   Dy3Ho17AlBi11
_chemical_formula_sum   'Dy3 Ho17 Al1 Bi11'
_cell_volume   933.89391353
_cell_formula_units_Z   1
loop_
 _symmetry_equiv_pos_site_id
 _symmetry_equiv_pos_as_xyz
  1  'x, y, z'
loop_
 _atom_site_type_symbol
 _atom_site_label
 _atom_site_symmetry_multiplicity
 _atom_site_fract_x
 _atom_site_fract_y
 _atom_site_fract_z
 _atom_site_occupancy
  Dy  Dy0  1  0.312944  0.250000  0.219744  1
  Dy  Dy1  1  0.811245  0.250000  0.281014  1
  Dy  Dy2  1  0.190015  0.750000  0.722638  1
  Ho  Ho3  1  0.354669  0.750000  0.207202  1
  Ho  Ho4  1  0.852592  0.750000  0.284997  1
  Ho  Ho5  1  0.648301  0.250000  0.784657  1
  Ho  Ho6  1  0.149676  0.250000  0.715566  1
  Ho  Ho7  1  0.685967  0.569266  0.055505  1
  Ho  Ho8  1  0.193826  0.936160  0.440480  1
  Ho  Ho9  1  0.307631  0.052655  0.941286  1
  Ho  Ho10  1  0.806311  0.436283  0.558853  1
  Ho  Ho11  1  0.307631  0.447345  0.941286  1
  Ho  Ho12  1  0.806311  0.063717  0.558853  1
  Ho  Ho13  1  0.685967  0.930734  0.055505  1
  Ho  Ho14  1  0.193826  0.563840  0.440480  1
  Ho  Ho15  1  0.474909  0.250000  0.488585  1
  Ho  Ho16  1  0.977492  0.250000  0.011157  1
  Ho  Ho17  1  0.525744  0.750000  0.511602  1
  Ho  Ho18  1  0.034543  0.750000  0.989240  1
  Ho  Ho19  1  0.678609  0.750000  0.785984  1
  Al  Al20  1  0.408833  0.750000  0.958534  1
  Bi  Bi21  1  0.908690  0.750000  0.543929  1
  Bi  Bi22  1  0.592552  0.250000  0.042759  1
  Bi  Bi23  1  0.092132  0.250000  0.457444  1
  Bi  Bi24  1  0.564438  0.995346  0.325896  1
  Bi  Bi25  1  0.063712  0.503905  0.175405  1
  Bi  Bi26  1  0.436095  0.496098  0.675227  1
  Bi  Bi27  1  0.935549  0.004003  0.824821  1
  Bi  Bi28  1  0.436095  0.003902  0.675227  1
  Bi  Bi29  1  0.935549  0.495997  0.824821  1
  Bi  Bi30  1  0.564438  0.504654  0.325896  1
  Bi  Bi31  1  0.063712  0.996095  0.175405  1
