# generated using pymatgen
data_K4Mn2VFeF14
_symmetry_space_group_name_H-M   'P 1'
_cell_length_a   7.86816745
_cell_length_b   7.87365314
_cell_length_c   7.87365236
_cell_angle_alpha   120.83281260
_cell_angle_beta   117.20129760
_cell_angle_gamma   91.75851827
_symmetry_Int_Tables_number   1
_chemical_formula_structural   K4Mn2VFeF14
_chemical_formula_sum   'K4 Mn2 V1 Fe1 F14'
_cell_volume   349.37964376
_cell_formula_units_Z   1
loop_
 _symmetry_equiv_pos_site_id
 _symmetry_equiv_pos_as_xyz
  1  'x, y, z'
loop_
 _atom_site_type_symbol
 _atom_site_label
 _atom_site_symmetry_multiplicity
 _atom_site_fract_x
 _atom_site_fract_y
 _atom_site_fract_z
 _atom_site_occupancy
  K  K0  1  0.500000  0.500000  0.000000  1
  K  K1  1  0.000000  0.000000  0.000000  1
  K  K2  1  0.000000  0.500000  0.000000  1
  K  K3  1  0.000000  0.000000  0.500000  1
  Mn  Mn4  1  0.500000  0.500000  0.500000  1
  Mn  Mn5  1  0.500000  0.000000  0.000000  1
  V  V6  1  0.000000  0.500000  0.500000  1
  Fe  Fe7  1  0.500000  0.000000  0.500000  1
  F  F8  1  0.875768  0.589841  0.285927  1
  F  F9  1  0.206986  0.916152  0.290834  1
  F  F10  1  0.183550  0.795927  0.753939  1
  F  F11  1  0.458051  0.703540  0.387512  1
  F  F12  1  0.458051  0.070539  0.754511  1
  F  F13  1  0.183550  0.429611  0.387622  1
  F  F14  1  0.816450  0.570389  0.612378  1
  F  F15  1  0.541949  0.929461  0.245489  1
  F  F16  1  0.541949  0.296460  0.612488  1
  F  F17  1  0.816450  0.204073  0.246061  1
  F  F18  1  0.393095  0.248951  0.144143  1
  F  F19  1  0.124232  0.410159  0.714073  1
  F  F20  1  0.793014  0.083848  0.709166  1
  F  F21  1  0.606905  0.751049  0.855857  1
