# generated using pymatgen
data_Er4ReTcB12
_symmetry_space_group_name_H-M   'P 1'
_cell_length_a   3.65969900
_cell_length_b   9.13233700
_cell_length_c   11.50550226
_cell_angle_alpha   90.05353637
_cell_angle_beta   90.00000000
_cell_angle_gamma   90.00000000
_symmetry_Int_Tables_number   1
_chemical_formula_structural   Er4ReTcB12
_chemical_formula_sum   'Er8 Re2 Tc2 B24'
_cell_volume   384.53217895
_cell_formula_units_Z   2
loop_
 _symmetry_equiv_pos_site_id
 _symmetry_equiv_pos_as_xyz
  1  'x, y, z'
loop_
 _atom_site_type_symbol
 _atom_site_label
 _atom_site_symmetry_multiplicity
 _atom_site_fract_x
 _atom_site_fract_y
 _atom_site_fract_z
 _atom_site_occupancy
  Er  Er0  1  0.000000  0.323954  0.414014  1
  Er  Er1  1  0.000000  0.676046  0.585986  1
  Er  Er2  1  0.000000  0.823468  0.086170  1
  Er  Er3  1  0.000000  0.176532  0.913830  1
  Er  Er4  1  0.000000  0.942533  0.370047  1
  Er  Er5  1  0.000000  0.057467  0.629953  1
  Er  Er6  1  0.000000  0.444108  0.130390  1
  Er  Er7  1  0.000000  0.555892  0.869610  1
  Re  Re8  1  0.000000  0.139006  0.179238  1
  Re  Re9  1  0.000000  0.860994  0.820762  1
  Tc  Tc10  1  0.000000  0.639095  0.320788  1
  Tc  Tc11  1  0.000000  0.360905  0.679212  1
  B  B12  1  0.500000  0.553457  0.433186  1
  B  B13  1  0.500000  0.446543  0.566814  1
  B  B14  1  0.500000  0.053345  0.066679  1
  B  B15  1  0.500000  0.946655  0.933321  1
  B  B16  1  0.500000  0.749435  0.419211  1
  B  B17  1  0.500000  0.250565  0.580789  1
  B  B18  1  0.500000  0.249957  0.080605  1
  B  B19  1  0.500000  0.750043  0.919395  1
  B  B20  1  0.500000  0.792638  0.265483  1
  B  B21  1  0.500000  0.207362  0.734517  1
  B  B22  1  0.500000  0.293053  0.234615  1
  B  B23  1  0.500000  0.706947  0.765385  1
  B  B24  1  0.500000  0.631392  0.185491  1
  B  B25  1  0.500000  0.368608  0.814509  1
  B  B26  1  0.500000  0.131163  0.314813  1
  B  B27  1  0.500000  0.868837  0.685187  1
  B  B28  1  0.500000  0.981946  0.211933  1
  B  B29  1  0.500000  0.018054  0.788067  1
  B  B30  1  0.500000  0.482402  0.288189  1
  B  B31  1  0.500000  0.517598  0.711811  1
  B  B32  1  0.500000  0.600370  0.028019  1
  B  B33  1  0.500000  0.399630  0.971981  1
  B  B34  1  0.500000  0.100253  0.471875  1
  B  B35  1  0.500000  0.899747  0.528125  1
