# generated using pymatgen
data_Sm8Lu10Sc2Si15Se
_symmetry_space_group_name_H-M   'P 1'
_cell_length_a   7.40966622
_cell_length_b   7.58548821
_cell_length_c   14.40155826
_cell_angle_alpha   89.92145814
_cell_angle_beta   87.51399098
_cell_angle_gamma   90.22905245
_symmetry_Int_Tables_number   1
_chemical_formula_structural   Sm8Lu10Sc2Si15Se
_chemical_formula_sum   'Sm8 Lu10 Sc2 Si15 Se1'
_cell_volume   808.68380838
_cell_formula_units_Z   1
loop_
 _symmetry_equiv_pos_site_id
 _symmetry_equiv_pos_as_xyz
  1  'x, y, z'
loop_
 _atom_site_type_symbol
 _atom_site_label
 _atom_site_symmetry_multiplicity
 _atom_site_fract_x
 _atom_site_fract_y
 _atom_site_fract_z
 _atom_site_occupancy
  Sm  Sm0  1  0.011392  0.175814  0.097129  1
  Sm  Sm1  1  0.989218  0.826494  0.902295  1
  Sm  Sm2  1  0.489883  0.677326  0.902883  1
  Sm  Sm3  1  0.004686  0.826204  0.600620  1
  Sm  Sm4  1  0.511334  0.323613  0.097495  1
  Sm  Sm5  1  0.991040  0.172330  0.397443  1
  Sm  Sm6  1  0.496540  0.314376  0.398337  1
  Sm  Sm7  1  0.512934  0.684135  0.600979  1
  Lu  Lu8  1  0.173512  0.505331  0.754660  1
  Lu  Lu9  1  0.825261  0.495565  0.252104  1
  Lu  Lu10  1  0.322317  0.001189  0.250582  1
  Lu  Lu11  1  0.678252  0.998849  0.749900  1
  Lu  Lu12  1  0.359444  0.163033  0.624176  1
  Lu  Lu13  1  0.643032  0.831591  0.377025  1
  Lu  Lu14  1  0.142879  0.665556  0.379221  1
  Lu  Lu15  1  0.664381  0.821169  0.122255  1
  Lu  Lu16  1  0.850669  0.335252  0.619721  1
  Lu  Lu17  1  0.335081  0.178408  0.876594  1
  Sc  Sc18  1  0.834938  0.325424  0.874477  1
  Sc  Sc19  1  0.164638  0.675534  0.124630  1
  Si  Si20  1  0.047801  0.124754  0.750577  1
  Si  Si21  1  0.951305  0.877704  0.247130  1
  Si  Si22  1  0.446046  0.614644  0.247549  1
  Si  Si23  1  0.551132  0.385982  0.751280  1
  Si  Si24  1  0.297363  0.873485  0.752472  1
  Si  Si25  1  0.704208  0.123319  0.246229  1
  Si  Si26  1  0.204198  0.375962  0.246932  1
  Si  Si27  1  0.798482  0.625591  0.752412  1
  Si  Si28  1  0.795581  0.535877  0.455225  1
  Si  Si29  1  0.301995  0.961018  0.458487  1
  Si  Si30  1  0.848632  0.531618  0.037352  1
  Si  Si31  1  0.695764  0.038118  0.542927  1
  Si  Si32  1  0.150657  0.469982  0.961929  1
  Si  Si33  1  0.657763  0.038468  0.959694  1
  Si  Si34  1  0.341397  0.963259  0.040036  1
  Se  Se35  1  0.206250  0.463026  0.547245  1
