# generated using pymatgen
data_YbZr3(B4Ru5)2
_symmetry_space_group_name_H-M   'P 1'
_cell_length_a   3.00881000
_cell_length_b   8.82723623
_cell_length_c   10.03453874
_cell_angle_alpha   89.61236934
_cell_angle_beta   90.00000000
_cell_angle_gamma   90.00000000
_symmetry_Int_Tables_number   1
_chemical_formula_structural   YbZr3(B4Ru5)2
_chemical_formula_sum   'Yb1 Zr3 B8 Ru10'
_cell_volume   266.50599795
_cell_formula_units_Z   1
loop_
 _symmetry_equiv_pos_site_id
 _symmetry_equiv_pos_as_xyz
  1  'x, y, z'
loop_
 _atom_site_type_symbol
 _atom_site_label
 _atom_site_symmetry_multiplicity
 _atom_site_fract_x
 _atom_site_fract_y
 _atom_site_fract_z
 _atom_site_occupancy
  Yb  Yb0  1  0.500000  0.835804  0.181246  1
  Zr  Zr1  1  0.500000  0.163999  0.821062  1
  Zr  Zr2  1  0.500000  0.664853  0.681085  1
  Zr  Zr3  1  0.500000  0.336372  0.318313  1
  B  B4  1  0.500000  0.967745  0.585046  1
  B  B5  1  0.500000  0.030063  0.415863  1
  B  B6  1  0.500000  0.856459  0.899244  1
  B  B7  1  0.500000  0.142974  0.103596  1
  B  B8  1  0.500000  0.644506  0.395608  1
  B  B9  1  0.500000  0.356030  0.601984  1
  B  B10  1  0.500000  0.468028  0.914551  1
  B  B11  1  0.500000  0.532639  0.083371  1
  Ru  Ru12  1  0.000000  0.670902  0.944381  1
  Ru  Ru13  1  0.000000  0.327488  0.049608  1
  Ru  Ru14  1  0.000000  0.825833  0.453215  1
  Ru  Ru15  1  0.000000  0.173791  0.552427  1
  Ru  Ru16  1  0.000000  0.003267  0.998579  1
  Ru  Ru17  1  0.000000  0.412009  0.764178  1
  Ru  Ru18  1  0.000000  0.581754  0.234510  1
  Ru  Ru19  1  0.000000  0.500253  0.499756  1
  Ru  Ru20  1  0.000000  0.913684  0.735479  1
  Ru  Ru21  1  0.000000  0.091548  0.266896  1
