# generated using pymatgen
data_PrHo(TcB4)2
_symmetry_space_group_name_H-M   'P 1'
_cell_length_a   3.63465400
_cell_length_b   5.98585362
_cell_length_c   11.58948000
_cell_angle_alpha   89.85330145
_cell_angle_beta   90.00000000
_cell_angle_gamma   90.00000000
_symmetry_Int_Tables_number   1
_chemical_formula_structural   PrHo(TcB4)2
_chemical_formula_sum   'Pr2 Ho2 Tc4 B16'
_cell_volume   252.14577400
_cell_formula_units_Z   2
loop_
 _symmetry_equiv_pos_site_id
 _symmetry_equiv_pos_as_xyz
  1  'x, y, z'
loop_
 _atom_site_type_symbol
 _atom_site_label
 _atom_site_symmetry_multiplicity
 _atom_site_fract_x
 _atom_site_fract_y
 _atom_site_fract_z
 _atom_site_occupancy
  Pr  Pr0  1  0.000000  0.626274  0.348330  1
  Pr  Pr1  1  0.000000  0.373726  0.651670  1
  Ho  Ho2  1  0.000000  0.126358  0.149116  1
  Ho  Ho3  1  0.000000  0.873642  0.850884  1
  Tc  Tc4  1  0.000000  0.633526  0.085712  1
  Tc  Tc5  1  0.000000  0.366474  0.914288  1
  Tc  Tc6  1  0.000000  0.130119  0.411915  1
  Tc  Tc7  1  0.000000  0.869881  0.588085  1
  B  B8  1  0.500000  0.788405  0.182270  1
  B  B9  1  0.500000  0.211595  0.817730  1
  B  B10  1  0.500000  0.283243  0.313673  1
  B  B11  1  0.500000  0.716757  0.686327  1
  B  B12  1  0.500000  0.864359  0.031060  1
  B  B13  1  0.500000  0.135641  0.968940  1
  B  B14  1  0.500000  0.359968  0.467350  1
  B  B15  1  0.500000  0.640032  0.532650  1
  B  B16  1  0.500000  0.889187  0.453571  1
  B  B17  1  0.500000  0.110813  0.546429  1
  B  B18  1  0.500000  0.385582  0.046701  1
  B  B19  1  0.500000  0.614418  0.953299  1
  B  B20  1  0.500000  0.979198  0.306590  1
  B  B21  1  0.500000  0.020802  0.693410  1
  B  B22  1  0.500000  0.474683  0.189357  1
  B  B23  1  0.500000  0.525317  0.810643  1
