# generated using pymatgen
data_TiNb8VSe16
_symmetry_space_group_name_H-M   'P 1'
_cell_length_a   6.98774200
_cell_length_b   6.98774329
_cell_length_c   12.92298700
_cell_angle_alpha   90.00000000
_cell_angle_beta   90.00000000
_cell_angle_gamma   120.00000336
_symmetry_Int_Tables_number   1
_chemical_formula_structural   TiNb8VSe16
_chemical_formula_sum   'Ti1 Nb8 V1 Se16'
_cell_volume   546.47126191
_cell_formula_units_Z   1
loop_
 _symmetry_equiv_pos_site_id
 _symmetry_equiv_pos_as_xyz
  1  'x, y, z'
loop_
 _atom_site_type_symbol
 _atom_site_label
 _atom_site_symmetry_multiplicity
 _atom_site_fract_x
 _atom_site_fract_y
 _atom_site_fract_z
 _atom_site_occupancy
  Ti  Ti0  1  0.000000  0.000000  0.000000  1
  Nb  Nb1  1  0.000000  0.000000  0.250158  1
  Nb  Nb2  1  0.000000  0.000000  0.749842  1
  Nb  Nb3  1  0.506612  0.013224  0.250444  1
  Nb  Nb4  1  0.493388  0.986776  0.749556  1
  Nb  Nb5  1  0.986776  0.493388  0.250444  1
  Nb  Nb6  1  0.013224  0.506612  0.749556  1
  Nb  Nb7  1  0.506612  0.493388  0.250444  1
  Nb  Nb8  1  0.493388  0.506612  0.749556  1
  V  V9  1  0.000000  0.000000  0.500000  1
  Se  Se10  1  0.333333  0.666667  0.616592  1
  Se  Se11  1  0.666667  0.333333  0.383408  1
  Se  Se12  1  0.666667  0.333333  0.117348  1
  Se  Se13  1  0.333333  0.666667  0.882652  1
  Se  Se14  1  0.168263  0.336526  0.120500  1
  Se  Se15  1  0.831737  0.663474  0.879500  1
  Se  Se16  1  0.663474  0.831737  0.120500  1
  Se  Se17  1  0.832506  0.665012  0.620468  1
  Se  Se18  1  0.336526  0.168263  0.879500  1
  Se  Se19  1  0.167494  0.334988  0.379532  1
  Se  Se20  1  0.168263  0.831737  0.120500  1
  Se  Se21  1  0.334988  0.167494  0.620468  1
  Se  Se22  1  0.831737  0.168263  0.879500  1
  Se  Se23  1  0.665012  0.832506  0.379532  1
  Se  Se24  1  0.832506  0.167494  0.620468  1
  Se  Se25  1  0.167494  0.832506  0.379532  1
