# generated using pymatgen
data_Ir7OsRh
_symmetry_space_group_name_H-M   'P 1'
_cell_length_a   6.12134054
_cell_length_b   6.12134099
_cell_length_c   6.12248783
_cell_angle_alpha   95.73621635
_cell_angle_beta   95.73622773
_cell_angle_gamma   143.13630941
_symmetry_Int_Tables_number   1
_chemical_formula_structural   Ir7OsRh
_chemical_formula_sum   'Ir7 Os1 Rh1'
_cell_volume   130.57128404
_cell_formula_units_Z   1
loop_
 _symmetry_equiv_pos_site_id
 _symmetry_equiv_pos_as_xyz
  1  'x, y, z'
loop_
 _atom_site_type_symbol
 _atom_site_label
 _atom_site_symmetry_multiplicity
 _atom_site_fract_x
 _atom_site_fract_y
 _atom_site_fract_z
 _atom_site_occupancy
  Ir  Ir0  1  0.337562  0.662437  0.000000  1
  Ir  Ir1  1  0.663924  0.663695  0.327620  1
  Ir  Ir2  1  0.333130  0.001641  0.334771  1
  Ir  Ir3  1  0.000367  0.331785  0.332152  1
  Ir  Ir4  1  0.668214  0.999633  0.667847  1
  Ir  Ir5  1  0.998359  0.666869  0.665228  1
  Ir  Ir6  1  0.336305  0.336076  0.672381  1
  Os  Os7  1  0.998284  0.001716  0.000000  1
  Rh  Rh8  1  0.663854  0.336145  0.000000  1
