# generated using pymatgen
data_Tb2EuCo8P6Ru
_symmetry_space_group_name_H-M   'P 1'
_cell_length_a   3.73308000
_cell_length_b   10.57559100
_cell_length_c   12.30267400
_cell_angle_alpha   90.00000000
_cell_angle_beta   90.00000000
_cell_angle_gamma   90.00000000
_symmetry_Int_Tables_number   1
_chemical_formula_structural   Tb2EuCo8P6Ru
_chemical_formula_sum   'Tb4 Eu2 Co16 P12 Ru2'
_cell_volume   485.70375343
_cell_formula_units_Z   2
loop_
 _symmetry_equiv_pos_site_id
 _symmetry_equiv_pos_as_xyz
  1  'x, y, z'
loop_
 _atom_site_type_symbol
 _atom_site_label
 _atom_site_symmetry_multiplicity
 _atom_site_fract_x
 _atom_site_fract_y
 _atom_site_fract_z
 _atom_site_occupancy
  Tb  Tb0  1  0.500000  0.817050  0.205832  1
  Tb  Tb1  1  0.500000  0.182950  0.205832  1
  Tb  Tb2  1  0.000000  0.682950  0.794168  1
  Tb  Tb3  1  0.000000  0.317050  0.794168  1
  Eu  Eu4  1  0.000000  0.500000  0.525443  1
  Eu  Eu5  1  0.500000  0.000000  0.474557  1
  Co  Co6  1  0.500000  0.500000  0.704950  1
  Co  Co7  1  0.000000  0.000000  0.295050  1
  Co  Co8  1  0.000000  0.500000  0.985997  1
  Co  Co9  1  0.500000  0.000000  0.014003  1
  Co  Co10  1  0.500000  0.332503  0.990600  1
  Co  Co11  1  0.500000  0.667497  0.990600  1
  Co  Co12  1  0.000000  0.167497  0.009400  1
  Co  Co13  1  0.000000  0.832503  0.009400  1
  Co  Co14  1  0.500000  0.296276  0.430047  1
  Co  Co15  1  0.500000  0.703724  0.430047  1
  Co  Co16  1  0.000000  0.203724  0.569953  1
  Co  Co17  1  0.000000  0.796276  0.569953  1
  Co  Co18  1  0.500000  0.879512  0.709051  1
  Co  Co19  1  0.500000  0.120488  0.709051  1
  Co  Co20  1  0.000000  0.620488  0.290949  1
  Co  Co21  1  0.000000  0.379512  0.290949  1
  P  P22  1  0.500000  0.500000  0.882753  1
  P  P23  1  0.000000  0.000000  0.117247  1
  P  P24  1  0.500000  0.500000  0.347544  1
  P  P25  1  0.000000  0.000000  0.652456  1
  P  P26  1  0.500000  0.308553  0.616275  1
  P  P27  1  0.500000  0.691447  0.616275  1
  P  P28  1  0.000000  0.191447  0.383725  1
  P  P29  1  0.000000  0.808553  0.383725  1
  P  P30  1  0.500000  0.847113  0.894398  1
  P  P31  1  0.500000  0.152887  0.894398  1
  P  P32  1  0.000000  0.652887  0.105602  1
  P  P33  1  0.000000  0.347113  0.105602  1
  Ru  Ru34  1  0.500000  0.500000  0.158596  1
  Ru  Ru35  1  0.000000  0.000000  0.841404  1
