# generated using pymatgen
data_ZrScCr2(Co4P3)2
_symmetry_space_group_name_H-M   'P 1'
_cell_length_a   3.60552200
_cell_length_b   10.17887600
_cell_length_c   11.63944500
_cell_angle_alpha   90.00000000
_cell_angle_beta   90.00000000
_cell_angle_gamma   90.00000000
_symmetry_Int_Tables_number   1
_chemical_formula_structural   ZrScCr2(Co4P3)2
_chemical_formula_sum   'Zr2 Sc2 Cr4 Co16 P12'
_cell_volume   427.16950956
_cell_formula_units_Z   2
loop_
 _symmetry_equiv_pos_site_id
 _symmetry_equiv_pos_as_xyz
  1  'x, y, z'
loop_
 _atom_site_type_symbol
 _atom_site_label
 _atom_site_symmetry_multiplicity
 _atom_site_fract_x
 _atom_site_fract_y
 _atom_site_fract_z
 _atom_site_occupancy
  Zr  Zr0  1  0.250000  0.582600  0.704440  1
  Zr  Zr1  1  0.250000  0.917400  0.204440  1
  Sc  Sc2  1  0.750000  0.417852  0.295626  1
  Sc  Sc3  1  0.750000  0.082148  0.795626  1
  Cr  Cr4  1  0.250000  0.712525  0.988472  1
  Cr  Cr5  1  0.250000  0.787475  0.488472  1
  Cr  Cr6  1  0.750000  0.288382  0.010797  1
  Cr  Cr7  1  0.750000  0.211618  0.510797  1
  Co  Co8  1  0.250000  0.408279  0.487569  1
  Co  Co9  1  0.250000  0.091721  0.987569  1
  Co  Co10  1  0.750000  0.593157  0.512657  1
  Co  Co11  1  0.750000  0.906843  0.012657  1
  Co  Co12  1  0.250000  0.220880  0.178397  1
  Co  Co13  1  0.250000  0.279121  0.678397  1
  Co  Co14  1  0.750000  0.777993  0.821793  1
  Co  Co15  1  0.750000  0.722007  0.321793  1
  Co  Co16  1  0.250000  0.886080  0.700535  1
  Co  Co17  1  0.250000  0.613920  0.200535  1
  Co  Co18  1  0.750000  0.113386  0.299680  1
  Co  Co19  1  0.750000  0.386614  0.799680  1
  Co  Co20  1  0.250000  0.465518  0.931983  1
  Co  Co21  1  0.250000  0.034482  0.431983  1
  Co  Co22  1  0.750000  0.533482  0.068051  1
  Co  Co23  1  0.750000  0.966518  0.568051  1
  P  P24  1  0.250000  0.417710  0.115715  1
  P  P25  1  0.250000  0.082290  0.615715  1
  P  P26  1  0.750000  0.581748  0.885918  1
  P  P27  1  0.750000  0.918252  0.385918  1
  P  P28  1  0.250000  0.263956  0.868125  1
  P  P29  1  0.250000  0.236044  0.368125  1
  P  P30  1  0.750000  0.733740  0.131482  1
  P  P31  1  0.750000  0.766260  0.631482  1
  P  P32  1  0.250000  0.597195  0.389832  1
  P  P33  1  0.250000  0.902805  0.889832  1
  P  P34  1  0.750000  0.401457  0.608928  1
  P  P35  1  0.750000  0.098543  0.108928  1
