# generated using pymatgen
data_Er3Al12(FePt)2
_symmetry_space_group_name_H-M   'P 1'
_cell_length_a   8.76254849
_cell_length_b   8.76254709
_cell_length_c   9.39221715
_cell_angle_alpha   90.05589363
_cell_angle_beta   89.94410947
_cell_angle_gamma   119.95098265
_symmetry_Int_Tables_number   1
_chemical_formula_structural   Er3Al12(FePt)2
_chemical_formula_sum   'Er6 Al24 Fe4 Pt4'
_cell_volume   624.84684308
_cell_formula_units_Z   2
loop_
 _symmetry_equiv_pos_site_id
 _symmetry_equiv_pos_as_xyz
  1  'x, y, z'
loop_
 _atom_site_type_symbol
 _atom_site_label
 _atom_site_symmetry_multiplicity
 _atom_site_fract_x
 _atom_site_fract_y
 _atom_site_fract_z
 _atom_site_occupancy
  Er  Er0  1  0.191297  0.385955  0.253504  1
  Er  Er1  1  0.808703  0.614045  0.746496  1
  Er  Er2  1  0.614045  0.808703  0.253504  1
  Er  Er3  1  0.385955  0.191297  0.746496  1
  Er  Er4  1  0.193058  0.806942  0.251419  1
  Er  Er5  1  0.806942  0.193058  0.748581  1
  Al  Al6  1  0.333293  0.666707  0.030741  1
  Al  Al7  1  0.666707  0.333293  0.969259  1
  Al  Al8  1  0.672447  0.327553  0.526193  1
  Al  Al9  1  0.327553  0.672447  0.473807  1
  Al  Al10  1  0.152768  0.321244  0.574369  1
  Al  Al11  1  0.847232  0.678756  0.425631  1
  Al  Al12  1  0.678756  0.847232  0.574369  1
  Al  Al13  1  0.841968  0.683714  0.079721  1
  Al  Al14  1  0.321244  0.152768  0.425631  1
  Al  Al15  1  0.158032  0.316286  0.920279  1
  Al  Al16  1  0.161820  0.838180  0.574405  1
  Al  Al17  1  0.316286  0.158032  0.079721  1
  Al  Al18  1  0.838180  0.161820  0.425595  1
  Al  Al19  1  0.683714  0.841968  0.920279  1
  Al  Al20  1  0.841108  0.158892  0.080347  1
  Al  Al21  1  0.158892  0.841108  0.919653  1
  Al  Al22  1  0.561197  0.121928  0.259012  1
  Al  Al23  1  0.438803  0.878072  0.740988  1
  Al  Al24  1  0.878072  0.438803  0.259012  1
  Al  Al25  1  0.121928  0.561197  0.740988  1
  Al  Al26  1  0.564701  0.435299  0.250272  1
  Al  Al27  1  0.435299  0.564701  0.749728  1
  Al  Al28  1  0.999376  0.000624  0.251241  1
  Al  Al29  1  0.000624  0.999376  0.748759  1
  Fe  Fe30  1  0.500000  0.000000  0.500000  1
  Fe  Fe31  1  0.000000  0.500000  0.500000  1
  Fe  Fe32  1  0.000000  0.000000  0.000000  1
  Fe  Fe33  1  0.000000  0.000000  0.500000  1
  Pt  Pt34  1  0.500000  0.000000  0.000000  1
  Pt  Pt35  1  0.000000  0.500000  0.000000  1
  Pt  Pt36  1  0.500000  0.500000  0.000000  1
  Pt  Pt37  1  0.500000  0.500000  0.500000  1
