# generated using pymatgen
data_TmTa5MnB4Ru9
_symmetry_space_group_name_H-M   'P 1'
_cell_length_a   9.41481679
_cell_length_b   9.41481663
_cell_length_c   3.05807800
_cell_angle_alpha   90.00000000
_cell_angle_beta   90.00000000
_cell_angle_gamma   90.32313977
_symmetry_Int_Tables_number   1
_chemical_formula_structural   TmTa5MnB4Ru9
_chemical_formula_sum   'Tm1 Ta5 Mn1 B4 Ru9'
_cell_volume   271.05997272
_cell_formula_units_Z   1
loop_
 _symmetry_equiv_pos_site_id
 _symmetry_equiv_pos_as_xyz
  1  'x, y, z'
loop_
 _atom_site_type_symbol
 _atom_site_label
 _atom_site_symmetry_multiplicity
 _atom_site_fract_x
 _atom_site_fract_y
 _atom_site_fract_z
 _atom_site_occupancy
  Tm  Tm0  1  0.822896  0.677104  0.000000  1
  Ta  Ta1  1  0.179183  0.320817  0.000000  1
  Ta  Ta2  1  0.331053  0.831649  0.000000  1
  Ta  Ta3  1  0.668351  0.168947  0.000000  1
  Ta  Ta4  1  0.501292  0.500666  0.000000  1
  Ta  Ta5  1  0.999334  0.998708  0.000000  1
  Mn  Mn6  1  0.496433  0.003567  0.500000  1
  B  B7  1  0.610663  0.889337  0.000000  1
  B  B8  1  0.386525  0.113475  0.000000  1
  B  B9  1  0.123845  0.620994  0.000000  1
  B  B10  1  0.879006  0.376155  0.000000  1
  Ru  Ru11  1  0.557587  0.727058  0.500000  1
  Ru  Ru12  1  0.428961  0.279692  0.500000  1
  Ru  Ru13  1  0.082153  0.783910  0.500000  1
  Ru  Ru14  1  0.930389  0.215204  0.500000  1
  Ru  Ru15  1  0.284796  0.569611  0.500000  1
  Ru  Ru16  1  0.716090  0.417847  0.500000  1
  Ru  Ru17  1  0.220308  0.071039  0.500000  1
  Ru  Ru18  1  0.772942  0.942413  0.500000  1
  Ru  Ru19  1  0.008195  0.491805  0.500000  1
