# generated using pymatgen
data_Dy3Ho(Tc3Ru)2
_symmetry_space_group_name_H-M   'P 1'
_cell_length_a   5.25614001
_cell_length_b   5.25613918
_cell_length_c   9.19971000
_cell_angle_alpha   90.00017394
_cell_angle_beta   89.99982561
_cell_angle_gamma   119.98838013
_symmetry_Int_Tables_number   1
_chemical_formula_structural   Dy3Ho(Tc3Ru)2
_chemical_formula_sum   'Dy3 Ho1 Tc6 Ru2'
_cell_volume   220.13514838
_cell_formula_units_Z   1
loop_
 _symmetry_equiv_pos_site_id
 _symmetry_equiv_pos_as_xyz
  1  'x, y, z'
loop_
 _atom_site_type_symbol
 _atom_site_label
 _atom_site_symmetry_multiplicity
 _atom_site_fract_x
 _atom_site_fract_y
 _atom_site_fract_z
 _atom_site_occupancy
  Dy  Dy0  1  0.666693  0.333307  0.562632  1
  Dy  Dy1  1  0.333304  0.666696  0.437460  1
  Dy  Dy2  1  0.333304  0.666696  0.062483  1
  Ho  Ho3  1  0.666692  0.333308  0.937316  1
  Tc  Tc4  1  0.170975  0.341857  0.750211  1
  Tc  Tc5  1  0.170937  0.829063  0.750203  1
  Tc  Tc6  1  0.658143  0.829025  0.750211  1
  Tc  Tc7  1  0.828965  0.658006  0.249836  1
  Tc  Tc8  1  0.829005  0.170995  0.249842  1
  Tc  Tc9  1  0.341994  0.171035  0.249836  1
  Ru  Ru10  1  0.999996  0.000004  0.500029  1
  Ru  Ru11  1  0.999992  0.000008  0.999939  1
