# generated using pymatgen
data_Y3Er5Ti11Si16Au
_symmetry_space_group_name_H-M   'P 1'
_cell_length_a   7.05604890
_cell_length_b   7.05583741
_cell_length_c   12.86656873
_cell_angle_alpha   90.14094957
_cell_angle_beta   89.84361285
_cell_angle_gamma   89.62693799
_symmetry_Int_Tables_number   1
_chemical_formula_structural   Y3Er5Ti11Si16Au
_chemical_formula_sum   'Y3 Er5 Ti11 Si16 Au1'
_cell_volume   640.56135490
_cell_formula_units_Z   1
loop_
 _symmetry_equiv_pos_site_id
 _symmetry_equiv_pos_as_xyz
  1  'x, y, z'
loop_
 _atom_site_type_symbol
 _atom_site_label
 _atom_site_symmetry_multiplicity
 _atom_site_fract_x
 _atom_site_fract_y
 _atom_site_fract_z
 _atom_site_occupancy
  Y  Y0  1  0.340555  0.002659  0.466650  1
  Y  Y1  1  0.496687  0.841159  0.717104  1
  Y  Y2  1  0.502053  0.157303  0.213918  1
  Er  Er3  1  0.841502  0.497457  0.282955  1
  Er  Er4  1  0.156688  0.501571  0.785764  1
  Er  Er5  1  0.656084  0.001449  0.968556  1
  Er  Er6  1  0.001720  0.341115  0.533439  1
  Er  Er7  1  0.001348  0.656096  0.031164  1
  Ti  Ti8  1  0.174367  0.824990  0.249338  1
  Ti  Ti9  1  0.825917  0.175575  0.750731  1
  Ti  Ti10  1  0.673175  0.672111  0.499930  1
  Ti  Ti11  1  0.147105  0.007515  0.877472  1
  Ti  Ti12  1  0.495467  0.650529  0.122817  1
  Ti  Ti13  1  0.507711  0.351167  0.626269  1
  Ti  Ti14  1  0.651534  0.495632  0.877372  1
  Ti  Ti15  1  0.350832  0.507073  0.373958  1
  Ti  Ti16  1  0.850086  0.991516  0.374190  1
  Ti  Ti17  1  0.007555  0.147002  0.122762  1
  Ti  Ti18  1  0.992126  0.849734  0.625990  1
  Si  Si19  1  0.200257  0.134206  0.685123  1
  Si  Si20  1  0.373424  0.719560  0.928824  1
  Si  Si21  1  0.632837  0.295381  0.432982  1
  Si  Si22  1  0.721534  0.374361  0.071246  1
  Si  Si23  1  0.293259  0.629841  0.567153  1
  Si  Si24  1  0.799015  0.865352  0.182296  1
  Si  Si25  1  0.131381  0.202463  0.315155  1
  Si  Si26  1  0.867326  0.798007  0.817961  1
  Si  Si27  1  0.285801  0.936829  0.065707  1
  Si  Si28  1  0.548081  0.789682  0.314108  1
  Si  Si29  1  0.453572  0.209304  0.810545  1
  Si  Si30  1  0.791991  0.546754  0.685718  1
  Si  Si31  1  0.207235  0.454477  0.189680  1
  Si  Si32  1  0.709893  0.048423  0.564406  1
  Si  Si33  1  0.938113  0.286315  0.934052  1
  Si  Si34  1  0.046757  0.707409  0.435533  1
  Au  Au35  1  0.327016  0.329988  0.999133  1
