# generated using pymatgen
data_Li2LaYb2AlSi3
_symmetry_space_group_name_H-M   'P 1'
_cell_length_a   7.23728448
_cell_length_b   7.15434277
_cell_length_c   4.36532000
_cell_angle_alpha   90.00000000
_cell_angle_beta   90.00000000
_cell_angle_gamma   120.84099761
_symmetry_Int_Tables_number   1
_chemical_formula_structural   Li2LaYb2AlSi3
_chemical_formula_sum   'Li2 La1 Yb2 Al1 Si3'
_cell_volume   194.06577975
_cell_formula_units_Z   1
loop_
 _symmetry_equiv_pos_site_id
 _symmetry_equiv_pos_as_xyz
  1  'x, y, z'
loop_
 _atom_site_type_symbol
 _atom_site_label
 _atom_site_symmetry_multiplicity
 _atom_site_fract_x
 _atom_site_fract_y
 _atom_site_fract_z
 _atom_site_occupancy
  Li  Li0  1  0.241881  0.001221  0.500000  1
  Li  Li1  1  0.995739  0.232816  0.500000  1
  La  La2  1  0.007727  0.574807  0.000000  1
  Yb  Yb3  1  0.420343  0.420251  0.000000  1
  Yb  Yb4  1  0.576460  0.007473  0.000000  1
  Al  Al5  1  0.752438  0.754035  0.500000  1
  Si  Si6  1  0.353862  0.674539  0.500000  1
  Si  Si7  1  0.671313  0.350841  0.500000  1
  Si  Si8  1  0.980238  0.984021  0.000000  1
