# generated using pymatgen
data_Nd4TaIO12
_symmetry_space_group_name_H-M   'P 1'
_cell_length_a   5.44345200
_cell_length_b   9.42812725
_cell_length_c   10.32646700
_cell_angle_alpha   88.77288271
_cell_angle_beta   90.00000000
_cell_angle_gamma   90.00000000
_symmetry_Int_Tables_number   1
_chemical_formula_structural   Nd4TaIO12
_chemical_formula_sum   'Nd8 Ta2 I2 O24'
_cell_volume   529.84883288
_cell_formula_units_Z   2
loop_
 _symmetry_equiv_pos_site_id
 _symmetry_equiv_pos_as_xyz
  1  'x, y, z'
loop_
 _atom_site_type_symbol
 _atom_site_label
 _atom_site_symmetry_multiplicity
 _atom_site_fract_x
 _atom_site_fract_y
 _atom_site_fract_z
 _atom_site_occupancy
  Nd  Nd0  1  0.017642  0.106416  0.451461  1
  Nd  Nd1  1  0.517642  0.393584  0.548539  1
  Nd  Nd2  1  0.975369  0.602638  0.033562  1
  Nd  Nd3  1  0.475369  0.897362  0.966438  1
  Nd  Nd4  1  0.038424  0.225966  0.873163  1
  Nd  Nd5  1  0.538424  0.274034  0.126837  1
  Nd  Nd6  1  0.967299  0.708783  0.644596  1
  Nd  Nd7  1  0.467299  0.791217  0.355404  1
  Ta  Ta8  1  0.460691  0.504553  0.854404  1
  Ta  Ta9  1  0.960691  0.995447  0.145596  1
  I  I10  1  0.540121  0.002471  0.643691  1
  I  I11  1  0.040121  0.497529  0.356309  1
  O  O12  1  0.251508  0.409633  0.993906  1
  O  O13  1  0.751508  0.090367  0.006094  1
  O  O14  1  0.743725  0.915908  0.510986  1
  O  O15  1  0.243725  0.584092  0.489014  1
  O  O16  1  0.232204  0.111397  0.058682  1
  O  O17  1  0.732204  0.388603  0.941318  1
  O  O18  1  0.784158  0.613002  0.427735  1
  O  O19  1  0.284158  0.886998  0.572265  1
  O  O20  1  0.300400  0.366235  0.326090  1
  O  O21  1  0.800400  0.133765  0.673910  1
  O  O22  1  0.679592  0.861234  0.176455  1
  O  O23  1  0.179592  0.638766  0.823545  1
  O  O24  1  0.172704  0.954374  0.297168  1
  O  O25  1  0.672704  0.545626  0.702832  1
  O  O26  1  0.836570  0.446878  0.219168  1
  O  O27  1  0.336570  0.053122  0.780832  1
  O  O28  1  0.176169  0.637164  0.245062  1
  O  O29  1  0.676169  0.862836  0.754938  1
  O  O30  1  0.806763  0.137095  0.261606  1
  O  O31  1  0.306763  0.362905  0.738394  1
  O  O32  1  0.085601  0.841815  0.033839  1
  O  O33  1  0.585601  0.658185  0.966161  1
  O  O34  1  0.931061  0.355733  0.478598  1
  O  O35  1  0.431061  0.144267  0.521402  1
