# generated using pymatgen
data_CeEr4Al2Ru3
_symmetry_space_group_name_H-M   'P 1'
_cell_length_a   8.39426028
_cell_length_b   8.31600026
_cell_length_c   8.28772774
_cell_angle_alpha   109.95989547
_cell_angle_beta   109.33356441
_cell_angle_gamma   110.14211304
_symmetry_Int_Tables_number   1
_chemical_formula_structural   CeEr4Al2Ru3
_chemical_formula_sum   'Ce2 Er8 Al4 Ru6'
_cell_volume   439.63489953
_cell_formula_units_Z   2
loop_
 _symmetry_equiv_pos_site_id
 _symmetry_equiv_pos_as_xyz
  1  'x, y, z'
loop_
 _atom_site_type_symbol
 _atom_site_label
 _atom_site_symmetry_multiplicity
 _atom_site_fract_x
 _atom_site_fract_y
 _atom_site_fract_z
 _atom_site_occupancy
  Ce  Ce0  1  0.943499  0.252099  0.194391  1
  Ce  Ce1  1  0.195193  0.942444  0.250500  1
  Er  Er2  1  0.780609  0.784235  0.778789  1
  Er  Er3  1  0.317993  0.567552  0.752336  1
  Er  Er4  1  0.750080  0.317454  0.569137  1
  Er  Er5  1  0.569382  0.748182  0.315549  1
  Er  Er6  1  0.718155  0.502015  0.998550  1
  Er  Er7  1  0.998404  0.719017  0.504564  1
  Er  Er8  1  0.500836  0.993600  0.716280  1
  Er  Er9  1  0.253180  0.185604  0.931903  1
  Al  Al10  1  0.416186  0.411926  0.408909  1
  Al  Al11  1  0.092443  0.493879  0.995813  1
  Al  Al12  1  0.998117  0.092728  0.504923  1
  Al  Al13  1  0.502721  0.006793  0.094056  1
  Ru  Ru14  1  0.868100  0.117556  0.743946  1
  Ru  Ru15  1  0.755510  0.898694  0.123807  1
  Ru  Ru16  1  0.125792  0.761851  0.901737  1
  Ru  Ru17  1  0.227266  0.596888  0.364844  1
  Ru  Ru18  1  0.360122  0.225377  0.599122  1
  Ru  Ru19  1  0.626412  0.382105  0.250843  1
