# generated using pymatgen
data_Li5(AlAg)2
_symmetry_space_group_name_H-M   'P 1'
_cell_length_a   4.47873200
_cell_length_b   4.47873004
_cell_length_c   8.32993300
_cell_angle_alpha   90.00000000
_cell_angle_beta   90.00000000
_cell_angle_gamma   119.99999972
_symmetry_Int_Tables_number   1
_chemical_formula_structural   Li5(AlAg)2
_chemical_formula_sum   'Li5 Al2 Ag2'
_cell_volume   144.70452180
_cell_formula_units_Z   1
loop_
 _symmetry_equiv_pos_site_id
 _symmetry_equiv_pos_as_xyz
  1  'x, y, z'
loop_
 _atom_site_type_symbol
 _atom_site_label
 _atom_site_symmetry_multiplicity
 _atom_site_fract_x
 _atom_site_fract_y
 _atom_site_fract_z
 _atom_site_occupancy
  Li  Li0  1  0.333333  0.666667  0.124120  1
  Li  Li1  1  0.666667  0.333333  0.875880  1
  Li  Li2  1  0.333333  0.666667  0.451364  1
  Li  Li3  1  0.666667  0.333333  0.548636  1
  Li  Li4  1  0.000000  0.000000  0.000000  1
  Al  Al5  1  0.000000  0.000000  0.330694  1
  Al  Al6  1  0.000000  0.000000  0.669306  1
  Ag  Ag7  1  0.333333  0.666667  0.770898  1
  Ag  Ag8  1  0.666667  0.333333  0.229102  1
