# generated using pymatgen
data_Tb6Dy4Ir3Ru
_symmetry_space_group_name_H-M   'P 1'
_cell_length_a   6.46528406
_cell_length_b   7.23075377
_cell_length_c   8.60675298
_cell_angle_alpha   96.70657365
_cell_angle_beta   112.32517685
_cell_angle_gamma   90.00347131
_symmetry_Int_Tables_number   1
_chemical_formula_structural   Tb6Dy4Ir3Ru
_chemical_formula_sum   'Tb6 Dy4 Ir3 Ru1'
_cell_volume   369.21736610
_cell_formula_units_Z   1
loop_
 _symmetry_equiv_pos_site_id
 _symmetry_equiv_pos_as_xyz
  1  'x, y, z'
loop_
 _atom_site_type_symbol
 _atom_site_label
 _atom_site_symmetry_multiplicity
 _atom_site_fract_x
 _atom_site_fract_y
 _atom_site_fract_z
 _atom_site_occupancy
  Tb  Tb0  1  0.790288  0.084498  0.814837  1
  Tb  Tb1  1  0.975211  0.417567  0.183521  1
  Tb  Tb2  1  0.208563  0.916747  0.184518  1
  Tb  Tb3  1  0.020986  0.582609  0.814412  1
  Tb  Tb4  1  0.212538  0.184800  0.561891  1
  Tb  Tb5  1  0.649550  0.315400  0.439549  1
  Dy  Dy6  1  0.788852  0.815322  0.438202  1
  Dy  Dy7  1  0.352433  0.683862  0.563567  1
  Dy  Dy8  1  0.428086  0.249924  0.000166  1
  Dy  Dy9  1  0.572328  0.748771  0.999186  1
  Ir  Ir10  1  0.822365  0.072443  0.221147  1
  Ir  Ir11  1  0.398748  0.574474  0.222103  1
  Ir  Ir12  1  0.175504  0.926129  0.777265  1
  Ru  Ru13  1  0.604549  0.427453  0.779637  1
