# generated using pymatgen
data_NaCa(TaS2)8
_symmetry_space_group_name_H-M   'P 1'
_cell_length_a   6.72070500
_cell_length_b   6.72070502
_cell_length_c   14.44054500
_cell_angle_alpha   90.00000000
_cell_angle_beta   90.00000000
_cell_angle_gamma   120.00000481
_symmetry_Int_Tables_number   1
_chemical_formula_structural   NaCa(TaS2)8
_chemical_formula_sum   'Na1 Ca1 Ta8 S16'
_cell_volume   564.86395441
_cell_formula_units_Z   1
loop_
 _symmetry_equiv_pos_site_id
 _symmetry_equiv_pos_as_xyz
  1  'x, y, z'
loop_
 _atom_site_type_symbol
 _atom_site_label
 _atom_site_symmetry_multiplicity
 _atom_site_fract_x
 _atom_site_fract_y
 _atom_site_fract_z
 _atom_site_occupancy
  Na  Na0  1  0.000000  0.000000  0.000000  1
  Ca  Ca1  1  0.000000  0.000000  0.500000  1
  Ta  Ta2  1  0.505175  0.494825  0.749440  1
  Ta  Ta3  1  0.010349  0.505175  0.250560  1
  Ta  Ta4  1  0.494825  0.989651  0.250560  1
  Ta  Ta5  1  0.505175  0.010349  0.749440  1
  Ta  Ta6  1  0.989651  0.494825  0.749440  1
  Ta  Ta7  1  0.494825  0.505175  0.250560  1
  Ta  Ta8  1  0.000000  0.000000  0.750370  1
  Ta  Ta9  1  0.000000  0.000000  0.249630  1
  S  S10  1  0.832467  0.167533  0.357640  1
  S  S11  1  0.832467  0.664933  0.357640  1
  S  S12  1  0.335067  0.167533  0.357640  1
  S  S13  1  0.663122  0.831561  0.855553  1
  S  S14  1  0.167533  0.335067  0.642360  1
  S  S15  1  0.168439  0.831561  0.855553  1
  S  S16  1  0.168439  0.336878  0.855553  1
  S  S17  1  0.831561  0.168439  0.144447  1
  S  S18  1  0.336878  0.168439  0.144447  1
  S  S19  1  0.664933  0.832467  0.642360  1
  S  S20  1  0.333333  0.666667  0.140669  1
  S  S21  1  0.666667  0.333333  0.639243  1
  S  S22  1  0.666667  0.333333  0.859331  1
  S  S23  1  0.333333  0.666667  0.360757  1
  S  S24  1  0.831561  0.663122  0.144447  1
  S  S25  1  0.167533  0.832467  0.642360  1
