# generated using pymatgen
data_TbDyLu14(Ga3Co)2
_symmetry_space_group_name_H-M   'P 1'
_cell_length_a   9.79651200
_cell_length_b   9.79651127
_cell_length_c   6.83392900
_cell_angle_alpha   90.00000000
_cell_angle_beta   90.00000000
_cell_angle_gamma   119.99999570
_symmetry_Int_Tables_number   1
_chemical_formula_structural   TbDyLu14(Ga3Co)2
_chemical_formula_sum   'Tb1 Dy1 Lu14 Ga6 Co2'
_cell_volume   567.99436926
_cell_formula_units_Z   1
loop_
 _symmetry_equiv_pos_site_id
 _symmetry_equiv_pos_as_xyz
  1  'x, y, z'
loop_
 _atom_site_type_symbol
 _atom_site_label
 _atom_site_symmetry_multiplicity
 _atom_site_fract_x
 _atom_site_fract_y
 _atom_site_fract_z
 _atom_site_occupancy
  Tb  Tb0  1  0.000000  0.000000  0.230850  1
  Dy  Dy1  1  0.000000  0.000000  0.731200  1
  Lu  Lu2  1  0.174681  0.825319  0.511430  1
  Lu  Lu3  1  0.650636  0.825319  0.511430  1
  Lu  Lu4  1  0.174681  0.349364  0.511430  1
  Lu  Lu5  1  0.825341  0.174659  0.011100  1
  Lu  Lu6  1  0.349319  0.174659  0.011100  1
  Lu  Lu7  1  0.825341  0.650681  0.011100  1
  Lu  Lu8  1  0.333333  0.666667  0.828100  1
  Lu  Lu9  1  0.666667  0.333333  0.328381  1
  Lu  Lu10  1  0.463649  0.536351  0.207095  1
  Lu  Lu11  1  0.072703  0.536351  0.207095  1
  Lu  Lu12  1  0.463649  0.927297  0.207095  1
  Lu  Lu13  1  0.536343  0.463657  0.707082  1
  Lu  Lu14  1  0.927314  0.463657  0.707082  1
  Lu  Lu15  1  0.536343  0.072686  0.707082  1
  Ga  Ga16  1  0.163906  0.836094  0.959656  1
  Ga  Ga17  1  0.672187  0.836094  0.959656  1
  Ga  Ga18  1  0.163906  0.327813  0.959656  1
  Ga  Ga19  1  0.836073  0.163927  0.460151  1
  Ga  Ga20  1  0.327854  0.163927  0.460151  1
  Ga  Ga21  1  0.836073  0.672146  0.460151  1
  Co  Co22  1  0.333333  0.666667  0.443232  1
  Co  Co23  1  0.666667  0.333333  0.943532  1
