# generated using pymatgen
data_Pr18Nd2Si15As
_symmetry_space_group_name_H-M   'P 1'
_cell_length_a   7.93925430
_cell_length_b   7.93020520
_cell_length_c   15.34384837
_cell_angle_alpha   89.93047248
_cell_angle_beta   89.67750680
_cell_angle_gamma   89.97641312
_symmetry_Int_Tables_number   1
_chemical_formula_structural   Pr18Nd2Si15As
_chemical_formula_sum   'Pr18 Nd2 Si15 As1'
_cell_volume   966.03130735
_cell_formula_units_Z   1
loop_
 _symmetry_equiv_pos_site_id
 _symmetry_equiv_pos_as_xyz
  1  'x, y, z'
loop_
 _atom_site_type_symbol
 _atom_site_label
 _atom_site_symmetry_multiplicity
 _atom_site_fract_x
 _atom_site_fract_y
 _atom_site_fract_z
 _atom_site_occupancy
  Pr  Pr0  1  0.804631  0.190705  0.750971  1
  Pr  Pr1  1  0.688344  0.689776  0.498424  1
  Pr  Pr2  1  0.379606  0.009577  0.445807  1
  Pr  Pr3  1  0.490595  0.877234  0.697759  1
  Pr  Pr4  1  0.510527  0.121815  0.196941  1
  Pr  Pr5  1  0.877608  0.488520  0.301934  1
  Pr  Pr6  1  0.122621  0.510548  0.803537  1
  Pr  Pr7  1  0.623632  0.988309  0.947613  1
  Pr  Pr8  1  0.007320  0.378924  0.551131  1
  Pr  Pr9  1  0.989385  0.621015  0.053093  1
  Pr  Pr10  1  0.129995  0.984351  0.875958  1
  Pr  Pr11  1  0.518638  0.627670  0.126102  1
  Pr  Pr12  1  0.481063  0.372088  0.627680  1
  Pr  Pr13  1  0.628106  0.518951  0.874051  1
  Pr  Pr14  1  0.372055  0.480128  0.373944  1
  Pr  Pr15  1  0.872992  0.018379  0.376629  1
  Pr  Pr16  1  0.982220  0.128214  0.123909  1
  Pr  Pr17  1  0.017697  0.871408  0.623169  1
  Nd  Nd18  1  0.311233  0.310264  0.000003  1
  Nd  Nd19  1  0.189241  0.809503  0.249871  1
  Si  Si20  1  0.330718  0.695628  0.952149  1
  Si  Si21  1  0.667795  0.304080  0.452994  1
  Si  Si22  1  0.696934  0.332348  0.048100  1
  Si  Si23  1  0.303235  0.667958  0.548352  1
  Si  Si24  1  0.804344  0.832122  0.202433  1
  Si  Si25  1  0.168406  0.195632  0.297503  1
  Si  Si26  1  0.835126  0.803575  0.797538  1
  Si  Si27  1  0.287197  0.921609  0.059674  1
  Si  Si28  1  0.577232  0.788585  0.308960  1
  Si  Si29  1  0.430518  0.211030  0.814959  1
  Si  Si30  1  0.788990  0.578944  0.689628  1
  Si  Si31  1  0.211766  0.422750  0.190387  1
  Si  Si32  1  0.708691  0.076928  0.559993  1
  Si  Si33  1  0.924508  0.288734  0.940613  1
  Si  Si34  1  0.078726  0.711567  0.440057  1
  As  As35  1  0.188305  0.171127  0.698135  1
