# generated using pymatgen
data_Tm6Lu4ZnSb5
_symmetry_space_group_name_H-M   'P 1'
_cell_length_a   8.74269300
_cell_length_b   8.76403834
_cell_length_c   6.27893600
_cell_angle_alpha   90.00000000
_cell_angle_beta   90.00000000
_cell_angle_gamma   119.91946121
_symmetry_Int_Tables_number   1
_chemical_formula_structural   Tm6Lu4ZnSb5
_chemical_formula_sum   'Tm6 Lu4 Zn1 Sb5'
_cell_volume   416.98273199
_cell_formula_units_Z   1
loop_
 _symmetry_equiv_pos_site_id
 _symmetry_equiv_pos_as_xyz
  1  'x, y, z'
loop_
 _atom_site_type_symbol
 _atom_site_label
 _atom_site_symmetry_multiplicity
 _atom_site_fract_x
 _atom_site_fract_y
 _atom_site_fract_z
 _atom_site_occupancy
  Tm  Tm0  1  0.246355  0.000000  0.250000  1
  Tm  Tm1  1  0.758833  0.000000  0.750000  1
  Tm  Tm2  1  0.985949  0.232012  0.250000  1
  Tm  Tm3  1  0.753938  0.767988  0.250000  1
  Tm  Tm4  1  0.243338  0.242360  0.750000  1
  Tm  Tm5  1  0.000978  0.757640  0.750000  1
  Lu  Lu6  1  0.342122  0.677705  0.001247  1
  Lu  Lu7  1  0.664418  0.322295  0.498753  1
  Lu  Lu8  1  0.664418  0.322295  0.001247  1
  Lu  Lu9  1  0.342122  0.677705  0.498753  1
  Zn  Zn10  1  0.603489  0.000000  0.250000  1
  Sb  Sb11  1  0.393433  0.000000  0.750000  1
  Sb  Sb12  1  0.996618  0.607706  0.250000  1
  Sb  Sb13  1  0.388913  0.392294  0.250000  1
  Sb  Sb14  1  0.609723  0.604370  0.750000  1
  Sb  Sb15  1  0.005353  0.395630  0.750000  1
