# generated using pymatgen
data_Li3DyHo2Pt3
_symmetry_space_group_name_H-M   'P 1'
_cell_length_a   7.06973111
_cell_length_b   7.06541702
_cell_length_c   4.07896900
_cell_angle_alpha   90.00000000
_cell_angle_beta   90.00000000
_cell_angle_gamma   119.97979603
_symmetry_Int_Tables_number   1
_chemical_formula_structural   Li3DyHo2Pt3
_chemical_formula_sum   'Li3 Dy1 Ho2 Pt3'
_cell_volume   176.48594068
_cell_formula_units_Z   1
loop_
 _symmetry_equiv_pos_site_id
 _symmetry_equiv_pos_as_xyz
  1  'x, y, z'
loop_
 _atom_site_type_symbol
 _atom_site_label
 _atom_site_symmetry_multiplicity
 _atom_site_fract_x
 _atom_site_fract_y
 _atom_site_fract_z
 _atom_site_occupancy
  Li  Li0  1  0.767564  0.767487  0.500000  1
  Li  Li1  1  0.232436  0.999923  0.500000  1
  Li  Li2  1  0.000000  0.231380  0.500000  1
  Dy  Dy3  1  0.000000  0.590511  0.000000  1
  Ho  Ho4  1  0.411392  0.410858  0.000000  1
  Ho  Ho5  1  0.588608  0.999466  0.000000  1
  Pt  Pt6  1  0.000000  0.001767  0.000000  1
  Pt  Pt7  1  0.665610  0.332107  0.500000  1
  Pt  Pt8  1  0.334390  0.666499  0.500000  1
