# generated using pymatgen
data_Dy5VP12(Ir5Rh)3
_symmetry_space_group_name_H-M   'P 1'
_cell_length_a   12.64964890
_cell_length_b   12.78605428
_cell_length_c   3.97074900
_cell_angle_alpha   90.00000000
_cell_angle_beta   90.00000000
_cell_angle_gamma   120.34464073
_symmetry_Int_Tables_number   1
_chemical_formula_structural   Dy5VP12(Ir5Rh)3
_chemical_formula_sum   'Dy5 V1 P12 Ir15 Rh3'
_cell_volume   554.24189612
_cell_formula_units_Z   1
loop_
 _symmetry_equiv_pos_site_id
 _symmetry_equiv_pos_as_xyz
  1  'x, y, z'
loop_
 _atom_site_type_symbol
 _atom_site_label
 _atom_site_symmetry_multiplicity
 _atom_site_fract_x
 _atom_site_fract_y
 _atom_site_fract_z
 _atom_site_occupancy
  Dy  Dy0  1  0.329060  0.664860  0.500000  1
  Dy  Dy1  1  0.670749  0.335242  0.500000  1
  Dy  Dy2  1  0.000111  0.811204  0.000000  1
  Dy  Dy3  1  0.184899  0.186892  0.000000  1
  Dy  Dy4  1  0.814055  0.002221  0.000000  1
  V  V5  1  0.999396  0.449512  0.500000  1
  P  P6  1  0.999904  0.632022  0.500000  1
  P  P7  1  0.358772  0.357374  0.500000  1
  P  P8  1  0.640399  0.997618  0.500000  1
  P  P9  1  0.515259  0.688597  0.000000  1
  P  P10  1  0.312173  0.828906  0.000000  1
  P  P11  1  0.163920  0.483676  0.000000  1
  P  P12  1  0.485282  0.172242  0.000000  1
  P  P13  1  0.687657  0.517256  0.000000  1
  P  P14  1  0.836666  0.320109  0.000000  1
  P  P15  1  0.999949  0.175391  0.500000  1
  P  P16  1  0.820244  0.819555  0.500000  1
  P  P17  1  0.179187  0.998171  0.500000  1
  Ir  Ir18  1  0.128963  0.640218  0.000000  1
  Ir  Ir19  1  0.355090  0.494431  0.000000  1
  Ir  Ir20  1  0.490620  0.360060  0.000000  1
  Ir  Ir21  1  0.869875  0.510738  0.000000  1
  Ir  Ir22  1  0.646608  0.140637  0.000000  1
  Ir  Ir23  1  0.000255  0.286507  0.000000  1
  Ir  Ir24  1  0.716083  0.716526  0.000000  1
  Ir  Ir25  1  0.285519  0.000853  0.000000  1
  Ir  Ir26  1  0.621039  0.802099  0.500000  1
  Ir  Ir27  1  0.196459  0.820974  0.500000  1
  Ir  Ir28  1  0.179248  0.371237  0.500000  1
  Ir  Ir29  1  0.376844  0.181243  0.500000  1
  Ir  Ir30  1  0.803422  0.624727  0.500000  1
  Ir  Ir31  1  0.821203  0.191711  0.500000  1
  Ir  Ir32  1  0.000030  0.997482  0.500000  1
  Rh  Rh33  1  0.510121  0.870806  0.000000  1
  Rh  Rh34  1  0.534723  0.539902  0.500000  1
  Rh  Rh35  1  0.466218  0.009001  0.500000  1
