# generated using pymatgen
data_Sr3MnSnO6
_symmetry_space_group_name_H-M   'P 1'
_cell_length_a   6.91116351
_cell_length_b   6.91116369
_cell_length_c   6.91116398
_cell_angle_alpha   92.24087971
_cell_angle_beta   92.24087881
_cell_angle_gamma   92.24088275
_symmetry_Int_Tables_number   1
_chemical_formula_structural   Sr3MnSnO6
_chemical_formula_sum   'Sr6 Mn2 Sn2 O12'
_cell_volume   329.32841222
_cell_formula_units_Z   2
loop_
 _symmetry_equiv_pos_site_id
 _symmetry_equiv_pos_as_xyz
  1  'x, y, z'
loop_
 _atom_site_type_symbol
 _atom_site_label
 _atom_site_symmetry_multiplicity
 _atom_site_fract_x
 _atom_site_fract_y
 _atom_site_fract_z
 _atom_site_occupancy
  Sr  Sr0  1  0.605946  0.894054  0.250000  1
  Sr  Sr1  1  0.894054  0.250000  0.605946  1
  Sr  Sr2  1  0.250000  0.605946  0.894054  1
  Sr  Sr3  1  0.105946  0.750000  0.394054  1
  Sr  Sr4  1  0.750000  0.394054  0.105946  1
  Sr  Sr5  1  0.394054  0.105946  0.750000  1
  Mn  Mn6  1  0.250000  0.250000  0.250000  1
  Mn  Mn7  1  0.750000  0.750000  0.750000  1
  Sn  Sn8  1  0.500000  0.500000  0.500000  1
  Sn  Sn9  1  0.000000  0.000000  0.000000  1
  O  O10  1  0.542315  0.210445  0.413699  1
  O  O11  1  0.210445  0.413699  0.542315  1
  O  O12  1  0.413699  0.542315  0.210445  1
  O  O13  1  0.042315  0.913699  0.710445  1
  O  O14  1  0.913699  0.710445  0.042315  1
  O  O15  1  0.710445  0.042315  0.913699  1
  O  O16  1  0.457685  0.789555  0.586301  1
  O  O17  1  0.789555  0.586301  0.457685  1
  O  O18  1  0.586301  0.457685  0.789555  1
  O  O19  1  0.957685  0.086301  0.289555  1
  O  O20  1  0.086301  0.289555  0.957685  1
  O  O21  1  0.289555  0.957685  0.086301  1
