# generated using pymatgen
data_Y4Er16Zn3Cd3Ru2
_symmetry_space_group_name_H-M   'P 1'
_cell_length_a   9.47482704
_cell_length_b   9.47333545
_cell_length_c   9.62720300
_cell_angle_alpha   90.00000000
_cell_angle_beta   90.00000000
_cell_angle_gamma   119.99478927
_symmetry_Int_Tables_number   1
_chemical_formula_structural   Y4Er16Zn3Cd3Ru2
_chemical_formula_sum   'Y4 Er16 Zn3 Cd3 Ru2'
_cell_volume   748.38964341
_cell_formula_units_Z   1
loop_
 _symmetry_equiv_pos_site_id
 _symmetry_equiv_pos_as_xyz
  1  'x, y, z'
loop_
 _atom_site_type_symbol
 _atom_site_label
 _atom_site_symmetry_multiplicity
 _atom_site_fract_x
 _atom_site_fract_y
 _atom_site_fract_z
 _atom_site_occupancy
  Y  Y0  1  0.916938  0.458469  0.250000  1
  Y  Y1  1  0.459209  0.540698  0.750000  1
  Y  Y2  1  0.459209  0.918511  0.750000  1
  Y  Y3  1  0.081471  0.540735  0.750000  1
  Er  Er4  1  0.000170  0.000085  0.474792  1
  Er  Er5  1  0.000170  0.000085  0.025208  1
  Er  Er6  1  0.208558  0.792161  0.438416  1
  Er  Er7  1  0.208558  0.416398  0.438416  1
  Er  Er8  1  0.583603  0.791801  0.438252  1
  Er  Er9  1  0.790682  0.208835  0.557020  1
  Er  Er10  1  0.790682  0.581846  0.557020  1
  Er  Er11  1  0.418357  0.209179  0.556672  1
  Er  Er12  1  0.790682  0.208835  0.942980  1
  Er  Er13  1  0.790682  0.581846  0.942980  1
  Er  Er14  1  0.418357  0.209179  0.943328  1
  Er  Er15  1  0.208558  0.792161  0.061584  1
  Er  Er16  1  0.208558  0.416398  0.061584  1
  Er  Er17  1  0.583603  0.791801  0.061748  1
  Er  Er18  1  0.540896  0.458574  0.250000  1
  Er  Er19  1  0.540896  0.082322  0.250000  1
  Zn  Zn20  1  0.878230  0.121128  0.250000  1
  Zn  Zn21  1  0.878230  0.757104  0.250000  1
  Zn  Zn22  1  0.243398  0.121700  0.250000  1
  Cd  Cd23  1  0.110154  0.889663  0.750000  1
  Cd  Cd24  1  0.110154  0.220489  0.750000  1
  Cd  Cd25  1  0.779632  0.889815  0.750000  1
  Ru  Ru26  1  0.333787  0.666894  0.250000  1
  Ru  Ru27  1  0.666576  0.333288  0.750000  1
