# generated using pymatgen
data_UPa3(GePt)4
_symmetry_space_group_name_H-M   'P 1'
_cell_length_a   4.45644000
_cell_length_b   6.98194401
_cell_length_c   7.64474301
_cell_angle_alpha   90.00490011
_cell_angle_beta   90.00000000
_cell_angle_gamma   90.00000000
_symmetry_Int_Tables_number   1
_chemical_formula_structural   UPa3(GePt)4
_chemical_formula_sum   'U1 Pa3 Ge4 Pt4'
_cell_volume   237.86323112
_cell_formula_units_Z   1
loop_
 _symmetry_equiv_pos_site_id
 _symmetry_equiv_pos_as_xyz
  1  'x, y, z'
loop_
 _atom_site_type_symbol
 _atom_site_label
 _atom_site_symmetry_multiplicity
 _atom_site_fract_x
 _atom_site_fract_y
 _atom_site_fract_z
 _atom_site_occupancy
  U  U0  1  0.250000  0.012360  0.792909  1
  Pa  Pa1  1  0.750000  0.991465  0.203768  1
  Pa  Pa2  1  0.750000  0.495794  0.295192  1
  Pa  Pa3  1  0.250000  0.507736  0.707122  1
  Ge  Ge4  1  0.250000  0.697834  0.088726  1
  Ge  Ge5  1  0.250000  0.195707  0.410024  1
  Ge  Ge6  1  0.750000  0.800854  0.592969  1
  Ge  Ge7  1  0.750000  0.302089  0.909152  1
  Pt  Pt8  1  0.250000  0.292750  0.083234  1
  Pt  Pt9  1  0.250000  0.792182  0.417333  1
  Pt  Pt10  1  0.750000  0.208181  0.578873  1
  Pt  Pt11  1  0.750000  0.703048  0.920697  1
