# generated using pymatgen
data_Ho2Lu2Al17SiIr6
_symmetry_space_group_name_H-M   'P 1'
_cell_length_a   7.53228702
_cell_length_b   7.53228603
_cell_length_c   9.37538400
_cell_angle_alpha   90.00000000
_cell_angle_beta   90.00000000
_cell_angle_gamma   119.68099404
_symmetry_Int_Tables_number   1
_chemical_formula_structural   Ho2Lu2Al17SiIr6
_chemical_formula_sum   'Ho2 Lu2 Al17 Si1 Ir6'
_cell_volume   462.12605081
_cell_formula_units_Z   1
loop_
 _symmetry_equiv_pos_site_id
 _symmetry_equiv_pos_as_xyz
  1  'x, y, z'
loop_
 _atom_site_type_symbol
 _atom_site_label
 _atom_site_symmetry_multiplicity
 _atom_site_fract_x
 _atom_site_fract_y
 _atom_site_fract_z
 _atom_site_occupancy
  Ho  Ho0  1  0.003471  0.330044  0.750000  1
  Ho  Ho1  1  0.330044  0.003471  0.750000  1
  Lu  Lu2  1  0.994054  0.676663  0.250000  1
  Lu  Lu3  1  0.676663  0.994054  0.250000  1
  Al  Al4  1  0.874455  0.874455  0.750000  1
  Al  Al5  1  0.000120  0.337124  0.078540  1
  Al  Al6  1  0.998753  0.665629  0.926038  1
  Al  Al7  1  0.998753  0.665629  0.573962  1
  Al  Al8  1  0.337124  0.000120  0.421460  1
  Al  Al9  1  0.000120  0.337124  0.421460  1
  Al  Al10  1  0.665629  0.998753  0.573962  1
  Al  Al11  1  0.665629  0.998753  0.926038  1
  Al  Al12  1  0.337124  0.000120  0.078540  1
  Al  Al13  1  0.332389  0.332389  0.556482  1
  Al  Al14  1  0.663966  0.663966  0.445698  1
  Al  Al15  1  0.663966  0.663966  0.054302  1
  Al  Al16  1  0.332389  0.332389  0.943518  1
  Al  Al17  1  0.336781  0.550195  0.250000  1
  Al  Al18  1  0.661131  0.451922  0.750000  1
  Al  Al19  1  0.550195  0.336781  0.250000  1
  Al  Al20  1  0.451922  0.661131  0.750000  1
  Si  Si21  1  0.130752  0.130752  0.250000  1
  Ir  Ir22  1  0.670790  0.326751  0.000982  1
  Ir  Ir23  1  0.326751  0.670790  0.000982  1
  Ir  Ir24  1  0.326751  0.670790  0.499018  1
  Ir  Ir25  1  0.670790  0.326751  0.499018  1
  Ir  Ir26  1  0.999746  0.999746  0.008356  1
  Ir  Ir27  1  0.999746  0.999746  0.491644  1
