# generated using pymatgen
data_Ho3Er7In8(CuPd)2
_symmetry_space_group_name_H-M   'P 1'
_cell_length_a   3.61080800
_cell_length_b   8.05216144
_cell_length_c   18.08444202
_cell_angle_alpha   90.05080422
_cell_angle_beta   90.00000000
_cell_angle_gamma   90.00000000
_symmetry_Int_Tables_number   1
_chemical_formula_structural   Ho3Er7In8(CuPd)2
_chemical_formula_sum   'Ho3 Er7 In8 Cu2 Pd2'
_cell_volume   525.80149027
_cell_formula_units_Z   1
loop_
 _symmetry_equiv_pos_site_id
 _symmetry_equiv_pos_as_xyz
  1  'x, y, z'
loop_
 _atom_site_type_symbol
 _atom_site_label
 _atom_site_symmetry_multiplicity
 _atom_site_fract_x
 _atom_site_fract_y
 _atom_site_fract_z
 _atom_site_occupancy
  Ho  Ho0  1  0.000000  0.500024  0.500018  1
  Ho  Ho1  1  0.000000  0.000001  0.999994  1
  Ho  Ho2  1  0.000000  0.739375  0.279917  1
  Er  Er3  1  0.000000  0.260505  0.720215  1
  Er  Er4  1  0.000000  0.759769  0.780189  1
  Er  Er5  1  0.000000  0.240255  0.219853  1
  Er  Er6  1  0.000000  0.614668  0.083320  1
  Er  Er7  1  0.000000  0.385365  0.916629  1
  Er  Er8  1  0.000000  0.885119  0.582743  1
  Er  Er9  1  0.000000  0.114999  0.417360  1
  In  In10  1  0.500000  0.710343  0.930779  1
  In  In11  1  0.500000  0.289649  0.069241  1
  In  In12  1  0.500000  0.789472  0.431646  1
  In  In13  1  0.500000  0.210678  0.568613  1
  In  In14  1  0.500000  0.581055  0.650620  1
  In  In15  1  0.500000  0.418727  0.349482  1
  In  In16  1  0.500000  0.918407  0.148826  1
  In  In17  1  0.500000  0.081824  0.851097  1
  Cu  Cu18  1  0.500000  0.522793  0.196303  1
  Cu  Cu19  1  0.500000  0.475847  0.803011  1
  Pd  Pd20  1  0.500000  0.975213  0.696905  1
  Pd  Pd21  1  0.500000  0.025914  0.303240  1
