# generated using pymatgen
data_Lu3ZrAl17SiIr6
_symmetry_space_group_name_H-M   'P 1'
_cell_length_a   7.51026040
_cell_length_b   7.50436936
_cell_length_c   9.32298300
_cell_angle_alpha   90.00000000
_cell_angle_beta   90.00000000
_cell_angle_gamma   119.71690741
_symmetry_Int_Tables_number   1
_chemical_formula_structural   Lu3ZrAl17SiIr6
_chemical_formula_sum   'Lu3 Zr1 Al17 Si1 Ir6'
_cell_volume   456.33790782
_cell_formula_units_Z   1
loop_
 _symmetry_equiv_pos_site_id
 _symmetry_equiv_pos_as_xyz
  1  'x, y, z'
loop_
 _atom_site_type_symbol
 _atom_site_label
 _atom_site_symmetry_multiplicity
 _atom_site_fract_x
 _atom_site_fract_y
 _atom_site_fract_z
 _atom_site_occupancy
  Lu  Lu0  1  0.007245  0.322604  0.750000  1
  Lu  Lu1  1  0.670602  0.995991  0.250000  1
  Lu  Lu2  1  0.324970  0.008242  0.750000  1
  Zr  Zr3  1  0.995098  0.670085  0.250000  1
  Al  Al4  1  0.123178  0.121126  0.250000  1
  Al  Al5  1  0.000109  0.336330  0.078125  1
  Al  Al6  1  0.000724  0.663566  0.926737  1
  Al  Al7  1  0.000724  0.663566  0.573263  1
  Al  Al8  1  0.332013  0.998389  0.421762  1
  Al  Al9  1  0.000109  0.336330  0.421875  1
  Al  Al10  1  0.662895  0.999633  0.577039  1
  Al  Al11  1  0.662895  0.999633  0.922961  1
  Al  Al12  1  0.332013  0.998389  0.078238  1
  Al  Al13  1  0.336424  0.336551  0.554308  1
  Al  Al14  1  0.669981  0.668193  0.437741  1
  Al  Al15  1  0.669981  0.668193  0.062259  1
  Al  Al16  1  0.336424  0.336551  0.945692  1
  Al  Al17  1  0.335106  0.549193  0.250000  1
  Al  Al18  1  0.665334  0.452135  0.750000  1
  Al  Al19  1  0.552401  0.340638  0.250000  1
  Al  Al20  1  0.449700  0.663074  0.750000  1
  Si  Si21  1  0.867281  0.865846  0.750000  1
  Ir  Ir22  1  0.673342  0.328712  0.999696  1
  Ir  Ir23  1  0.329902  0.674173  0.000376  1
  Ir  Ir24  1  0.329902  0.674173  0.499624  1
  Ir  Ir25  1  0.673342  0.328712  0.500304  1
  Ir  Ir26  1  0.999151  0.999986  0.992628  1
  Ir  Ir27  1  0.999151  0.999986  0.507372  1
