# generated using pymatgen
data_YbSm3(TcC2)2
_symmetry_space_group_name_H-M   'P 1'
_cell_length_a   5.23132000
_cell_length_b   6.58949100
_cell_length_c   10.23603500
_cell_angle_alpha   90.00000000
_cell_angle_beta   90.00000000
_cell_angle_gamma   90.00000000
_symmetry_Int_Tables_number   1
_chemical_formula_structural   YbSm3(TcC2)2
_chemical_formula_sum   'Yb2 Sm6 Tc4 C8'
_cell_volume   352.85389680
_cell_formula_units_Z   2
loop_
 _symmetry_equiv_pos_site_id
 _symmetry_equiv_pos_as_xyz
  1  'x, y, z'
loop_
 _atom_site_type_symbol
 _atom_site_label
 _atom_site_symmetry_multiplicity
 _atom_site_fract_x
 _atom_site_fract_y
 _atom_site_fract_z
 _atom_site_occupancy
  Yb  Yb0  1  0.750000  0.466779  0.778290  1
  Yb  Yb1  1  0.250000  0.033221  0.278290  1
  Sm  Sm2  1  0.750000  0.968005  0.720641  1
  Sm  Sm3  1  0.250000  0.531995  0.220641  1
  Sm  Sm4  1  0.750000  0.811949  0.052773  1
  Sm  Sm5  1  0.250000  0.188554  0.947002  1
  Sm  Sm6  1  0.750000  0.311446  0.447002  1
  Sm  Sm7  1  0.250000  0.688051  0.552773  1
  Tc  Tc8  1  0.750000  0.777093  0.357752  1
  Tc  Tc9  1  0.250000  0.722907  0.857752  1
  Tc  Tc10  1  0.250000  0.225464  0.641974  1
  Tc  Tc11  1  0.750000  0.274536  0.141974  1
  C  C12  1  0.250000  0.959276  0.742319  1
  C  C13  1  0.750000  0.540724  0.242319  1
  C  C14  1  0.250000  0.459220  0.757736  1
  C  C15  1  0.750000  0.040780  0.257736  1
  C  C16  1  0.250000  0.316981  0.464932  1
  C  C17  1  0.750000  0.183019  0.964932  1
  C  C18  1  0.250000  0.800566  0.036580  1
  C  C19  1  0.750000  0.699434  0.536580  1
