# generated using pymatgen
data_Tm4Si4Ir3Ru
_symmetry_space_group_name_H-M   'P 1'
_cell_length_a   4.23519000
_cell_length_b   6.81352509
_cell_length_c   7.31134805
_cell_angle_alpha   89.93683658
_cell_angle_beta   90.00000000
_cell_angle_gamma   90.00000000
_symmetry_Int_Tables_number   1
_chemical_formula_structural   Tm4Si4Ir3Ru
_chemical_formula_sum   'Tm4 Si4 Ir3 Ru1'
_cell_volume   210.98032301
_cell_formula_units_Z   1
loop_
 _symmetry_equiv_pos_site_id
 _symmetry_equiv_pos_as_xyz
  1  'x, y, z'
loop_
 _atom_site_type_symbol
 _atom_site_label
 _atom_site_symmetry_multiplicity
 _atom_site_fract_x
 _atom_site_fract_y
 _atom_site_fract_z
 _atom_site_occupancy
  Tm  Tm0  1  0.250000  0.996200  0.813000  1
  Tm  Tm1  1  0.750000  0.002549  0.188192  1
  Tm  Tm2  1  0.250000  0.501373  0.687028  1
  Tm  Tm3  1  0.750000  0.500387  0.312305  1
  Si  Si4  1  0.250000  0.297966  0.108731  1
  Si  Si5  1  0.750000  0.702092  0.894569  1
  Si  Si6  1  0.250000  0.797717  0.384820  1
  Si  Si7  1  0.750000  0.202941  0.612750  1
  Ir  Ir8  1  0.750000  0.841536  0.565857  1
  Ir  Ir9  1  0.250000  0.160968  0.434584  1
  Ir  Ir10  1  0.750000  0.340931  0.934078  1
  Ru  Ru11  1  0.250000  0.655340  0.064088  1
