# generated using pymatgen
data_Pr16Mg3TlIr4
_symmetry_space_group_name_H-M   'P 1'
_cell_length_a   10.06190112
_cell_length_b   10.06190146
_cell_length_c   10.06190200
_cell_angle_alpha   60.15205937
_cell_angle_beta   60.15205825
_cell_angle_gamma   60.15205778
_symmetry_Int_Tables_number   1
_chemical_formula_structural   Pr16Mg3TlIr4
_chemical_formula_sum   'Pr16 Mg3 Tl1 Ir4'
_cell_volume   722.80047300
_cell_formula_units_Z   1
loop_
 _symmetry_equiv_pos_site_id
 _symmetry_equiv_pos_as_xyz
  1  'x, y, z'
loop_
 _atom_site_type_symbol
 _atom_site_label
 _atom_site_symmetry_multiplicity
 _atom_site_fract_x
 _atom_site_fract_y
 _atom_site_fract_z
 _atom_site_occupancy
  Pr  Pr0  1  0.346364  0.346364  0.346364  1
  Pr  Pr1  1  0.348058  0.348058  0.957545  1
  Pr  Pr2  1  0.348058  0.957545  0.348058  1
  Pr  Pr3  1  0.957545  0.348058  0.348058  1
  Pr  Pr4  1  0.811058  0.187934  0.187934  1
  Pr  Pr5  1  0.189098  0.808465  0.808465  1
  Pr  Pr6  1  0.187934  0.811058  0.187934  1
  Pr  Pr7  1  0.808465  0.189098  0.808465  1
  Pr  Pr8  1  0.187934  0.187934  0.811058  1
  Pr  Pr9  1  0.808465  0.808465  0.189098  1
  Pr  Pr10  1  0.941146  0.560930  0.560930  1
  Pr  Pr11  1  0.560123  0.938473  0.938473  1
  Pr  Pr12  1  0.560930  0.941146  0.560930  1
  Pr  Pr13  1  0.938473  0.560123  0.938473  1
  Pr  Pr14  1  0.560930  0.560930  0.941146  1
  Pr  Pr15  1  0.938473  0.938473  0.560123  1
  Mg  Mg16  1  0.578366  0.578366  0.266040  1
  Mg  Mg17  1  0.578366  0.266040  0.578366  1
  Mg  Mg18  1  0.266040  0.578366  0.578366  1
  Tl  Tl19  1  0.581617  0.581617  0.581617  1
  Ir  Ir20  1  0.141769  0.141769  0.141769  1
  Ir  Ir21  1  0.142590  0.142590  0.575611  1
  Ir  Ir22  1  0.142590  0.575611  0.142590  1
  Ir  Ir23  1  0.575611  0.142590  0.142590  1
