# generated using pymatgen
data_Rb4Fe4Cl10O
_symmetry_space_group_name_H-M   'P 1'
_cell_length_a   11.13345744
_cell_length_b   11.13345715
_cell_length_c   9.45685458
_cell_angle_alpha   80.26482657
_cell_angle_beta   80.26482308
_cell_angle_gamma   90.79258450
_symmetry_Int_Tables_number   1
_chemical_formula_structural   Rb4Fe4Cl10O
_chemical_formula_sum   'Rb8 Fe8 Cl20 O2'
_cell_volume   1137.61016247
_cell_formula_units_Z   2
loop_
 _symmetry_equiv_pos_site_id
 _symmetry_equiv_pos_as_xyz
  1  'x, y, z'
loop_
 _atom_site_type_symbol
 _atom_site_label
 _atom_site_symmetry_multiplicity
 _atom_site_fract_x
 _atom_site_fract_y
 _atom_site_fract_z
 _atom_site_occupancy
  Rb  Rb0  1  0.295588  0.443653  0.136717  1
  Rb  Rb1  1  0.712876  0.969031  0.874665  1
  Rb  Rb2  1  0.969031  0.712876  0.374665  1
  Rb  Rb3  1  0.556347  0.704412  0.363283  1
  Rb  Rb4  1  0.443653  0.295588  0.636717  1
  Rb  Rb5  1  0.030969  0.287124  0.625335  1
  Rb  Rb6  1  0.704412  0.556347  0.863283  1
  Rb  Rb7  1  0.287124  0.030969  0.125335  1
  Fe  Fe8  1  0.951806  0.236434  0.117991  1
  Fe  Fe9  1  0.048194  0.763566  0.882009  1
  Fe  Fe10  1  0.649450  0.230621  0.131422  1
  Fe  Fe11  1  0.769379  0.350550  0.368578  1
  Fe  Fe12  1  0.230621  0.649450  0.631422  1
  Fe  Fe13  1  0.350550  0.769379  0.868578  1
  Fe  Fe14  1  0.763566  0.048194  0.382009  1
  Fe  Fe15  1  0.236434  0.951806  0.617991  1
  Cl  Cl16  1  0.142552  0.265556  0.959989  1
  Cl  Cl17  1  0.976220  0.023780  0.250000  1
  Cl  Cl18  1  0.734444  0.857448  0.540011  1
  Cl  Cl19  1  0.395603  0.991609  0.774610  1
  Cl  Cl20  1  0.259800  0.497112  0.482481  1
  Cl  Cl21  1  0.008391  0.604397  0.725390  1
  Cl  Cl22  1  0.824734  0.275621  0.919649  1
  Cl  Cl23  1  0.414941  0.585059  0.750000  1
  Cl  Cl24  1  0.497112  0.259800  0.982481  1
  Cl  Cl25  1  0.023780  0.976220  0.750000  1
  Cl  Cl26  1  0.275621  0.824734  0.419649  1
  Cl  Cl27  1  0.991609  0.395603  0.274610  1
  Cl  Cl28  1  0.857448  0.734444  0.040011  1
  Cl  Cl29  1  0.740200  0.502888  0.517519  1
  Cl  Cl30  1  0.604397  0.008391  0.225390  1
  Cl  Cl31  1  0.724379  0.175266  0.580351  1
  Cl  Cl32  1  0.175266  0.724379  0.080351  1
  Cl  Cl33  1  0.585059  0.414941  0.250000  1
  Cl  Cl34  1  0.265556  0.142552  0.459989  1
  Cl  Cl35  1  0.502888  0.740200  0.017519  1
  O  O36  1  0.216711  0.783289  0.750000  1
  O  O37  1  0.783289  0.216711  0.250000  1
