# generated using pymatgen
data_Yb2Zn14Co3
_symmetry_space_group_name_H-M   'P 1'
_cell_length_a   6.67146943
_cell_length_b   6.67146891
_cell_length_c   6.67146952
_cell_angle_alpha   82.76031285
_cell_angle_beta   97.23967630
_cell_angle_gamma   97.23968885
_symmetry_Int_Tables_number   1
_chemical_formula_structural   Yb2Zn14Co3
_chemical_formula_sum   'Yb2 Zn14 Co3'
_cell_volume   290.38555911
_cell_formula_units_Z   1
loop_
 _symmetry_equiv_pos_site_id
 _symmetry_equiv_pos_as_xyz
  1  'x, y, z'
loop_
 _atom_site_type_symbol
 _atom_site_label
 _atom_site_symmetry_multiplicity
 _atom_site_fract_x
 _atom_site_fract_y
 _atom_site_fract_z
 _atom_site_occupancy
  Yb  Yb0  1  0.663366  0.336633  0.336634  1
  Yb  Yb1  1  0.336633  0.663366  0.663366  1
  Zn  Zn2  1  0.292563  0.292563  0.000000  1
  Zn  Zn3  1  0.707437  0.707437  0.000000  1
  Zn  Zn4  1  0.892696  0.107302  0.107303  1
  Zn  Zn5  1  0.346646  0.653355  0.144942  1
  Zn  Zn6  1  0.000000  0.707437  0.292562  1
  Zn  Zn7  1  0.292563  0.000000  0.292563  1
  Zn  Zn8  1  0.653355  0.855058  0.346644  1
  Zn  Zn9  1  0.144942  0.346645  0.346646  1
  Zn  Zn10  1  0.855058  0.653355  0.653354  1
  Zn  Zn11  1  0.346645  0.144941  0.653355  1
  Zn  Zn12  1  0.000000  0.292563  0.707436  1
  Zn  Zn13  1  0.707437  0.000000  0.707437  1
  Zn  Zn14  1  0.653355  0.346645  0.855058  1
  Zn  Zn15  1  0.107302  0.892698  0.892697  1
  Co  Co16  1  0.500000  0.000000  0.000000  1
  Co  Co17  1  0.000000  0.499999  0.000000  1
  Co  Co18  1  0.000000  0.000000  0.500000  1
