# generated using pymatgen
data_Er20CoBi8Pt3
_symmetry_space_group_name_H-M   'P 1'
_cell_length_a   7.98548408
_cell_length_b   8.97076600
_cell_length_c   12.30472961
_cell_angle_alpha   90.00000000
_cell_angle_beta   90.10909272
_cell_angle_gamma   90.00000000
_symmetry_Int_Tables_number   1
_chemical_formula_structural   Er20CoBi8Pt3
_chemical_formula_sum   'Er20 Co1 Bi8 Pt3'
_cell_volume   881.45889441
_cell_formula_units_Z   1
loop_
 _symmetry_equiv_pos_site_id
 _symmetry_equiv_pos_as_xyz
  1  'x, y, z'
loop_
 _atom_site_type_symbol
 _atom_site_label
 _atom_site_symmetry_multiplicity
 _atom_site_fract_x
 _atom_site_fract_y
 _atom_site_fract_z
 _atom_site_occupancy
  Er  Er0  1  0.656827  0.750000  0.700576  1
  Er  Er1  1  0.336680  0.250000  0.289892  1
  Er  Er2  1  0.164447  0.250000  0.788764  1
  Er  Er3  1  0.835621  0.750000  0.211309  1
  Er  Er4  1  0.125086  0.750000  0.803698  1
  Er  Er5  1  0.874401  0.250000  0.196927  1
  Er  Er6  1  0.625243  0.250000  0.697138  1
  Er  Er7  1  0.383450  0.750000  0.310549  1
  Er  Er8  1  0.552331  0.750000  0.999072  1
  Er  Er9  1  0.450113  0.250000  0.998679  1
  Er  Er10  1  0.052341  0.250000  0.499747  1
  Er  Er11  1  0.944705  0.750000  0.499745  1
  Er  Er12  1  0.823039  0.453845  0.932919  1
  Er  Er13  1  0.179367  0.546348  0.068021  1
  Er  Er14  1  0.323737  0.551231  0.564813  1
  Er  Er15  1  0.179367  0.953652  0.068021  1
  Er  Er16  1  0.673983  0.465205  0.435867  1
  Er  Er17  1  0.823039  0.046155  0.932919  1
  Er  Er18  1  0.673983  0.034795  0.435867  1
  Er  Er19  1  0.323737  0.948769  0.564813  1
  Co  Co20  1  0.571934  0.750000  0.489921  1
  Bi  Bi21  1  0.931125  0.009901  0.672196  1
  Bi  Bi22  1  0.068648  0.989344  0.327855  1
  Bi  Bi23  1  0.431419  0.989139  0.826913  1
  Bi  Bi24  1  0.068648  0.510656  0.327855  1
  Bi  Bi25  1  0.568732  0.010465  0.172207  1
  Bi  Bi26  1  0.931125  0.490099  0.672196  1
  Bi  Bi27  1  0.568732  0.489535  0.172207  1
  Bi  Bi28  1  0.431419  0.510861  0.826913  1
  Pt  Pt29  1  0.924596  0.750000  0.990171  1
  Pt  Pt30  1  0.077293  0.250000  0.011227  1
  Pt  Pt31  1  0.424831  0.250000  0.511001  1
