# generated using pymatgen
data_Dy5HoSc4(In2Pt)4
_symmetry_space_group_name_H-M   'P 1'
_cell_length_a   3.57923900
_cell_length_b   7.99830529
_cell_length_c   17.83561665
_cell_angle_alpha   90.03094696
_cell_angle_beta   90.00000000
_cell_angle_gamma   90.00000000
_symmetry_Int_Tables_number   1
_chemical_formula_structural   Dy5HoSc4(In2Pt)4
_chemical_formula_sum   'Dy5 Ho1 Sc4 In8 Pt4'
_cell_volume   510.59521647
_cell_formula_units_Z   1
loop_
 _symmetry_equiv_pos_site_id
 _symmetry_equiv_pos_as_xyz
  1  'x, y, z'
loop_
 _atom_site_type_symbol
 _atom_site_label
 _atom_site_symmetry_multiplicity
 _atom_site_fract_x
 _atom_site_fract_y
 _atom_site_fract_z
 _atom_site_occupancy
  Dy  Dy0  1  0.000000  0.240535  0.215534  1
  Dy  Dy1  1  0.000000  0.759637  0.784574  1
  Dy  Dy2  1  0.000000  0.259534  0.715419  1
  Dy  Dy3  1  0.000000  0.000189  0.000113  1
  Dy  Dy4  1  0.000000  0.499835  0.499965  1
  Ho  Ho5  1  0.000000  0.740752  0.284320  1
  Sc  Sc6  1  0.000000  0.117132  0.413219  1
  Sc  Sc7  1  0.000000  0.882461  0.586465  1
  Sc  Sc8  1  0.000000  0.382671  0.913455  1
  Sc  Sc9  1  0.000000  0.617498  0.086813  1
  In  In10  1  0.500000  0.412722  0.350494  1
  In  In11  1  0.500000  0.587779  0.649488  1
  In  In12  1  0.500000  0.087868  0.850504  1
  In  In13  1  0.500000  0.912111  0.149568  1
  In  In14  1  0.500000  0.308498  0.059263  1
  In  In15  1  0.500000  0.691735  0.941131  1
  In  In16  1  0.500000  0.191592  0.558951  1
  In  In17  1  0.500000  0.807753  0.440544  1
  Pt  Pt18  1  0.500000  0.029586  0.307123  1
  Pt  Pt19  1  0.500000  0.969300  0.692620  1
  Pt  Pt20  1  0.500000  0.469445  0.807248  1
  Pt  Pt21  1  0.500000  0.531369  0.193191  1
