# generated using pymatgen
data_Ba2Ni18Sn3P7
_symmetry_space_group_name_H-M   'P 1'
_cell_length_a   6.78830600
_cell_length_b   6.78830648
_cell_length_c   11.12949700
_cell_angle_alpha   90.00000000
_cell_angle_beta   90.00000000
_cell_angle_gamma   119.99999766
_symmetry_Int_Tables_number   1
_chemical_formula_structural   Ba2Ni18Sn3P7
_chemical_formula_sum   'Ba2 Ni18 Sn3 P7'
_cell_volume   444.14935062
_cell_formula_units_Z   1
loop_
 _symmetry_equiv_pos_site_id
 _symmetry_equiv_pos_as_xyz
  1  'x, y, z'
loop_
 _atom_site_type_symbol
 _atom_site_label
 _atom_site_symmetry_multiplicity
 _atom_site_fract_x
 _atom_site_fract_y
 _atom_site_fract_z
 _atom_site_occupancy
  Ba  Ba0  1  0.000000  0.000000  0.000132  1
  Ba  Ba1  1  0.000000  0.000000  0.500536  1
  Ni  Ni2  1  0.542232  0.084463  0.132961  1
  Ni  Ni3  1  0.454800  0.545200  0.611046  1
  Ni  Ni4  1  0.090400  0.545200  0.611046  1
  Ni  Ni5  1  0.915537  0.457768  0.132961  1
  Ni  Ni6  1  0.542232  0.457768  0.132961  1
  Ni  Ni7  1  0.457407  0.914813  0.868968  1
  Ni  Ni8  1  0.457407  0.542593  0.868968  1
  Ni  Ni9  1  0.454800  0.909600  0.611046  1
  Ni  Ni10  1  0.085187  0.542593  0.868968  1
  Ni  Ni11  1  0.940934  0.470467  0.383312  1
  Ni  Ni12  1  0.529533  0.059066  0.383312  1
  Ni  Ni13  1  0.529533  0.470467  0.383312  1
  Ni  Ni14  1  0.197583  0.395165  0.255837  1
  Ni  Ni15  1  0.803985  0.196015  0.746309  1
  Ni  Ni16  1  0.392028  0.196015  0.746309  1
  Ni  Ni17  1  0.604835  0.802417  0.255837  1
  Ni  Ni18  1  0.197583  0.802417  0.255837  1
  Ni  Ni19  1  0.803985  0.607972  0.746309  1
  Sn  Sn20  1  0.333333  0.666667  0.061210  1
  Sn  Sn21  1  0.666667  0.333333  0.560027  1
  Sn  Sn22  1  0.666667  0.333333  0.940655  1
  P  P23  1  0.829728  0.659456  0.257299  1
  P  P24  1  0.170814  0.829186  0.743268  1
  P  P25  1  0.658371  0.829186  0.743268  1
  P  P26  1  0.340544  0.170272  0.257299  1
  P  P27  1  0.829728  0.170272  0.257299  1
  P  P28  1  0.170814  0.341629  0.743268  1
  P  P29  1  0.333333  0.666667  0.440442  1
