# generated using pymatgen
data_Hf8Mn8Si13As
_symmetry_space_group_name_H-M   'P 1'
_cell_length_a   9.58622403
_cell_length_b   9.58613943
_cell_length_c   9.60177206
_cell_angle_alpha   94.03225897
_cell_angle_beta   94.03521786
_cell_angle_gamma   149.21276334
_symmetry_Int_Tables_number   1
_chemical_formula_structural   Hf8Mn8Si13As
_chemical_formula_sum   'Hf8 Mn8 Si13 As1'
_cell_volume   435.48745244
_cell_formula_units_Z   1
loop_
 _symmetry_equiv_pos_site_id
 _symmetry_equiv_pos_as_xyz
  1  'x, y, z'
loop_
 _atom_site_type_symbol
 _atom_site_label
 _atom_site_symmetry_multiplicity
 _atom_site_fract_x
 _atom_site_fract_y
 _atom_site_fract_z
 _atom_site_occupancy
  Hf  Hf0  1  0.138154  0.138171  0.276139  1
  Hf  Hf1  1  0.861801  0.861819  0.723787  1
  Hf  Hf2  1  0.138937  0.861076  0.999969  1
  Hf  Hf3  1  0.861059  0.138919  0.999970  1
  Hf  Hf4  1  0.303424  0.502437  0.805743  1
  Hf  Hf5  1  0.696438  0.499261  0.195769  1
  Hf  Hf6  1  0.499269  0.696447  0.195784  1
  Hf  Hf7  1  0.502430  0.303419  0.805757  1
  Mn  Mn8  1  0.101697  0.601696  0.203351  1
  Mn  Mn9  1  0.398482  0.898481  0.796961  1
  Mn  Mn10  1  0.895242  0.099543  0.498993  1
  Mn  Mn11  1  0.603719  0.399372  0.499005  1
  Mn  Mn12  1  0.601721  0.101730  0.203412  1
  Mn  Mn13  1  0.898509  0.398520  0.797026  1
  Mn  Mn14  1  0.099604  0.895263  0.499013  1
  Mn  Mn15  1  0.399320  0.603729  0.499011  1
  Si  Si16  1  0.705986  0.706031  0.412800  1
  Si  Si17  1  0.291344  0.709313  0.000766  1
  Si  Si18  1  0.709442  0.291477  0.000765  1
  Si  Si19  1  0.091316  0.500288  0.591609  1
  Si  Si20  1  0.908549  0.498792  0.407914  1
  Si  Si21  1  0.499046  0.908749  0.407935  1
  Si  Si22  1  0.500694  0.091669  0.591627  1
  Si  Si23  1  0.250439  0.250437  0.999489  1
  Si  Si24  1  0.749073  0.749079  0.999497  1
  Si  Si25  1  0.296900  0.999876  0.296192  1
  Si  Si26  1  0.703253  0.000220  0.703564  1
  Si  Si27  1  0.999998  0.703006  0.703616  1
  Si  Si28  1  0.999732  0.296730  0.296249  1
  As  As29  1  0.294424  0.294448  0.588286  1
