# generated using pymatgen
data_EuP12(IrOs)2
_symmetry_space_group_name_H-M   'P 1'
_cell_length_a   7.02661183
_cell_length_b   7.03970161
_cell_length_c   7.02661303
_cell_angle_alpha   109.47160179
_cell_angle_beta   109.39377168
_cell_angle_gamma   109.47283222
_symmetry_Int_Tables_number   1
_chemical_formula_structural   EuP12(IrOs)2
_chemical_formula_sum   'Eu1 P12 Ir2 Os2'
_cell_volume   267.81070094
_cell_formula_units_Z   1
loop_
 _symmetry_equiv_pos_site_id
 _symmetry_equiv_pos_as_xyz
  1  'x, y, z'
loop_
 _atom_site_type_symbol
 _atom_site_label
 _atom_site_symmetry_multiplicity
 _atom_site_fract_x
 _atom_site_fract_y
 _atom_site_fract_z
 _atom_site_occupancy
  Eu  Eu0  1  0.000000  0.000000  0.000000  1
  P  P1  1  0.355030  0.212204  0.857174  1
  P  P2  1  0.644970  0.787796  0.142826  1
  P  P3  1  0.643087  0.502311  0.859225  1
  P  P4  1  0.356913  0.497689  0.140775  1
  P  P5  1  0.214454  0.859840  0.357676  1
  P  P6  1  0.785546  0.140160  0.642324  1
  P  P7  1  0.502165  0.859840  0.645386  1
  P  P8  1  0.497835  0.140160  0.354614  1
  P  P9  1  0.856106  0.354077  0.214339  1
  P  P10  1  0.143894  0.645923  0.785661  1
  P  P11  1  0.860262  0.645923  0.502028  1
  P  P12  1  0.139738  0.354077  0.497972  1
  Ir  Ir13  1  0.000000  0.500000  0.000000  1
  Ir  Ir14  1  0.500000  0.500000  0.500000  1
  Os  Os15  1  0.000000  0.000000  0.500000  1
  Os  Os16  1  0.500000  0.000000  0.000000  1
