# generated using pymatgen
data_KYPPt8
_symmetry_space_group_name_H-M   'P 1'
_cell_length_a   9.30087436
_cell_length_b   9.23790217
_cell_length_c   4.26890300
_cell_angle_alpha   90.00000000
_cell_angle_beta   90.00000000
_cell_angle_gamma   145.60555444
_symmetry_Int_Tables_number   1
_chemical_formula_structural   KYPPt8
_chemical_formula_sum   'K1 Y1 P1 Pt8'
_cell_volume   207.19296826
_cell_formula_units_Z   1
loop_
 _symmetry_equiv_pos_site_id
 _symmetry_equiv_pos_as_xyz
  1  'x, y, z'
loop_
 _atom_site_type_symbol
 _atom_site_label
 _atom_site_symmetry_multiplicity
 _atom_site_fract_x
 _atom_site_fract_y
 _atom_site_fract_z
 _atom_site_occupancy
  K  K0  1  0.379109  0.613781  0.500000  1
  Y  Y1  1  0.628454  0.370955  0.500000  1
  P  P2  1  0.213083  0.221076  0.000000  1
  Pt  Pt3  1  0.111664  0.897552  0.000000  1
  Pt  Pt4  1  0.884773  0.108786  0.000000  1
  Pt  Pt5  1  0.489064  0.998741  0.000000  1
  Pt  Pt6  1  0.979586  0.494818  0.000000  1
  Pt  Pt7  1  0.192910  0.796253  0.500000  1
  Pt  Pt8  1  0.788742  0.195991  0.500000  1
  Pt  Pt9  1  0.012775  0.010414  0.500000  1
  Pt  Pt10  1  0.633437  0.605231  0.000000  1
