# generated using pymatgen
data_NdSm2Mn(P3Rh4)2
_symmetry_space_group_name_H-M   'P 1'
_cell_length_a   3.93881600
_cell_length_b   11.32927000
_cell_length_c   12.70906400
_cell_angle_alpha   90.00000000
_cell_angle_beta   90.00000000
_cell_angle_gamma   90.00000000
_symmetry_Int_Tables_number   1
_chemical_formula_structural   NdSm2Mn(P3Rh4)2
_chemical_formula_sum   'Nd2 Sm4 Mn2 P12 Rh16'
_cell_volume   567.12812741
_cell_formula_units_Z   2
loop_
 _symmetry_equiv_pos_site_id
 _symmetry_equiv_pos_as_xyz
  1  'x, y, z'
loop_
 _atom_site_type_symbol
 _atom_site_label
 _atom_site_symmetry_multiplicity
 _atom_site_fract_x
 _atom_site_fract_y
 _atom_site_fract_z
 _atom_site_occupancy
  Nd  Nd0  1  0.000000  0.500000  0.520219  1
  Nd  Nd1  1  0.500000  0.000000  0.479781  1
  Sm  Sm2  1  0.500000  0.820616  0.200951  1
  Sm  Sm3  1  0.500000  0.179384  0.200951  1
  Sm  Sm4  1  0.000000  0.679384  0.799049  1
  Sm  Sm5  1  0.000000  0.320616  0.799049  1
  Mn  Mn6  1  0.000000  0.500000  0.991998  1
  Mn  Mn7  1  0.500000  0.000000  0.008002  1
  P  P8  1  0.500000  0.500000  0.887760  1
  P  P9  1  0.000000  0.000000  0.112240  1
  P  P10  1  0.500000  0.500000  0.344663  1
  P  P11  1  0.000000  0.000000  0.655337  1
  P  P12  1  0.500000  0.311971  0.620139  1
  P  P13  1  0.500000  0.688029  0.620139  1
  P  P14  1  0.000000  0.188029  0.379861  1
  P  P15  1  0.000000  0.811971  0.379861  1
  P  P16  1  0.500000  0.849504  0.897869  1
  P  P17  1  0.500000  0.150496  0.897869  1
  P  P18  1  0.000000  0.650496  0.102131  1
  P  P19  1  0.000000  0.349504  0.102131  1
  Rh  Rh20  1  0.500000  0.500000  0.160006  1
  Rh  Rh21  1  0.000000  0.000000  0.839994  1
  Rh  Rh22  1  0.500000  0.500000  0.702797  1
  Rh  Rh23  1  0.000000  0.000000  0.297203  1
  Rh  Rh24  1  0.500000  0.333974  0.994778  1
  Rh  Rh25  1  0.500000  0.666026  0.994778  1
  Rh  Rh26  1  0.000000  0.166026  0.005222  1
  Rh  Rh27  1  0.000000  0.833974  0.005222  1
  Rh  Rh28  1  0.500000  0.293711  0.429049  1
  Rh  Rh29  1  0.500000  0.706289  0.429049  1
  Rh  Rh30  1  0.000000  0.206289  0.570951  1
  Rh  Rh31  1  0.000000  0.793711  0.570951  1
  Rh  Rh32  1  0.500000  0.874111  0.714498  1
  Rh  Rh33  1  0.500000  0.125889  0.714498  1
  Rh  Rh34  1  0.000000  0.625889  0.285502  1
  Rh  Rh35  1  0.000000  0.374111  0.285502  1
