# generated using pymatgen
data_LuFe12MoP7
_symmetry_space_group_name_H-M   'P 1'
_cell_length_a   3.59101300
_cell_length_b   8.82480742
_cell_length_c   8.82364777
_cell_angle_alpha   119.97526197
_cell_angle_beta   90.00000000
_cell_angle_gamma   90.00000000
_symmetry_Int_Tables_number   1
_chemical_formula_structural   LuFe12MoP7
_chemical_formula_sum   'Lu1 Fe12 Mo1 P7'
_cell_volume   242.21956208
_cell_formula_units_Z   1
loop_
 _symmetry_equiv_pos_site_id
 _symmetry_equiv_pos_as_xyz
  1  'x, y, z'
loop_
 _atom_site_type_symbol
 _atom_site_label
 _atom_site_symmetry_multiplicity
 _atom_site_fract_x
 _atom_site_fract_y
 _atom_site_fract_z
 _atom_site_occupancy
  Lu  Lu0  1  0.500000  0.333255  0.666533  1
  Fe  Fe1  1  0.000000  0.376431  0.945431  1
  Fe  Fe2  1  0.000000  0.054801  0.431243  1
  Fe  Fe3  1  0.000000  0.568843  0.623440  1
  Fe  Fe4  1  0.000000  0.878932  0.721241  1
  Fe  Fe5  1  0.000000  0.278563  0.157555  1
  Fe  Fe6  1  0.000000  0.842337  0.121047  1
  Fe  Fe7  1  0.500000  0.936610  0.556555  1
  Fe  Fe8  1  0.500000  0.443256  0.379922  1
  Fe  Fe9  1  0.500000  0.620173  0.063496  1
  Fe  Fe10  1  0.500000  0.123573  0.898718  1
  Fe  Fe11  1  0.500000  0.101167  0.224873  1
  Fe  Fe12  1  0.500000  0.775233  0.876404  1
  Mo  Mo13  1  0.000000  0.666735  0.333398  1
  P  P14  1  0.000000  0.116511  0.705151  1
  P  P15  1  0.000000  0.294809  0.411370  1
  P  P16  1  0.000000  0.588611  0.883625  1
  P  P17  1  0.500000  0.709167  0.593988  1
  P  P18  1  0.500000  0.405936  0.115066  1
  P  P19  1  0.500000  0.885044  0.290858  1
  P  P20  1  0.000000  0.000012  0.000088  1
