# generated using pymatgen
data_Y8Ga(PdPt11)2
_symmetry_space_group_name_H-M   'P 1'
_cell_length_a   8.39268506
_cell_length_b   8.39268506
_cell_length_c   8.35649800
_cell_angle_alpha   90.00000000
_cell_angle_beta   90.00000000
_cell_angle_gamma   90.01422720
_symmetry_Int_Tables_number   1
_chemical_formula_structural   Y8Ga(PdPt11)2
_chemical_formula_sum   'Y8 Ga1 Pd2 Pt22'
_cell_volume   588.60799020
_cell_formula_units_Z   1
loop_
 _symmetry_equiv_pos_site_id
 _symmetry_equiv_pos_as_xyz
  1  'x, y, z'
loop_
 _atom_site_type_symbol
 _atom_site_label
 _atom_site_symmetry_multiplicity
 _atom_site_fract_x
 _atom_site_fract_y
 _atom_site_fract_z
 _atom_site_occupancy
  Y  Y0  1  0.250231  0.250231  0.749943  1
  Y  Y1  1  0.251182  0.748967  0.250803  1
  Y  Y2  1  0.748967  0.251182  0.250803  1
  Y  Y3  1  0.748034  0.748034  0.748315  1
  Y  Y4  1  0.748034  0.748034  0.251685  1
  Y  Y5  1  0.748967  0.251182  0.749197  1
  Y  Y6  1  0.251182  0.748967  0.749197  1
  Y  Y7  1  0.250231  0.250231  0.250057  1
  Ga  Ga8  1  0.004550  0.004550  0.000000  1
  Pd  Pd9  1  0.998796  0.709832  0.000000  1
  Pd  Pd10  1  0.709832  0.998796  0.000000  1
  Pt  Pt11  1  0.499358  0.499358  0.747426  1
  Pt  Pt12  1  0.499558  0.253571  0.500000  1
  Pt  Pt13  1  0.253571  0.499558  0.500000  1
  Pt  Pt14  1  0.499358  0.499358  0.252574  1
  Pt  Pt15  1  0.499474  0.746359  0.500000  1
  Pt  Pt16  1  0.746359  0.499474  0.500000  1
  Pt  Pt17  1  0.998491  0.998491  0.701174  1
  Pt  Pt18  1  0.998581  0.298188  0.000000  1
  Pt  Pt19  1  0.298188  0.998581  0.000000  1
  Pt  Pt20  1  0.998491  0.998491  0.298826  1
  Pt  Pt21  1  0.000013  0.500317  0.739615  1
  Pt  Pt22  1  0.500438  0.260680  0.000000  1
  Pt  Pt23  1  0.262705  0.999993  0.500000  1
  Pt  Pt24  1  0.999993  0.262705  0.500000  1
  Pt  Pt25  1  0.500317  0.000013  0.739615  1
  Pt  Pt26  1  0.260680  0.500438  0.000000  1
  Pt  Pt27  1  0.000013  0.500317  0.260385  1
  Pt  Pt28  1  0.500626  0.738106  0.000000  1
  Pt  Pt29  1  0.000013  0.735347  0.500000  1
  Pt  Pt30  1  0.500317  0.000013  0.260385  1
  Pt  Pt31  1  0.735347  0.000013  0.500000  1
  Pt  Pt32  1  0.738106  0.500626  0.000000  1
