# generated using pymatgen
data_Er12AlNi4Pd
_symmetry_space_group_name_H-M   'P 1'
_cell_length_a   8.23943827
_cell_length_b   8.23629339
_cell_length_c   8.23943921
_cell_angle_alpha   111.63822340
_cell_angle_beta   110.19420649
_cell_angle_gamma   106.63668654
_symmetry_Int_Tables_number   1
_chemical_formula_structural   Er12AlNi4Pd
_chemical_formula_sum   'Er12 Al1 Ni4 Pd1'
_cell_volume   429.49196946
_cell_formula_units_Z   1
loop_
 _symmetry_equiv_pos_site_id
 _symmetry_equiv_pos_as_xyz
  1  'x, y, z'
loop_
 _atom_site_type_symbol
 _atom_site_label
 _atom_site_symmetry_multiplicity
 _atom_site_fract_x
 _atom_site_fract_y
 _atom_site_fract_z
 _atom_site_occupancy
  Er  Er0  1  0.416281  0.224147  0.192143  1
  Er  Er1  1  0.583719  0.775853  0.807857  1
  Er  Er2  1  0.032004  0.224147  0.807866  1
  Er  Er3  1  0.967996  0.775853  0.192134  1
  Er  Er4  1  0.183667  0.292406  0.476047  1
  Er  Er5  1  0.816333  0.707594  0.523953  1
  Er  Er6  1  0.183642  0.707594  0.891261  1
  Er  Er7  1  0.816358  0.292406  0.108739  1
  Er  Er8  1  0.324321  0.630067  0.305748  1
  Er  Er9  1  0.675679  0.369933  0.694252  1
  Er  Er10  1  0.323989  0.018099  0.694110  1
  Er  Er11  1  0.676011  0.981901  0.305890  1
  Al  Al12  1  0.500000  0.500000  0.000000  1
  Ni  Ni13  1  0.355902  0.000000  0.355902  1
  Ni  Ni14  1  0.644098  0.000000  0.644098  1
  Ni  Ni15  1  0.124010  0.623146  0.499136  1
  Ni  Ni16  1  0.875990  0.376854  0.500864  1
  Pd  Pd17  1  0.000000  0.000000  0.000000  1
