# generated using pymatgen
data_Tb16Cd3Co4Ag
_symmetry_space_group_name_H-M   'P 1'
_cell_length_a   9.50495159
_cell_length_b   9.51821773
_cell_length_c   9.50495300
_cell_angle_alpha   60.04610012
_cell_angle_beta   60.00000554
_cell_angle_gamma   60.04610028
_symmetry_Int_Tables_number   1
_chemical_formula_structural   Tb16Cd3Co4Ag
_chemical_formula_sum   'Tb16 Cd3 Co4 Ag1'
_cell_volume   608.47509268
_cell_formula_units_Z   1
loop_
 _symmetry_equiv_pos_site_id
 _symmetry_equiv_pos_as_xyz
  1  'x, y, z'
loop_
 _atom_site_type_symbol
 _atom_site_label
 _atom_site_symmetry_multiplicity
 _atom_site_fract_x
 _atom_site_fract_y
 _atom_site_fract_z
 _atom_site_occupancy
  Tb  Tb0  1  0.153360  0.539919  0.153360  1
  Tb  Tb1  1  0.687497  0.312297  0.687497  1
  Tb  Tb2  1  0.687497  0.312297  0.312707  1
  Tb  Tb3  1  0.937347  0.559838  0.565468  1
  Tb  Tb4  1  0.540290  0.152649  0.153530  1
  Tb  Tb5  1  0.153530  0.152649  0.540290  1
  Tb  Tb6  1  0.937355  0.935700  0.563473  1
  Tb  Tb7  1  0.312016  0.688299  0.312016  1
  Tb  Tb8  1  0.563473  0.935700  0.937355  1
  Tb  Tb9  1  0.563473  0.935700  0.563473  1
  Tb  Tb10  1  0.687669  0.688299  0.312016  1
  Tb  Tb11  1  0.565468  0.559838  0.937347  1
  Tb  Tb12  1  0.937347  0.559838  0.937347  1
  Tb  Tb13  1  0.312016  0.688299  0.687669  1
  Tb  Tb14  1  0.153530  0.152649  0.153530  1
  Tb  Tb15  1  0.312707  0.312297  0.687497  1
  Cd  Cd16  1  0.919500  0.922163  0.919500  1
  Cd  Cd17  1  0.919500  0.922163  0.238836  1
  Cd  Cd18  1  0.238836  0.922163  0.919500  1
  Co  Co19  1  0.358895  0.359335  0.922876  1
  Co  Co20  1  0.359279  0.922165  0.359279  1
  Co  Co21  1  0.922876  0.359335  0.358895  1
  Co  Co22  1  0.358895  0.359335  0.358895  1
  Ag  Ag23  1  0.917642  0.247074  0.917642  1
