# generated using pymatgen
data_RbGa9Ir2
_symmetry_space_group_name_H-M   'P 1'
_cell_length_a   8.32637200
_cell_length_b   8.32637228
_cell_length_c   3.98792900
_cell_angle_alpha   90.00000000
_cell_angle_beta   90.00000000
_cell_angle_gamma   119.99999888
_symmetry_Int_Tables_number   1
_chemical_formula_structural   RbGa9Ir2
_chemical_formula_sum   'Rb1 Ga9 Ir2'
_cell_volume   239.43613265
_cell_formula_units_Z   1
loop_
 _symmetry_equiv_pos_site_id
 _symmetry_equiv_pos_as_xyz
  1  'x, y, z'
loop_
 _atom_site_type_symbol
 _atom_site_label
 _atom_site_symmetry_multiplicity
 _atom_site_fract_x
 _atom_site_fract_y
 _atom_site_fract_z
 _atom_site_occupancy
  Rb  Rb0  1  0.000000  0.000000  0.000000  1
  Ga  Ga1  1  0.500000  0.000000  0.000000  1
  Ga  Ga2  1  0.000000  0.500000  0.000000  1
  Ga  Ga3  1  0.500000  0.500000  0.000000  1
  Ga  Ga4  1  0.411414  0.205707  0.500000  1
  Ga  Ga5  1  0.794293  0.205707  0.500000  1
  Ga  Ga6  1  0.205707  0.411413  0.500000  1
  Ga  Ga7  1  0.794294  0.588587  0.500000  1
  Ga  Ga8  1  0.205706  0.794293  0.500000  1
  Ga  Ga9  1  0.588586  0.794293  0.500000  1
  Ir  Ir10  1  0.666667  0.333333  0.000000  1
  Ir  Ir11  1  0.333333  0.666667  0.000000  1
