# generated using pymatgen
data_LiDy2Ag3O8
_symmetry_space_group_name_H-M   'P 1'
_cell_length_a   6.63957725
_cell_length_b   6.52647307
_cell_length_c   6.56763823
_cell_angle_alpha   126.41366352
_cell_angle_beta   126.89767414
_cell_angle_gamma   80.49689668
_symmetry_Int_Tables_number   1
_chemical_formula_structural   LiDy2Ag3O8
_chemical_formula_sum   'Li1 Dy2 Ag3 O8'
_cell_volume   174.87822557
_cell_formula_units_Z   1
loop_
 _symmetry_equiv_pos_site_id
 _symmetry_equiv_pos_as_xyz
  1  'x, y, z'
loop_
 _atom_site_type_symbol
 _atom_site_label
 _atom_site_symmetry_multiplicity
 _atom_site_fract_x
 _atom_site_fract_y
 _atom_site_fract_z
 _atom_site_occupancy
  Li  Li0  1  0.375000  0.625000  0.750000  1
  Dy  Dy1  1  0.734285  0.261740  0.498116  1
  Dy  Dy2  1  0.015715  0.988260  0.001884  1
  Ag  Ag3  1  0.375000  0.625000  0.250000  1
  Ag  Ag4  1  0.875000  0.625000  0.250000  1
  Ag  Ag5  1  0.375000  0.125000  0.750000  1
  O  O6  1  0.127429  0.597367  0.844427  1
  O  O7  1  0.761704  0.287619  0.156463  1
  O  O8  1  0.343050  0.001924  0.955916  1
  O  O9  1  0.707648  0.860481  0.450420  1
  O  O10  1  0.042352  0.389519  0.049580  1
  O  O11  1  0.406950  0.248076  0.544084  1
  O  O12  1  0.988296  0.962381  0.343537  1
  O  O13  1  0.622571  0.652633  0.655573  1
