# generated using pymatgen
data_Na2GePIr2
_symmetry_space_group_name_H-M   'P 1'
_cell_length_a   4.07277900
_cell_length_b   4.07277900
_cell_length_c   6.86306900
_cell_angle_alpha   90.00000000
_cell_angle_beta   90.00000000
_cell_angle_gamma   90.00000000
_symmetry_Int_Tables_number   1
_chemical_formula_structural   Na2GePIr2
_chemical_formula_sum   'Na2 Ge1 P1 Ir2'
_cell_volume   113.84135458
_cell_formula_units_Z   1
loop_
 _symmetry_equiv_pos_site_id
 _symmetry_equiv_pos_as_xyz
  1  'x, y, z'
loop_
 _atom_site_type_symbol
 _atom_site_label
 _atom_site_symmetry_multiplicity
 _atom_site_fract_x
 _atom_site_fract_y
 _atom_site_fract_z
 _atom_site_occupancy
  Na  Na0  1  0.499999  0.000000  0.353085  1
  Na  Na1  1  0.000000  0.499999  0.651588  1
  Ge  Ge2  1  0.000000  0.499999  0.206157  1
  P  P3  1  0.499999  0.000000  0.813575  1
  Ir  Ir4  1  0.000000  0.000000  0.987797  1
  Ir  Ir5  1  0.499999  0.499999  0.987797  1
