# generated using pymatgen
data_NaHf2CrF11
_symmetry_space_group_name_H-M   'P 1'
_cell_length_a   5.75601925
_cell_length_b   5.75601966
_cell_length_c   7.86378487
_cell_angle_alpha   69.23067064
_cell_angle_beta   69.23066828
_cell_angle_gamma   74.11707170
_symmetry_Int_Tables_number   1
_chemical_formula_structural   NaHf2CrF11
_chemical_formula_sum   'Na1 Hf2 Cr1 F11'
_cell_volume   224.49478161
_cell_formula_units_Z   1
loop_
 _symmetry_equiv_pos_site_id
 _symmetry_equiv_pos_as_xyz
  1  'x, y, z'
loop_
 _atom_site_type_symbol
 _atom_site_label
 _atom_site_symmetry_multiplicity
 _atom_site_fract_x
 _atom_site_fract_y
 _atom_site_fract_z
 _atom_site_occupancy
  Na  Na0  1  0.000000  0.000000  0.000000  1
  Hf  Hf1  1  0.495443  0.495443  0.234124  1
  Hf  Hf2  1  0.504557  0.504557  0.765876  1
  Cr  Cr3  1  0.000000  0.000000  0.500000  1
  F  F4  1  0.201548  0.770955  0.303759  1
  F  F5  1  0.229045  0.798452  0.696241  1
  F  F6  1  0.798452  0.229045  0.696241  1
  F  F7  1  0.770955  0.201548  0.303759  1
  F  F8  1  0.500000  0.500000  0.500000  1
  F  F9  1  0.665402  0.334598  0.000000  1
  F  F10  1  0.334598  0.665402  0.000000  1
  F  F11  1  0.752832  0.752832  0.644629  1
  F  F12  1  0.247168  0.247168  0.355371  1
  F  F13  1  0.732371  0.732371  0.110649  1
  F  F14  1  0.267629  0.267629  0.889351  1
