# generated using pymatgen
data_Sc12Ni5Sn
_symmetry_space_group_name_H-M   'P 1'
_cell_length_a   7.74239848
_cell_length_b   7.74239815
_cell_length_c   7.74239629
_cell_angle_alpha   106.17328171
_cell_angle_beta   111.07161937
_cell_angle_gamma   111.21828591
_symmetry_Int_Tables_number   1
_chemical_formula_structural   Sc12Ni5Sn
_chemical_formula_sum   'Sc12 Ni5 Sn1'
_cell_volume   356.39469738
_cell_formula_units_Z   1
loop_
 _symmetry_equiv_pos_site_id
 _symmetry_equiv_pos_as_xyz
  1  'x, y, z'
loop_
 _atom_site_type_symbol
 _atom_site_label
 _atom_site_symmetry_multiplicity
 _atom_site_fract_x
 _atom_site_fract_y
 _atom_site_fract_z
 _atom_site_occupancy
  Sc  Sc0  1  0.469491  0.286883  0.182608  1
  Sc  Sc1  1  0.104276  0.286883  0.817392  1
  Sc  Sc2  1  0.895724  0.713117  0.182608  1
  Sc  Sc3  1  0.530509  0.713117  0.817392  1
  Sc  Sc4  1  0.299767  0.621209  0.321443  1
  Sc  Sc5  1  0.299767  0.978325  0.678557  1
  Sc  Sc6  1  0.700233  0.378791  0.678557  1
  Sc  Sc7  1  0.700233  0.021675  0.321443  1
  Sc  Sc8  1  0.196532  0.220212  0.416743  1
  Sc  Sc9  1  0.803468  0.779788  0.583257  1
  Sc  Sc10  1  0.196532  0.779788  0.976319  1
  Sc  Sc11  1  0.803468  0.220212  0.023681  1
  Ni  Ni12  1  0.500000  0.629421  0.129421  1
  Ni  Ni13  1  0.500000  0.370579  0.870579  1
  Ni  Ni14  1  0.356954  0.000000  0.356954  1
  Ni  Ni15  1  0.643046  0.000000  0.643046  1
  Ni  Ni16  1  0.000000  0.000000  0.000000  1
  Sn  Sn17  1  0.000000  0.500000  0.500000  1
