# generated using pymatgen
data_Tb2Ho3P7Rh9
_symmetry_space_group_name_H-M   'P 1'
_cell_length_a   3.95920200
_cell_length_b   9.98472280
_cell_length_c   9.97994886
_cell_angle_alpha   120.00286524
_cell_angle_beta   90.00240670
_cell_angle_gamma   89.99732450
_symmetry_Int_Tables_number   1
_chemical_formula_structural   Tb2Ho3P7Rh9
_chemical_formula_sum   'Tb2 Ho3 P7 Rh9'
_cell_volume   341.65680883
_cell_formula_units_Z   1
loop_
 _symmetry_equiv_pos_site_id
 _symmetry_equiv_pos_as_xyz
  1  'x, y, z'
loop_
 _atom_site_type_symbol
 _atom_site_label
 _atom_site_symmetry_multiplicity
 _atom_site_fract_x
 _atom_site_fract_y
 _atom_site_fract_z
 _atom_site_occupancy
  Tb  Tb0  1  0.261793  0.666328  0.332837  1
  Tb  Tb1  1  0.761983  0.333524  0.666826  1
  Ho  Ho2  1  0.761991  0.110143  0.875799  1
  Ho  Ho3  1  0.761933  0.124208  0.234638  1
  Ho  Ho4  1  0.761918  0.765794  0.889626  1
  P  P5  1  0.261840  0.000068  0.000171  1
  P  P6  1  0.761589  0.852852  0.577754  1
  P  P7  1  0.761748  0.421864  0.275176  1
  P  P8  1  0.761762  0.724654  0.146250  1
  P  P9  1  0.261941  0.112823  0.432214  1
  P  P10  1  0.261899  0.567979  0.680742  1
  P  P11  1  0.261938  0.319432  0.887378  1
  Rh  Rh12  1  0.261780  0.873889  0.172802  1
  Rh  Rh13  1  0.261639  0.827230  0.700632  1
  Rh  Rh14  1  0.261844  0.299019  0.126374  1
  Rh  Rh15  1  0.761895  0.594664  0.543064  1
  Rh  Rh16  1  0.761973  0.456548  0.051511  1
  Rh  Rh17  1  0.762034  0.948027  0.405175  1
  Rh  Rh18  1  0.262081  0.355749  0.435315  1
  Rh  Rh19  1  0.262115  0.565306  0.921032  1
  Rh  Rh20  1  0.262300  0.079899  0.644684  1
