# generated using pymatgen
data_Yb11ErSn4N3
_symmetry_space_group_name_H-M   'P 1'
_cell_length_a   4.85937700
_cell_length_b   4.82975800
_cell_length_c   19.49636400
_cell_angle_alpha   90.00000000
_cell_angle_beta   90.00000000
_cell_angle_gamma   90.00000000
_symmetry_Int_Tables_number   1
_chemical_formula_structural   Yb11ErSn4N3
_chemical_formula_sum   'Yb11 Er1 Sn4 N3'
_cell_volume   457.57215583
_cell_formula_units_Z   1
loop_
 _symmetry_equiv_pos_site_id
 _symmetry_equiv_pos_as_xyz
  1  'x, y, z'
loop_
 _atom_site_type_symbol
 _atom_site_label
 _atom_site_symmetry_multiplicity
 _atom_site_fract_x
 _atom_site_fract_y
 _atom_site_fract_z
 _atom_site_occupancy
  Yb  Yb0  1  0.500000  0.500000  0.864889  1
  Yb  Yb1  1  0.500000  0.500000  0.135111  1
  Yb  Yb2  1  0.500000  0.500000  0.374438  1
  Yb  Yb3  1  0.500000  0.500000  0.625562  1
  Yb  Yb4  1  0.500000  0.000000  0.000000  1
  Yb  Yb5  1  0.500000  0.000000  0.253238  1
  Yb  Yb6  1  0.500000  0.000000  0.746762  1
  Yb  Yb7  1  0.000000  0.500000  0.000000  1
  Yb  Yb8  1  0.000000  0.500000  0.253161  1
  Yb  Yb9  1  0.000000  0.500000  0.500000  1
  Yb  Yb10  1  0.000000  0.500000  0.746839  1
  Er  Er11  1  0.500000  0.000000  0.500000  1
  Sn  Sn12  1  0.000000  0.000000  0.880373  1
  Sn  Sn13  1  0.000000  0.000000  0.119627  1
  Sn  Sn14  1  0.000000  0.000000  0.378910  1
  Sn  Sn15  1  0.000000  0.000000  0.621090  1
  N  N16  1  0.500000  0.500000  0.249695  1
  N  N17  1  0.500000  0.500000  0.500000  1
  N  N18  1  0.500000  0.500000  0.750305  1
