# generated using pymatgen
data_Nd3Al10Si2OsRu3
_symmetry_space_group_name_H-M   'P 1'
_cell_length_a   8.80035400
_cell_length_b   8.79750516
_cell_length_c   9.68823689
_cell_angle_alpha   90.13521370
_cell_angle_beta   90.00000000
_cell_angle_gamma   120.01072010
_symmetry_Int_Tables_number   1
_chemical_formula_structural   Nd3Al10Si2OsRu3
_chemical_formula_sum   'Nd6 Al20 Si4 Os2 Ru6'
_cell_volume   649.51100916
_cell_formula_units_Z   2
loop_
 _symmetry_equiv_pos_site_id
 _symmetry_equiv_pos_as_xyz
  1  'x, y, z'
loop_
 _atom_site_type_symbol
 _atom_site_label
 _atom_site_symmetry_multiplicity
 _atom_site_fract_x
 _atom_site_fract_y
 _atom_site_fract_z
 _atom_site_occupancy
  Nd  Nd0  1  0.194052  0.388102  0.249125  1
  Nd  Nd1  1  0.805948  0.611898  0.750875  1
  Nd  Nd2  1  0.612944  0.805581  0.247306  1
  Nd  Nd3  1  0.387056  0.194419  0.752694  1
  Nd  Nd4  1  0.192637  0.805581  0.247306  1
  Nd  Nd5  1  0.807363  0.194419  0.752694  1
  Al  Al6  1  0.164510  0.329020  0.574831  1
  Al  Al7  1  0.835490  0.670980  0.425169  1
  Al  Al8  1  0.671283  0.836505  0.574634  1
  Al  Al9  1  0.835741  0.671483  0.074590  1
  Al  Al10  1  0.328717  0.163495  0.425366  1
  Al  Al11  1  0.164259  0.328517  0.925410  1
  Al  Al12  1  0.165223  0.836505  0.574634  1
  Al  Al13  1  0.328534  0.164393  0.076134  1
  Al  Al14  1  0.834777  0.163495  0.425366  1
  Al  Al15  1  0.671466  0.835607  0.923866  1
  Al  Al16  1  0.835859  0.164393  0.076134  1
  Al  Al17  1  0.164141  0.835607  0.923866  1
  Al  Al18  1  0.564260  0.128520  0.250529  1
  Al  Al19  1  0.435740  0.871480  0.749471  1
  Al  Al20  1  0.870402  0.434934  0.250267  1
  Al  Al21  1  0.129598  0.565066  0.749733  1
  Al  Al22  1  0.564533  0.434934  0.250267  1
  Al  Al23  1  0.435467  0.565066  0.749733  1
  Al  Al24  1  0.000308  0.000616  0.249627  1
  Al  Al25  1  0.999692  0.999384  0.750373  1
  Si  Si26  1  0.333141  0.666284  0.026384  1
  Si  Si27  1  0.666859  0.333716  0.973616  1
  Si  Si28  1  0.665958  0.331916  0.528091  1
  Si  Si29  1  0.334042  0.668084  0.471909  1
  Os  Os30  1  0.000000  0.500000  0.000000  1
  Os  Os31  1  0.500000  0.500000  0.000000  1
  Ru  Ru32  1  0.500000  0.000000  0.000000  1
  Ru  Ru33  1  0.500000  0.000000  0.500000  1
  Ru  Ru34  1  0.000000  0.500000  0.500000  1
  Ru  Ru35  1  0.500000  0.500000  0.500000  1
  Ru  Ru36  1  0.000000  0.000000  0.000000  1
  Ru  Ru37  1  0.000000  0.000000  0.500000  1
