# generated using pymatgen
data_Pr2Nd7SmC4Br15
_symmetry_space_group_name_H-M   'P 1'
_cell_length_a   9.23330232
_cell_length_b   10.21686370
_cell_length_c   11.22089823
_cell_angle_alpha   70.25124874
_cell_angle_beta   66.03800411
_cell_angle_gamma   70.48959768
_symmetry_Int_Tables_number   1
_chemical_formula_structural   Pr2Nd7SmC4Br15
_chemical_formula_sum   'Pr2 Nd7 Sm1 C4 Br15'
_cell_volume   886.26431798
_cell_formula_units_Z   1
loop_
 _symmetry_equiv_pos_site_id
 _symmetry_equiv_pos_as_xyz
  1  'x, y, z'
loop_
 _atom_site_type_symbol
 _atom_site_label
 _atom_site_symmetry_multiplicity
 _atom_site_fract_x
 _atom_site_fract_y
 _atom_site_fract_z
 _atom_site_occupancy
  Pr  Pr0  1  0.028041  0.105063  0.263999  1
  Pr  Pr1  1  0.971596  0.895647  0.736221  1
  Nd  Nd2  1  0.333477  0.747697  0.831234  1
  Nd  Nd3  1  0.667451  0.252076  0.167931  1
  Nd  Nd4  1  0.169035  0.430088  0.045428  1
  Nd  Nd5  1  0.830941  0.569849  0.954600  1
  Nd  Nd6  1  0.077816  0.178419  0.890897  1
  Nd  Nd7  1  0.922094  0.821780  0.109594  1
  Nd  Nd8  1  0.247835  0.539126  0.646974  1
  Sm  Sm9  1  0.753405  0.459693  0.350833  1
  C  C10  1  0.879091  0.362397  0.170510  1
  C  C11  1  0.120377  0.638232  0.829930  1
  C  C12  1  0.955997  0.297441  0.061217  1
  C  C13  1  0.043947  0.703042  0.939152  1
  Br  Br14  1  0.499760  0.500046  0.000145  1
  Br  Br15  1  0.132542  0.811675  0.470687  1
  Br  Br16  1  0.865351  0.192607  0.527704  1
  Br  Br17  1  0.257051  0.024433  0.649503  1
  Br  Br18  1  0.742556  0.975937  0.350793  1
  Br  Br19  1  0.335486  0.170108  0.219550  1
  Br  Br20  1  0.664575  0.829999  0.780615  1
  Br  Br21  1  0.456854  0.371466  0.411434  1
  Br  Br22  1  0.548230  0.628260  0.586206  1
  Br  Br23  1  0.951301  0.440757  0.705292  1
  Br  Br24  1  0.043985  0.557850  0.296582  1
  Br  Br25  1  0.233233  0.905658  0.060143  1
  Br  Br26  1  0.766815  0.093849  0.939990  1
  Br  Br27  1  0.384904  0.269768  0.818248  1
  Br  Br28  1  0.616255  0.727038  0.184588  1
