# generated using pymatgen
data_Th3(AlAu2)2
_symmetry_space_group_name_H-M   'P 1'
_cell_length_a   7.30459666
_cell_length_b   7.30459622
_cell_length_c   4.37178800
_cell_angle_alpha   90.00000000
_cell_angle_beta   90.00000000
_cell_angle_gamma   118.25073430
_symmetry_Int_Tables_number   1
_chemical_formula_structural   Th3(AlAu2)2
_chemical_formula_sum   'Th3 Al2 Au4'
_cell_volume   205.48049425
_cell_formula_units_Z   1
loop_
 _symmetry_equiv_pos_site_id
 _symmetry_equiv_pos_as_xyz
  1  'x, y, z'
loop_
 _atom_site_type_symbol
 _atom_site_label
 _atom_site_symmetry_multiplicity
 _atom_site_fract_x
 _atom_site_fract_y
 _atom_site_fract_z
 _atom_site_occupancy
  Th  Th0  1  0.433767  0.433767  0.500000  1
  Th  Th1  1  0.583845  0.986743  0.500000  1
  Th  Th2  1  0.986743  0.583845  0.500000  1
  Al  Al3  1  0.238110  0.003218  0.000000  1
  Al  Al4  1  0.003218  0.238110  0.000000  1
  Au  Au5  1  0.661691  0.307394  0.000000  1
  Au  Au6  1  0.307394  0.661691  0.000000  1
  Au  Au7  1  0.033231  0.033231  0.500000  1
  Au  Au8  1  0.752002  0.752002  0.000000  1
