# generated using pymatgen
data_Lu2P4OsRh5
_symmetry_space_group_name_H-M   'P 1'
_cell_length_a   3.93560100
_cell_length_b   11.33345016
_cell_length_c   12.45856684
_cell_angle_alpha   89.88022091
_cell_angle_beta   90.00000000
_cell_angle_gamma   90.00000000
_symmetry_Int_Tables_number   1
_chemical_formula_structural   Lu2P4OsRh5
_chemical_formula_sum   'Lu6 P12 Os3 Rh15'
_cell_volume   555.69992592
_cell_formula_units_Z   3
loop_
 _symmetry_equiv_pos_site_id
 _symmetry_equiv_pos_as_xyz
  1  'x, y, z'
loop_
 _atom_site_type_symbol
 _atom_site_label
 _atom_site_symmetry_multiplicity
 _atom_site_fract_x
 _atom_site_fract_y
 _atom_site_fract_z
 _atom_site_occupancy
  Lu  Lu0  1  0.000000  0.499850  0.521983  1
  Lu  Lu1  1  0.500000  0.000277  0.477516  1
  Lu  Lu2  1  0.500000  0.820444  0.205436  1
  Lu  Lu3  1  0.500000  0.180481  0.204986  1
  Lu  Lu4  1  0.000000  0.678525  0.794613  1
  Lu  Lu5  1  0.000000  0.319653  0.795741  1
  P  P6  1  0.500000  0.498099  0.881148  1
  P  P7  1  0.000000  0.998471  0.120237  1
  P  P8  1  0.500000  0.499659  0.351894  1
  P  P9  1  0.000000  0.999911  0.647244  1
  P  P10  1  0.500000  0.314608  0.621100  1
  P  P11  1  0.500000  0.685016  0.620548  1
  P  P12  1  0.000000  0.185991  0.379325  1
  P  P13  1  0.000000  0.815083  0.379839  1
  P  P14  1  0.500000  0.843904  0.891447  1
  P  P15  1  0.500000  0.159199  0.894266  1
  P  P16  1  0.000000  0.657182  0.108221  1
  P  P17  1  0.000000  0.341412  0.103446  1
  Os  Os18  1  0.000000  0.502713  0.989392  1
  Os  Os19  1  0.500000  0.998691  0.010626  1
  Os  Os20  1  0.500000  0.332597  0.992410  1
  Rh  Rh21  1  0.500000  0.504478  0.163528  1
  Rh  Rh22  1  0.000000  0.997133  0.834722  1
  Rh  Rh23  1  0.500000  0.500152  0.697597  1
  Rh  Rh24  1  0.000000  0.000195  0.302895  1
  Rh  Rh25  1  0.500000  0.670379  0.988688  1
  Rh  Rh26  1  0.000000  0.164252  0.011223  1
  Rh  Rh27  1  0.000000  0.831474  0.010815  1
  Rh  Rh28  1  0.500000  0.298456  0.431553  1
  Rh  Rh29  1  0.500000  0.702161  0.431844  1
  Rh  Rh30  1  0.000000  0.200859  0.568411  1
  Rh  Rh31  1  0.000000  0.798606  0.568391  1
  Rh  Rh32  1  0.500000  0.870531  0.710332  1
  Rh  Rh33  1  0.500000  0.129693  0.712665  1
  Rh  Rh34  1  0.000000  0.629826  0.289776  1
  Rh  Rh35  1  0.000000  0.370041  0.286142  1
