# generated using pymatgen
data_ZrZn3NiRh
_symmetry_space_group_name_H-M   'P 1'
_cell_length_a   5.03070770
_cell_length_b   5.03070851
_cell_length_c   4.91159708
_cell_angle_alpha   59.19448203
_cell_angle_beta   59.19447194
_cell_angle_gamma   59.99999523
_symmetry_Int_Tables_number   1
_chemical_formula_structural   ZrZn3NiRh
_chemical_formula_sum   'Zr1 Zn3 Ni1 Rh1'
_cell_volume   86.80994700
_cell_formula_units_Z   1
loop_
 _symmetry_equiv_pos_site_id
 _symmetry_equiv_pos_as_xyz
  1  'x, y, z'
loop_
 _atom_site_type_symbol
 _atom_site_label
 _atom_site_symmetry_multiplicity
 _atom_site_fract_x
 _atom_site_fract_y
 _atom_site_fract_z
 _atom_site_occupancy
  Zr  Zr0  1  0.002415  0.002415  0.992754  1
  Zn  Zn1  1  0.129406  0.623858  0.622880  1
  Zn  Zn2  1  0.623858  0.623858  0.622880  1
  Zn  Zn3  1  0.623858  0.129406  0.622880  1
  Ni  Ni4  1  0.626926  0.626926  0.119225  1
  Rh  Rh5  1  0.243538  0.243538  0.269385  1
