# generated using pymatgen
data_Ho4Lu8In2FeTc2
_symmetry_space_group_name_H-M   'P 1'
_cell_length_a   8.28379750
_cell_length_b   8.28379862
_cell_length_c   8.28379768
_cell_angle_alpha   108.67184294
_cell_angle_beta   108.67185246
_cell_angle_gamma   111.08207334
_symmetry_Int_Tables_number   1
_chemical_formula_structural   Ho4Lu8In2FeTc2
_chemical_formula_sum   'Ho4 Lu8 In2 Fe1 Tc2'
_cell_volume   437.32897649
_cell_formula_units_Z   1
loop_
 _symmetry_equiv_pos_site_id
 _symmetry_equiv_pos_as_xyz
  1  'x, y, z'
loop_
 _atom_site_type_symbol
 _atom_site_label
 _atom_site_symmetry_multiplicity
 _atom_site_fract_x
 _atom_site_fract_y
 _atom_site_fract_z
 _atom_site_occupancy
  Ho  Ho0  1  0.302624  0.302624  0.608036  1
  Ho  Ho1  1  0.694587  0.694587  0.391964  1
  Ho  Ho2  1  0.694587  0.302624  0.000000  1
  Ho  Ho3  1  0.302624  0.694587  0.000000  1
  Lu  Lu4  1  0.189460  0.428890  0.239431  1
  Lu  Lu5  1  0.807682  0.571216  0.763534  1
  Lu  Lu6  1  0.189460  0.950028  0.760569  1
  Lu  Lu7  1  0.950028  0.189460  0.760569  1
  Lu  Lu8  1  0.807682  0.044150  0.236466  1
  Lu  Lu9  1  0.044150  0.807682  0.236466  1
  Lu  Lu10  1  0.428890  0.189460  0.239431  1
  Lu  Lu11  1  0.571216  0.807682  0.763534  1
  In  In12  1  0.998990  0.498990  0.500000  1
  In  In13  1  0.498990  0.998990  0.500000  1
  Fe  Fe14  1  0.631595  0.631595  0.000000  1
  Tc  Tc15  1  0.386998  0.386998  0.000000  1
  Tc  Tc16  1  0.000437  0.000437  0.000000  1
