# generated using pymatgen
data_Mg3Mn(GaPt3)2
_symmetry_space_group_name_H-M   'P 1'
_cell_length_a   3.64587500
_cell_length_b   4.12537600
_cell_length_c   12.27347700
_cell_angle_alpha   90.00000000
_cell_angle_beta   90.00000000
_cell_angle_gamma   90.00000000
_symmetry_Int_Tables_number   1
_chemical_formula_structural   Mg3Mn(GaPt3)2
_chemical_formula_sum   'Mg3 Mn1 Ga2 Pt6'
_cell_volume   184.60052228
_cell_formula_units_Z   1
loop_
 _symmetry_equiv_pos_site_id
 _symmetry_equiv_pos_as_xyz
  1  'x, y, z'
loop_
 _atom_site_type_symbol
 _atom_site_label
 _atom_site_symmetry_multiplicity
 _atom_site_fract_x
 _atom_site_fract_y
 _atom_site_fract_z
 _atom_site_occupancy
  Mg  Mg0  1  0.000000  0.500000  0.163631  1
  Mg  Mg1  1  0.000000  0.500000  0.500000  1
  Mg  Mg2  1  0.000000  0.500000  0.836369  1
  Mn  Mn3  1  0.000000  0.000000  0.000000  1
  Ga  Ga4  1  0.000000  0.000000  0.332087  1
  Ga  Ga5  1  0.000000  0.000000  0.667913  1
  Pt  Pt6  1  0.500000  0.500000  0.000000  1
  Pt  Pt7  1  0.500000  0.500000  0.333765  1
  Pt  Pt8  1  0.500000  0.500000  0.666235  1
  Pt  Pt9  1  0.500000  0.000000  0.167045  1
  Pt  Pt10  1  0.500000  0.000000  0.500000  1
  Pt  Pt11  1  0.500000  0.000000  0.832955  1
