# generated using pymatgen
data_Nd6Zn23Se
_symmetry_space_group_name_H-M   'P 1'
_cell_length_a   9.24760041
_cell_length_b   9.24760013
_cell_length_c   9.24760000
_cell_angle_alpha   60.00000046
_cell_angle_beta   60.00000147
_cell_angle_gamma   60.00000203
_symmetry_Int_Tables_number   1
_chemical_formula_structural   Nd6Zn23Se
_chemical_formula_sum   'Nd6 Zn23 Se1'
_cell_volume   559.20642096
_cell_formula_units_Z   1
loop_
 _symmetry_equiv_pos_site_id
 _symmetry_equiv_pos_as_xyz
  1  'x, y, z'
loop_
 _atom_site_type_symbol
 _atom_site_label
 _atom_site_symmetry_multiplicity
 _atom_site_fract_x
 _atom_site_fract_y
 _atom_site_fract_z
 _atom_site_occupancy
  Nd  Nd0  1  0.721620  0.278380  0.278380  1
  Nd  Nd1  1  0.721620  0.278380  0.721620  1
  Nd  Nd2  1  0.721620  0.721620  0.278380  1
  Nd  Nd3  1  0.278380  0.721620  0.721620  1
  Nd  Nd4  1  0.278380  0.721620  0.278380  1
  Nd  Nd5  1  0.278380  0.278380  0.721620  1
  Zn  Zn6  1  0.618638  0.127121  0.127121  1
  Zn  Zn7  1  0.127121  0.618638  0.127121  1
  Zn  Zn8  1  0.127121  0.127121  0.618638  1
  Zn  Zn9  1  0.127121  0.127121  0.127121  1
  Zn  Zn10  1  0.381362  0.872879  0.872879  1
  Zn  Zn11  1  0.872879  0.381362  0.872879  1
  Zn  Zn12  1  0.872879  0.872879  0.381362  1
  Zn  Zn13  1  0.872879  0.872879  0.872879  1
  Zn  Zn14  1  0.500000  0.000000  0.000000  1
  Zn  Zn15  1  0.500000  0.000000  0.500000  1
  Zn  Zn16  1  0.500000  0.500000  0.000000  1
  Zn  Zn17  1  0.000000  0.500000  0.500000  1
  Zn  Zn18  1  0.000000  0.500000  0.000000  1
  Zn  Zn19  1  0.000000  0.000000  0.500000  1
  Zn  Zn20  1  0.000000  0.000000  0.000000  1
  Zn  Zn21  1  0.017616  0.327462  0.327462  1
  Zn  Zn22  1  0.327462  0.017616  0.327462  1
  Zn  Zn23  1  0.327462  0.327462  0.017616  1
  Zn  Zn24  1  0.327462  0.327462  0.327462  1
  Zn  Zn25  1  0.982384  0.672538  0.672538  1
  Zn  Zn26  1  0.672538  0.982384  0.672538  1
  Zn  Zn27  1  0.672538  0.672538  0.982384  1
  Zn  Zn28  1  0.672538  0.672538  0.672538  1
  Se  Se29  1  0.500000  0.500000  0.500000  1
