# generated using pymatgen
data_DyTh(SiRh2)2
_symmetry_space_group_name_H-M   'P 1'
_cell_length_a   9.18387210
_cell_length_b   9.18387280
_cell_length_c   4.09198900
_cell_angle_alpha   90.00000000
_cell_angle_beta   90.00000000
_cell_angle_gamma   154.79646575
_symmetry_Int_Tables_number   1
_chemical_formula_structural   DyTh(SiRh2)2
_chemical_formula_sum   'Dy1 Th1 Si2 Rh4'
_cell_volume   146.96963127
_cell_formula_units_Z   1
loop_
 _symmetry_equiv_pos_site_id
 _symmetry_equiv_pos_as_xyz
  1  'x, y, z'
loop_
 _atom_site_type_symbol
 _atom_site_label
 _atom_site_symmetry_multiplicity
 _atom_site_fract_x
 _atom_site_fract_y
 _atom_site_fract_z
 _atom_site_occupancy
  Dy  Dy0  1  0.102200  0.897800  0.750000  1
  Th  Th1  1  0.903511  0.096489  0.250000  1
  Si  Si2  1  0.320195  0.679805  0.750000  1
  Si  Si3  1  0.676781  0.323219  0.250000  1
  Rh  Rh4  1  0.547284  0.452716  0.250000  1
  Rh  Rh5  1  0.452454  0.547546  0.750000  1
  Rh  Rh6  1  0.249179  0.750821  0.250000  1
  Rh  Rh7  1  0.748397  0.251603  0.750000  1
