# generated using pymatgen
data_Y9ErAg3Ir
_symmetry_space_group_name_H-M   'P 1'
_cell_length_a   9.54377400
_cell_length_b   9.54377423
_cell_length_c   9.70444700
_cell_angle_alpha   90.00000000
_cell_angle_beta   90.00000000
_cell_angle_gamma   119.99999920
_symmetry_Int_Tables_number   1
_chemical_formula_structural   Y9ErAg3Ir
_chemical_formula_sum   'Y18 Er2 Ag6 Ir2'
_cell_volume   765.49389485
_cell_formula_units_Z   2
loop_
 _symmetry_equiv_pos_site_id
 _symmetry_equiv_pos_as_xyz
  1  'x, y, z'
loop_
 _atom_site_type_symbol
 _atom_site_label
 _atom_site_symmetry_multiplicity
 _atom_site_fract_x
 _atom_site_fract_y
 _atom_site_fract_z
 _atom_site_occupancy
  Y  Y0  1  0.207738  0.792262  0.442596  1
  Y  Y1  1  0.207738  0.415476  0.442596  1
  Y  Y2  1  0.584524  0.792262  0.442596  1
  Y  Y3  1  0.792262  0.207738  0.557404  1
  Y  Y4  1  0.792262  0.584524  0.557404  1
  Y  Y5  1  0.415476  0.207738  0.557404  1
  Y  Y6  1  0.792262  0.207738  0.942596  1
  Y  Y7  1  0.792262  0.584524  0.942596  1
  Y  Y8  1  0.415476  0.207738  0.942596  1
  Y  Y9  1  0.207738  0.792262  0.057404  1
  Y  Y10  1  0.207738  0.415476  0.057404  1
  Y  Y11  1  0.584524  0.792262  0.057404  1
  Y  Y12  1  0.541917  0.458083  0.250000  1
  Y  Y13  1  0.541917  0.083834  0.250000  1
  Y  Y14  1  0.916166  0.458083  0.250000  1
  Y  Y15  1  0.458083  0.541917  0.750000  1
  Y  Y16  1  0.458083  0.916166  0.750000  1
  Y  Y17  1  0.083834  0.541917  0.750000  1
  Er  Er18  1  0.000000  0.000000  0.500000  1
  Er  Er19  1  0.000000  0.000000  0.000000  1
  Ag  Ag20  1  0.884491  0.115509  0.250000  1
  Ag  Ag21  1  0.884491  0.768985  0.250000  1
  Ag  Ag22  1  0.231015  0.115509  0.250000  1
  Ag  Ag23  1  0.115509  0.884491  0.750000  1
  Ag  Ag24  1  0.115509  0.231015  0.750000  1
  Ag  Ag25  1  0.768985  0.884491  0.750000  1
  Ir  Ir26  1  0.333333  0.666667  0.250000  1
  Ir  Ir27  1  0.666667  0.333333  0.750000  1
