# generated using pymatgen
data_Tm8AgHgRh2
_symmetry_space_group_name_H-M   'P 1'
_cell_length_a   9.42448493
_cell_length_b   9.43778632
_cell_length_c   9.43778564
_cell_angle_alpha   60.09935089
_cell_angle_beta   60.04661004
_cell_angle_gamma   60.04661383
_symmetry_Int_Tables_number   1
_chemical_formula_structural   Tm8AgHgRh2
_chemical_formula_sum   'Tm16 Ag2 Hg2 Rh4'
_cell_volume   594.44815149
_cell_formula_units_Z   2
loop_
 _symmetry_equiv_pos_site_id
 _symmetry_equiv_pos_as_xyz
  1  'x, y, z'
loop_
 _atom_site_type_symbol
 _atom_site_label
 _atom_site_symmetry_multiplicity
 _atom_site_fract_x
 _atom_site_fract_y
 _atom_site_fract_z
 _atom_site_occupancy
  Tm  Tm0  1  0.066204  0.061583  0.435449  1
  Tm  Tm1  1  0.436765  0.061583  0.435449  1
  Tm  Tm2  1  0.066204  0.435449  0.061583  1
  Tm  Tm3  1  0.054901  0.647691  0.647691  1
  Tm  Tm4  1  0.436765  0.435449  0.061583  1
  Tm  Tm5  1  0.648127  0.058475  0.645274  1
  Tm  Tm6  1  0.187168  0.812226  0.189540  1
  Tm  Tm7  1  0.187168  0.189540  0.812226  1
  Tm  Tm8  1  0.811067  0.812226  0.189540  1
  Tm  Tm9  1  0.437396  0.062604  0.062604  1
  Tm  Tm10  1  0.810797  0.189203  0.189203  1
  Tm  Tm11  1  0.065202  0.434798  0.434798  1
  Tm  Tm12  1  0.811067  0.189540  0.812226  1
  Tm  Tm13  1  0.186943  0.813057  0.813057  1
  Tm  Tm14  1  0.648127  0.645274  0.058475  1
  Tm  Tm15  1  0.649719  0.647691  0.647691  1
  Ag  Ag16  1  0.416091  0.749739  0.418076  1
  Ag  Ag17  1  0.416091  0.418076  0.749739  1
  Hg  Hg18  1  0.413086  0.417270  0.417270  1
  Hg  Hg19  1  0.752374  0.417270  0.417270  1
  Rh  Rh20  1  0.856487  0.857081  0.429945  1
  Rh  Rh21  1  0.856161  0.857116  0.857116  1
  Rh  Rh22  1  0.429607  0.857116  0.857116  1
  Rh  Rh23  1  0.856487  0.429945  0.857081  1
