# generated using pymatgen
data_Sr6TcOsO12
_symmetry_space_group_name_H-M   'P 1'
_cell_length_a   6.11809936
_cell_length_b   5.86592431
_cell_length_c   10.30381498
_cell_angle_alpha   54.85321348
_cell_angle_beta   89.92462054
_cell_angle_gamma   89.85238168
_symmetry_Int_Tables_number   1
_chemical_formula_structural   Sr6TcOsO12
_chemical_formula_sum   'Sr6 Tc1 Os1 O12'
_cell_volume   302.36596757
_cell_formula_units_Z   1
loop_
 _symmetry_equiv_pos_site_id
 _symmetry_equiv_pos_as_xyz
  1  'x, y, z'
loop_
 _atom_site_type_symbol
 _atom_site_label
 _atom_site_symmetry_multiplicity
 _atom_site_fract_x
 _atom_site_fract_y
 _atom_site_fract_z
 _atom_site_occupancy
  Sr  Sr0  1  0.500000  0.500000  0.500000  1
  Sr  Sr1  1  0.948274  0.728423  0.254906  1
  Sr  Sr2  1  0.446365  0.267774  0.246872  1
  Sr  Sr3  1  0.000000  0.500000  0.000000  1
  Sr  Sr4  1  0.553635  0.732226  0.753128  1
  Sr  Sr5  1  0.051726  0.271577  0.745094  1
  Tc  Tc6  1  0.500000  0.000000  0.000000  1
  Os  Os7  1  0.000000  0.000000  0.500000  1
  O  O8  1  0.457691  0.119329  0.782920  1
  O  O9  1  0.236325  0.770833  0.061394  1
  O  O10  1  0.180025  0.314265  0.452382  1
  O  O11  1  0.673713  0.686068  0.044492  1
  O  O12  1  0.738155  0.237064  0.433659  1
  O  O13  1  0.954273  0.886255  0.718202  1
  O  O14  1  0.045727  0.113745  0.281798  1
  O  O15  1  0.261845  0.762936  0.566341  1
  O  O16  1  0.326287  0.313932  0.955508  1
  O  O17  1  0.819975  0.685735  0.547618  1
  O  O18  1  0.763675  0.229167  0.938606  1
  O  O19  1  0.542309  0.880671  0.217080  1
