# generated using pymatgen
data_La2Tc2B5Os
_symmetry_space_group_name_H-M   'P 1'
_cell_length_a   5.78267044
_cell_length_b   5.79627063
_cell_length_c   8.22214547
_cell_angle_alpha   123.34182895
_cell_angle_beta   123.36240410
_cell_angle_gamma   41.78272468
_symmetry_Int_Tables_number   1
_chemical_formula_structural   La2Tc2B5Os
_chemical_formula_sum   'La2 Tc2 B5 Os1'
_cell_volume   148.46610429
_cell_formula_units_Z   1
loop_
 _symmetry_equiv_pos_site_id
 _symmetry_equiv_pos_as_xyz
  1  'x, y, z'
loop_
 _atom_site_type_symbol
 _atom_site_label
 _atom_site_symmetry_multiplicity
 _atom_site_fract_x
 _atom_site_fract_y
 _atom_site_fract_z
 _atom_site_occupancy
  La  La0  1  0.384359  0.954290  0.261812  1
  La  La1  1  0.045707  0.615958  0.735940  1
  Tc  Tc2  1  0.597222  0.139989  0.096326  1
  Tc  Tc3  1  0.989648  0.009845  0.500914  1
  B  B4  1  0.715997  0.285397  0.999691  1
  B  B5  1  0.076725  0.641153  0.187258  1
  B  B6  1  0.460285  0.489794  0.381455  1
  B  B7  1  0.510901  0.539400  0.619282  1
  B  B8  1  0.354218  0.923835  0.814231  1
  Os  Os9  1  0.860327  0.404949  0.903088  1
