# generated using pymatgen
data_Th3(Al3Os)4
_symmetry_space_group_name_H-M   'P 1'
_cell_length_a   8.97457300
_cell_length_b   8.97457430
_cell_length_c   9.59461300
_cell_angle_alpha   90.00000000
_cell_angle_beta   90.00000000
_cell_angle_gamma   119.99999151
_symmetry_Int_Tables_number   1
_chemical_formula_structural   Th3(Al3Os)4
_chemical_formula_sum   'Th6 Al24 Os8'
_cell_volume   669.24599830
_cell_formula_units_Z   2
loop_
 _symmetry_equiv_pos_site_id
 _symmetry_equiv_pos_as_xyz
  1  'x, y, z'
loop_
 _atom_site_type_symbol
 _atom_site_label
 _atom_site_symmetry_multiplicity
 _atom_site_fract_x
 _atom_site_fract_y
 _atom_site_fract_z
 _atom_site_occupancy
  Th  Th0  1  0.194640  0.389280  0.250000  1
  Th  Th1  1  0.805360  0.610720  0.750000  1
  Th  Th2  1  0.610720  0.805360  0.250000  1
  Th  Th3  1  0.389280  0.194640  0.750000  1
  Th  Th4  1  0.194640  0.805360  0.250000  1
  Th  Th5  1  0.805360  0.194640  0.750000  1
  Al  Al6  1  0.333333  0.666667  0.011999  1
  Al  Al7  1  0.666667  0.333333  0.988001  1
  Al  Al8  1  0.666667  0.333333  0.511999  1
  Al  Al9  1  0.333333  0.666667  0.488001  1
  Al  Al10  1  0.163197  0.326393  0.576862  1
  Al  Al11  1  0.836803  0.673607  0.423138  1
  Al  Al12  1  0.673607  0.836803  0.576862  1
  Al  Al13  1  0.836803  0.673607  0.076862  1
  Al  Al14  1  0.326393  0.163197  0.423138  1
  Al  Al15  1  0.163197  0.326393  0.923138  1
  Al  Al16  1  0.163197  0.836803  0.576862  1
  Al  Al17  1  0.326393  0.163197  0.076862  1
  Al  Al18  1  0.836803  0.163197  0.423138  1
  Al  Al19  1  0.673607  0.836803  0.923138  1
  Al  Al20  1  0.836803  0.163197  0.076862  1
  Al  Al21  1  0.163197  0.836803  0.923138  1
  Al  Al22  1  0.563705  0.127409  0.250000  1
  Al  Al23  1  0.436295  0.872591  0.750000  1
  Al  Al24  1  0.872591  0.436295  0.250000  1
  Al  Al25  1  0.127409  0.563705  0.750000  1
  Al  Al26  1  0.563705  0.436295  0.250000  1
  Al  Al27  1  0.436295  0.563705  0.750000  1
  Al  Al28  1  0.000000  0.000000  0.250000  1
  Al  Al29  1  0.000000  0.000000  0.750000  1
  Os  Os30  1  0.500000  0.000000  0.000000  1
  Os  Os31  1  0.000000  0.500000  0.000000  1
  Os  Os32  1  0.500000  0.000000  0.500000  1
  Os  Os33  1  0.500000  0.500000  0.000000  1
  Os  Os34  1  0.000000  0.500000  0.500000  1
  Os  Os35  1  0.500000  0.500000  0.500000  1
  Os  Os36  1  0.000000  0.000000  0.000000  1
  Os  Os37  1  0.000000  0.000000  0.500000  1
