# generated using pymatgen
data_Tb4Pa2Fe3(Co5P4)3
_symmetry_space_group_name_H-M   'P 1'
_cell_length_a   3.72592100
_cell_length_b   10.58104700
_cell_length_c   12.15193100
_cell_angle_alpha   90.00000000
_cell_angle_beta   90.00000000
_cell_angle_gamma   90.00000000
_symmetry_Int_Tables_number   1
_chemical_formula_structural   Tb4Pa2Fe3(Co5P4)3
_chemical_formula_sum   'Tb4 Pa2 Fe3 Co15 P12'
_cell_volume   479.07949244
_cell_formula_units_Z   1
loop_
 _symmetry_equiv_pos_site_id
 _symmetry_equiv_pos_as_xyz
  1  'x, y, z'
loop_
 _atom_site_type_symbol
 _atom_site_label
 _atom_site_symmetry_multiplicity
 _atom_site_fract_x
 _atom_site_fract_y
 _atom_site_fract_z
 _atom_site_occupancy
  Tb  Tb0  1  0.500000  0.814996  0.204371  1
  Tb  Tb1  1  0.500000  0.185004  0.204371  1
  Tb  Tb2  1  0.000000  0.683785  0.795967  1
  Tb  Tb3  1  0.000000  0.316215  0.795967  1
  Pa  Pa4  1  0.000000  0.500000  0.527790  1
  Pa  Pa5  1  0.500000  0.000000  0.471671  1
  Fe  Fe6  1  0.500000  0.500000  0.155019  1
  Fe  Fe7  1  0.000000  0.000000  0.843804  1
  Fe  Fe8  1  0.000000  0.500000  0.986248  1
  Co  Co9  1  0.500000  0.500000  0.694962  1
  Co  Co10  1  0.000000  0.000000  0.305216  1
  Co  Co11  1  0.500000  0.000000  0.015378  1
  Co  Co12  1  0.500000  0.331815  0.994293  1
  Co  Co13  1  0.500000  0.668185  0.994293  1
  Co  Co14  1  0.000000  0.165488  0.005527  1
  Co  Co15  1  0.000000  0.834512  0.005527  1
  Co  Co16  1  0.500000  0.301634  0.431992  1
  Co  Co17  1  0.500000  0.698366  0.431992  1
  Co  Co18  1  0.000000  0.199155  0.567959  1
  Co  Co19  1  0.000000  0.800845  0.567959  1
  Co  Co20  1  0.500000  0.880356  0.709411  1
  Co  Co21  1  0.500000  0.119644  0.709411  1
  Co  Co22  1  0.000000  0.619798  0.290540  1
  Co  Co23  1  0.000000  0.380202  0.290540  1
  P  P24  1  0.500000  0.500000  0.882453  1
  P  P25  1  0.000000  0.000000  0.120493  1
  P  P26  1  0.500000  0.500000  0.341071  1
  P  P27  1  0.000000  0.000000  0.657856  1
  P  P28  1  0.500000  0.305616  0.616586  1
  P  P29  1  0.500000  0.694384  0.616586  1
  P  P30  1  0.000000  0.193889  0.383293  1
  P  P31  1  0.000000  0.806111  0.383293  1
  P  P32  1  0.500000  0.848119  0.894317  1
  P  P33  1  0.500000  0.151881  0.894317  1
  P  P34  1  0.000000  0.652214  0.104763  1
  P  P35  1  0.000000  0.347786  0.104763  1
