# generated using pymatgen
data_PaFeBr8
_symmetry_space_group_name_H-M   'P 1'
_cell_length_a   8.40736814
_cell_length_b   8.40736881
_cell_length_c   8.92720700
_cell_angle_alpha   58.40489478
_cell_angle_beta   58.40489199
_cell_angle_gamma   72.14643741
_symmetry_Int_Tables_number   1
_chemical_formula_structural   PaFeBr8
_chemical_formula_sum   'Pa1 Fe1 Br8'
_cell_volume   457.35839997
_cell_formula_units_Z   1
loop_
 _symmetry_equiv_pos_site_id
 _symmetry_equiv_pos_as_xyz
  1  'x, y, z'
loop_
 _atom_site_type_symbol
 _atom_site_label
 _atom_site_symmetry_multiplicity
 _atom_site_fract_x
 _atom_site_fract_y
 _atom_site_fract_z
 _atom_site_occupancy
  Pa  Pa0  1  0.748069  0.251931  0.000000  1
  Fe  Fe1  1  0.128484  0.871516  0.000000  1
  Br  Br2  1  0.788500  0.847298  0.157599  1
  Br  Br3  1  0.152702  0.211500  0.842401  1
  Br  Br4  1  0.231638  0.730518  0.234762  1
  Br  Br5  1  0.269482  0.768362  0.765238  1
  Br  Br6  1  0.796418  0.260222  0.676122  1
  Br  Br7  1  0.739778  0.203582  0.323878  1
  Br  Br8  1  0.379657  0.234730  0.167022  1
  Br  Br9  1  0.765270  0.620343  0.832978  1
