# generated using pymatgen
data_YbHo4Er(Si3Ru)8
_symmetry_space_group_name_H-M   'P 1'
_cell_length_a   10.11815284
_cell_length_b   10.11838097
_cell_length_c   8.12420701
_cell_angle_alpha   89.92956916
_cell_angle_beta   90.06714781
_cell_angle_gamma   132.65197506
_symmetry_Int_Tables_number   1
_chemical_formula_structural   YbHo4Er(Si3Ru)8
_chemical_formula_sum   'Yb1 Ho4 Er1 Si24 Ru8'
_cell_volume   611.73787507
_cell_formula_units_Z   1
loop_
 _symmetry_equiv_pos_site_id
 _symmetry_equiv_pos_as_xyz
  1  'x, y, z'
loop_
 _atom_site_type_symbol
 _atom_site_label
 _atom_site_symmetry_multiplicity
 _atom_site_fract_x
 _atom_site_fract_y
 _atom_site_fract_z
 _atom_site_occupancy
  Yb  Yb0  1  0.497969  0.997967  0.249991  1
  Ho  Ho1  1  0.001401  0.501393  0.750004  1
  Ho  Ho2  1  0.502623  0.002611  0.750005  1
  Ho  Ho3  1  0.997435  0.497439  0.249997  1
  Ho  Ho4  1  0.499752  0.499649  0.499538  1
  Er  Er5  1  0.999657  0.999783  0.000522  1
  Si  Si6  1  0.388498  0.155128  0.003162  1
  Si  Si7  1  0.655161  0.888580  0.496879  1
  Si  Si8  1  0.111660  0.344746  0.505266  1
  Si  Si9  1  0.844776  0.611749  0.994711  1
  Si  Si10  1  0.611720  0.845642  0.994087  1
  Si  Si11  1  0.345613  0.111639  0.505872  1
  Si  Si12  1  0.888211  0.655454  0.494817  1
  Si  Si13  1  0.155429  0.388141  0.005202  1
  Si  Si14  1  0.613700  0.379270  0.228263  1
  Si  Si15  1  0.879241  0.113627  0.271665  1
  Si  Si16  1  0.888512  0.121909  0.727821  1
  Si  Si17  1  0.621924  0.388461  0.772242  1
  Si  Si18  1  0.388279  0.621739  0.771588  1
  Si  Si19  1  0.121766  0.888346  0.728469  1
  Si  Si20  1  0.704660  0.294000  0.001039  1
  Si  Si21  1  0.794018  0.204647  0.498942  1
  Si  Si22  1  0.295390  0.705886  0.000055  1
  Si  Si23  1  0.205878  0.795409  0.499946  1
  Si  Si24  1  0.166117  0.167474  0.332954  1
  Si  Si25  1  0.667550  0.666179  0.166945  1
  Si  Si26  1  0.332888  0.331618  0.833212  1
  Si  Si27  1  0.831676  0.832958  0.666875  1
  Si  Si28  1  0.376738  0.610979  0.228215  1
  Si  Si29  1  0.110921  0.876734  0.271719  1
  Ru  Ru30  1  0.626221  0.626965  0.873269  1
  Ru  Ru31  1  0.126602  0.125832  0.627183  1
  Ru  Ru32  1  0.873386  0.873451  0.372507  1
  Ru  Ru33  1  0.373064  0.373017  0.127036  1
  Ru  Ru34  1  0.329514  0.669052  0.500641  1
  Ru  Ru35  1  0.168916  0.829671  0.999338  1
  Ru  Ru36  1  0.671005  0.331999  0.501491  1
  Ru  Ru37  1  0.832126  0.170855  0.998532  1
