# generated using pymatgen
data_SrAg(PO3)3
_symmetry_space_group_name_H-M   'P 1'
_cell_length_a   6.90317852
_cell_length_b   7.32411477
_cell_length_c   7.99650523
_cell_angle_alpha   83.52062710
_cell_angle_beta   81.48182477
_cell_angle_gamma   82.65929541
_symmetry_Int_Tables_number   1
_chemical_formula_structural   SrAg(PO3)3
_chemical_formula_sum   'Sr2 Ag2 P6 O18'
_cell_volume   394.74154766
_cell_formula_units_Z   2
loop_
 _symmetry_equiv_pos_site_id
 _symmetry_equiv_pos_as_xyz
  1  'x, y, z'
loop_
 _atom_site_type_symbol
 _atom_site_label
 _atom_site_symmetry_multiplicity
 _atom_site_fract_x
 _atom_site_fract_y
 _atom_site_fract_z
 _atom_site_occupancy
  Sr  Sr0  1  0.008523  0.733464  0.641757  1
  Sr  Sr1  1  0.991477  0.266536  0.358243  1
  Ag  Ag2  1  0.475198  0.375082  0.343128  1
  Ag  Ag3  1  0.524802  0.624918  0.656872  1
  P  P4  1  0.833892  0.789984  0.275532  1
  P  P5  1  0.166108  0.210016  0.724468  1
  P  P6  1  0.805804  0.333903  0.940466  1
  P  P7  1  0.194196  0.666097  0.059534  1
  P  P8  1  0.605818  0.122061  0.726467  1
  P  P9  1  0.394182  0.877939  0.273533  1
  O  O10  1  0.094176  0.054608  0.652038  1
  O  O11  1  0.905824  0.945392  0.347962  1
  O  O12  1  0.372194  0.150966  0.793926  1
  O  O13  1  0.627806  0.849034  0.206074  1
  O  O14  1  0.168150  0.386603  0.605634  1
  O  O15  1  0.831850  0.613397  0.394366  1
  O  O16  1  0.035243  0.245314  0.905769  1
  O  O17  1  0.964757  0.754686  0.094231  1
  O  O18  1  0.765584  0.338497  0.129580  1
  O  O19  1  0.234416  0.661503  0.870420  1
  O  O20  1  0.778166  0.509221  0.825057  1
  O  O21  1  0.221834  0.490779  0.174943  1
  O  O22  1  0.684705  0.177553  0.892768  1
  O  O23  1  0.315295  0.822447  0.107232  1
  O  O24  1  0.656652  0.260771  0.575907  1
  O  O25  1  0.343348  0.739229  0.424093  1
  O  O26  1  0.668862  0.920844  0.712088  1
  O  O27  1  0.331138  0.079156  0.287912  1
