# generated using pymatgen
data_Zr3Mo2P3Ru
_symmetry_space_group_name_H-M   'P 1'
_cell_length_a   6.87114425
_cell_length_b   6.79633769
_cell_length_c   3.53861600
_cell_angle_alpha   90.00000000
_cell_angle_beta   90.00000000
_cell_angle_gamma   119.64050509
_symmetry_Int_Tables_number   1
_chemical_formula_structural   Zr3Mo2P3Ru
_chemical_formula_sum   'Zr3 Mo2 P3 Ru1'
_cell_volume   143.62496936
_cell_formula_units_Z   1
loop_
 _symmetry_equiv_pos_site_id
 _symmetry_equiv_pos_as_xyz
  1  'x, y, z'
loop_
 _atom_site_type_symbol
 _atom_site_label
 _atom_site_symmetry_multiplicity
 _atom_site_fract_x
 _atom_site_fract_y
 _atom_site_fract_z
 _atom_site_occupancy
  Zr  Zr0  1  0.409081  0.405534  0.500000  1
  Zr  Zr1  1  0.590919  0.996453  0.500000  1
  Zr  Zr2  1  0.000000  0.593070  0.500000  1
  Mo  Mo3  1  0.247415  0.000169  0.000000  1
  Mo  Mo4  1  0.752585  0.752753  0.000000  1
  P  P5  1  0.668087  0.332277  0.000000  1
  P  P6  1  0.331913  0.664191  0.000000  1
  P  P7  1  0.000000  0.009064  0.500000  1
  Ru  Ru8  1  0.000000  0.246490  0.000000  1
