# generated using pymatgen
data_Ho4Hf(Pd3Pt2)3
_symmetry_space_group_name_H-M   'P 1'
_cell_length_a   4.09956300
_cell_length_b   4.09633100
_cell_length_c   20.47486200
_cell_angle_alpha   90.00000000
_cell_angle_beta   90.00000000
_cell_angle_gamma   90.00000000
_symmetry_Int_Tables_number   1
_chemical_formula_structural   Ho4Hf(Pd3Pt2)3
_chemical_formula_sum   'Ho4 Hf1 Pd9 Pt6'
_cell_volume   343.83777694
_cell_formula_units_Z   1
loop_
 _symmetry_equiv_pos_site_id
 _symmetry_equiv_pos_as_xyz
  1  'x, y, z'
loop_
 _atom_site_type_symbol
 _atom_site_label
 _atom_site_symmetry_multiplicity
 _atom_site_fract_x
 _atom_site_fract_y
 _atom_site_fract_z
 _atom_site_occupancy
  Ho  Ho0  1  0.000000  0.000000  0.198837  1
  Ho  Ho1  1  0.000000  0.000000  0.398384  1
  Ho  Ho2  1  0.000000  0.000000  0.601665  1
  Ho  Ho3  1  0.000000  0.000000  0.801344  1
  Hf  Hf4  1  0.000000  0.000000  0.000179  1
  Pd  Pd5  1  0.500000  0.500000  0.196702  1
  Pd  Pd6  1  0.500000  0.500000  0.399014  1
  Pd  Pd7  1  0.500000  0.500000  0.600958  1
  Pd  Pd8  1  0.500000  0.500000  0.803466  1
  Pd  Pd9  1  0.500000  0.000000  0.500005  1
  Pd  Pd10  1  0.000000  0.500000  0.298027  1
  Pd  Pd11  1  0.000000  0.500000  0.499978  1
  Pd  Pd12  1  0.000000  0.500000  0.702032  1
  Pd  Pd13  1  0.000000  0.500000  0.904913  1
  Pt  Pt14  1  0.500000  0.500000  0.999640  1
  Pt  Pt15  1  0.500000  0.000000  0.094732  1
  Pt  Pt16  1  0.500000  0.000000  0.298150  1
  Pt  Pt17  1  0.500000  0.000000  0.702022  1
  Pt  Pt18  1  0.500000  0.000000  0.905226  1
  Pt  Pt19  1  0.000000  0.500000  0.094725  1
