# generated using pymatgen
data_Hf18Re8AsPt
_symmetry_space_group_name_H-M   'P 1'
_cell_length_a   8.64711200
_cell_length_b   8.64711229
_cell_length_c   8.61143200
_cell_angle_alpha   90.00000000
_cell_angle_beta   90.00000000
_cell_angle_gamma   119.99999888
_symmetry_Int_Tables_number   1
_chemical_formula_structural   Hf18Re8AsPt
_chemical_formula_sum   'Hf18 Re8 As1 Pt1'
_cell_volume   557.63265241
_cell_formula_units_Z   1
loop_
 _symmetry_equiv_pos_site_id
 _symmetry_equiv_pos_as_xyz
  1  'x, y, z'
loop_
 _atom_site_type_symbol
 _atom_site_label
 _atom_site_symmetry_multiplicity
 _atom_site_fract_x
 _atom_site_fract_y
 _atom_site_fract_z
 _atom_site_occupancy
  Hf  Hf0  1  0.192636  0.807364  0.451352  1
  Hf  Hf1  1  0.192636  0.385269  0.451352  1
  Hf  Hf2  1  0.614731  0.807364  0.451352  1
  Hf  Hf3  1  0.806250  0.193750  0.552303  1
  Hf  Hf4  1  0.806250  0.612502  0.552303  1
  Hf  Hf5  1  0.387498  0.193750  0.552303  1
  Hf  Hf6  1  0.806250  0.193750  0.947697  1
  Hf  Hf7  1  0.806250  0.612502  0.947697  1
  Hf  Hf8  1  0.387498  0.193750  0.947697  1
  Hf  Hf9  1  0.192636  0.807364  0.048648  1
  Hf  Hf10  1  0.192636  0.385269  0.048648  1
  Hf  Hf11  1  0.614731  0.807364  0.048648  1
  Hf  Hf12  1  0.542185  0.457815  0.250000  1
  Hf  Hf13  1  0.542185  0.084370  0.250000  1
  Hf  Hf14  1  0.915630  0.457815  0.250000  1
  Hf  Hf15  1  0.458056  0.541944  0.750000  1
  Hf  Hf16  1  0.458056  0.916112  0.750000  1
  Hf  Hf17  1  0.083888  0.541944  0.750000  1
  Re  Re18  1  0.890217  0.109783  0.250000  1
  Re  Re19  1  0.890217  0.780433  0.250000  1
  Re  Re20  1  0.219567  0.109783  0.250000  1
  Re  Re21  1  0.110891  0.889109  0.750000  1
  Re  Re22  1  0.110891  0.221783  0.750000  1
  Re  Re23  1  0.778217  0.889109  0.750000  1
  Re  Re24  1  0.000000  0.000000  0.500941  1
  Re  Re25  1  0.000000  0.000000  0.999059  1
  As  As26  1  0.333333  0.666667  0.250000  1
  Pt  Pt27  1  0.666667  0.333333  0.750000  1
