# generated using pymatgen
data_SrEr(Al5Os)4
_symmetry_space_group_name_H-M   'P 1'
_cell_length_a   6.89218371
_cell_length_b   6.89218360
_cell_length_c   9.18341000
_cell_angle_alpha   90.00000000
_cell_angle_beta   90.00000000
_cell_angle_gamma   96.50279776
_symmetry_Int_Tables_number   1
_chemical_formula_structural   SrEr(Al5Os)4
_chemical_formula_sum   'Sr1 Er1 Al20 Os4'
_cell_volume   433.42556241
_cell_formula_units_Z   1
loop_
 _symmetry_equiv_pos_site_id
 _symmetry_equiv_pos_as_xyz
  1  'x, y, z'
loop_
 _atom_site_type_symbol
 _atom_site_label
 _atom_site_symmetry_multiplicity
 _atom_site_fract_x
 _atom_site_fract_y
 _atom_site_fract_z
 _atom_site_occupancy
  Sr  Sr0  1  0.875217  0.124783  0.750000  1
  Er  Er1  1  0.128325  0.871675  0.250000  1
  Al  Al2  1  0.520466  0.781544  0.750000  1
  Al  Al3  1  0.782665  0.520689  0.250000  1
  Al  Al4  1  0.479311  0.217335  0.250000  1
  Al  Al5  1  0.218456  0.479534  0.750000  1
  Al  Al6  1  0.622744  0.377256  0.961031  1
  Al  Al7  1  0.376224  0.623776  0.048663  1
  Al  Al8  1  0.622744  0.377256  0.538969  1
  Al  Al9  1  0.376224  0.623776  0.451337  1
  Al  Al10  1  0.410838  0.144747  0.750000  1
  Al  Al11  1  0.145757  0.418587  0.250000  1
  Al  Al12  1  0.581413  0.854243  0.250000  1
  Al  Al13  1  0.855253  0.589162  0.750000  1
  Al  Al14  1  0.846169  0.153831  0.398225  1
  Al  Al15  1  0.159904  0.840096  0.599801  1
  Al  Al16  1  0.846169  0.153831  0.101775  1
  Al  Al17  1  0.159904  0.840096  0.900199  1
  Al  Al18  1  0.774641  0.775557  0.002692  1
  Al  Al19  1  0.774641  0.775557  0.497308  1
  Al  Al20  1  0.224443  0.225359  0.002692  1
  Al  Al21  1  0.224443  0.225359  0.497308  1
  Os  Os22  1  0.497177  0.000154  0.002163  1
  Os  Os23  1  0.999846  0.502823  0.002163  1
  Os  Os24  1  0.497177  0.000154  0.497837  1
  Os  Os25  1  0.999846  0.502823  0.497837  1
