# generated using pymatgen
data_Ce4Er4Be3Si12Rh
_symmetry_space_group_name_H-M   'P 1'
_cell_length_a   7.95342549
_cell_length_b   7.95677587
_cell_length_c   8.17783394
_cell_angle_alpha   90.00000249
_cell_angle_beta   89.91481068
_cell_angle_gamma   120.01393793
_symmetry_Int_Tables_number   1
_chemical_formula_structural   Ce4Er4Be3Si12Rh
_chemical_formula_sum   'Ce4 Er4 Be3 Si12 Rh1'
_cell_volume   448.12441669
_cell_formula_units_Z   1
loop_
 _symmetry_equiv_pos_site_id
 _symmetry_equiv_pos_as_xyz
  1  'x, y, z'
loop_
 _atom_site_type_symbol
 _atom_site_label
 _atom_site_symmetry_multiplicity
 _atom_site_fract_x
 _atom_site_fract_y
 _atom_site_fract_z
 _atom_site_occupancy
  Ce  Ce0  1  0.999688  0.999844  0.249295  1
  Ce  Ce1  1  0.000527  0.000263  0.750953  1
  Ce  Ce2  1  0.499106  0.501890  0.250978  1
  Ce  Ce3  1  0.499106  0.997216  0.250978  1
  Er  Er4  1  0.999136  0.499568  0.249529  1
  Er  Er5  1  0.501117  0.498777  0.749849  1
  Er  Er6  1  0.998904  0.499452  0.748865  1
  Er  Er7  1  0.501117  0.002339  0.749849  1
  Be  Be8  1  0.667574  0.333787  0.504550  1
  Be  Be9  1  0.667756  0.333877  0.995972  1
  Be  Be10  1  0.332482  0.666241  0.992786  1
  Si  Si11  1  0.827903  0.172385  0.501695  1
  Si  Si12  1  0.827903  0.655517  0.501695  1
  Si  Si13  1  0.344174  0.172087  0.502523  1
  Si  Si14  1  0.827157  0.173398  0.997655  1
  Si  Si15  1  0.827157  0.653760  0.997655  1
  Si  Si16  1  0.346748  0.173375  0.997992  1
  Si  Si17  1  0.172201  0.826829  0.997000  1
  Si  Si18  1  0.654797  0.827398  0.995396  1
  Si  Si19  1  0.172201  0.345371  0.997000  1
  Si  Si20  1  0.165950  0.832402  0.504371  1
  Si  Si21  1  0.667981  0.833990  0.507018  1
  Si  Si22  1  0.165950  0.333547  0.504371  1
  Rh  Rh23  1  0.333365  0.666683  0.502027  1
