# generated using pymatgen
data_Er3As4Pd7
_symmetry_space_group_name_H-M   'P 1'
_cell_length_a   8.09689467
_cell_length_b   8.09689494
_cell_length_c   9.60717859
_cell_angle_alpha   55.59161399
_cell_angle_beta   55.59161318
_cell_angle_gamma   29.46029401
_symmetry_Int_Tables_number   1
_chemical_formula_structural   Er3As4Pd7
_chemical_formula_sum   'Er3 As4 Pd7'
_cell_volume   251.39201471
_cell_formula_units_Z   1
loop_
 _symmetry_equiv_pos_site_id
 _symmetry_equiv_pos_as_xyz
  1  'x, y, z'
loop_
 _atom_site_type_symbol
 _atom_site_label
 _atom_site_symmetry_multiplicity
 _atom_site_fract_x
 _atom_site_fract_y
 _atom_site_fract_z
 _atom_site_occupancy
  Er  Er0  1  0.500000  0.500000  0.500000  1
  Er  Er1  1  0.823342  0.823342  0.170248  1
  Er  Er2  1  0.176658  0.176658  0.829752  1
  As  As3  1  0.393951  0.393951  0.323435  1
  As  As4  1  0.606049  0.606049  0.676565  1
  As  As5  1  0.841079  0.841079  0.749794  1
  As  As6  1  0.158921  0.158921  0.250206  1
  Pd  Pd7  1  0.667974  0.667974  0.072966  1
  Pd  Pd8  1  0.012268  0.012268  0.206558  1
  Pd  Pd9  1  0.987732  0.987732  0.793442  1
  Pd  Pd10  1  0.500000  0.500000  0.000000  1
  Pd  Pd11  1  0.195117  0.195117  0.472683  1
  Pd  Pd12  1  0.804883  0.804883  0.527317  1
  Pd  Pd13  1  0.332026  0.332026  0.927034  1
