# generated using pymatgen
data_La4LuIrPt2
_symmetry_space_group_name_H-M   'P 1'
_cell_length_a   11.54619100
_cell_length_b   11.54619100
_cell_length_c   6.53104000
_cell_angle_alpha   90.00000000
_cell_angle_beta   90.00000000
_cell_angle_gamma   90.00000000
_symmetry_Int_Tables_number   1
_chemical_formula_structural   La4LuIrPt2
_chemical_formula_sum   'La16 Lu4 Ir4 Pt8'
_cell_volume   870.68250586
_cell_formula_units_Z   4
loop_
 _symmetry_equiv_pos_site_id
 _symmetry_equiv_pos_as_xyz
  1  'x, y, z'
loop_
 _atom_site_type_symbol
 _atom_site_label
 _atom_site_symmetry_multiplicity
 _atom_site_fract_x
 _atom_site_fract_y
 _atom_site_fract_z
 _atom_site_occupancy
  La  La0  1  0.291309  0.087635  0.379081  1
  La  La1  1  0.291309  0.912365  0.879081  1
  La  La2  1  0.708691  0.087635  0.879081  1
  La  La3  1  0.708691  0.912365  0.379081  1
  La  La4  1  0.587635  0.791309  0.879081  1
  La  La5  1  0.587635  0.208691  0.379081  1
  La  La6  1  0.412365  0.791309  0.379081  1
  La  La7  1  0.412365  0.208691  0.879081  1
  La  La8  1  0.208691  0.412365  0.620919  1
  La  La9  1  0.208691  0.587635  0.120919  1
  La  La10  1  0.791309  0.412365  0.120919  1
  La  La11  1  0.791309  0.587635  0.620919  1
  La  La12  1  0.912365  0.708691  0.120919  1
  La  La13  1  0.912365  0.291309  0.620919  1
  La  La14  1  0.087635  0.708691  0.620919  1
  La  La15  1  0.087635  0.291309  0.120919  1
  Lu  Lu16  1  0.000000  0.000000  0.500000  1
  Lu  Lu17  1  0.000000  0.000000  0.000000  1
  Lu  Lu18  1  0.500000  0.500000  0.000000  1
  Lu  Lu19  1  0.500000  0.500000  0.500000  1
  Ir  Ir20  1  0.500000  0.000000  0.116757  1
  Ir  Ir21  1  0.500000  0.000000  0.616757  1
  Ir  Ir22  1  0.000000  0.500000  0.883243  1
  Ir  Ir23  1  0.000000  0.500000  0.383243  1
  Pt  Pt24  1  0.855379  0.144621  0.250000  1
  Pt  Pt25  1  0.855379  0.855379  0.750000  1
  Pt  Pt26  1  0.144621  0.144621  0.750000  1
  Pt  Pt27  1  0.144621  0.855379  0.250000  1
  Pt  Pt28  1  0.644621  0.355379  0.750000  1
  Pt  Pt29  1  0.644621  0.644621  0.250000  1
  Pt  Pt30  1  0.355379  0.355379  0.250000  1
  Pt  Pt31  1  0.355379  0.644621  0.750000  1
