# generated using pymatgen
data_Y3(Ga2Si)2
_symmetry_space_group_name_H-M   'P 1'
_cell_length_a   4.09146859
_cell_length_b   4.18103304
_cell_length_c   21.63447090
_cell_angle_alpha   84.45492667
_cell_angle_beta   84.57405970
_cell_angle_gamma   90.00001345
_symmetry_Int_Tables_number   1
_chemical_formula_structural   Y3(Ga2Si)2
_chemical_formula_sum   'Y6 Ga8 Si4'
_cell_volume   366.69352585
_cell_formula_units_Z   2
loop_
 _symmetry_equiv_pos_site_id
 _symmetry_equiv_pos_as_xyz
  1  'x, y, z'
loop_
 _atom_site_type_symbol
 _atom_site_label
 _atom_site_symmetry_multiplicity
 _atom_site_fract_x
 _atom_site_fract_y
 _atom_site_fract_z
 _atom_site_occupancy
  Y  Y0  1  0.957882  0.707882  0.084236  1
  Y  Y1  1  0.290286  0.040286  0.419429  1
  Y  Y2  1  0.623387  0.373387  0.753225  1
  Y  Y3  1  0.377086  0.627086  0.245828  1
  Y  Y4  1  0.709672  0.959672  0.580654  1
  Y  Y5  1  0.041485  0.291485  0.917030  1
  Ga  Ga6  1  0.820023  0.570023  0.359954  1
  Ga  Ga7  1  0.152827  0.902827  0.694346  1
  Ga  Ga8  1  0.431434  0.181434  0.137133  1
  Ga  Ga9  1  0.764255  0.514255  0.471490  1
  Ga  Ga10  1  0.097064  0.847064  0.805872  1
  Ga  Ga11  1  0.847713  0.097713  0.304574  1
  Ga  Ga12  1  0.180515  0.430515  0.638970  1
  Ga  Ga13  1  0.513186  0.763186  0.973627  1
  Si  Si14  1  0.902604  0.152604  0.194793  1
  Si  Si15  1  0.235528  0.485528  0.528945  1
  Si  Si16  1  0.568471  0.818471  0.863056  1
  Si  Si17  1  0.486581  0.236581  0.026836  1
