# generated using pymatgen
data_AgBiF7
_symmetry_space_group_name_H-M   'P 1'
_cell_length_a   7.60890700
_cell_length_b   7.95433500
_cell_length_c   10.61703800
_cell_angle_alpha   90.00000000
_cell_angle_beta   90.00000000
_cell_angle_gamma   90.00000000
_symmetry_Int_Tables_number   1
_chemical_formula_structural   AgBiF7
_chemical_formula_sum   'Ag4 Bi4 F28'
_cell_volume   642.58343420
_cell_formula_units_Z   4
loop_
 _symmetry_equiv_pos_site_id
 _symmetry_equiv_pos_as_xyz
  1  'x, y, z'
loop_
 _atom_site_type_symbol
 _atom_site_label
 _atom_site_symmetry_multiplicity
 _atom_site_fract_x
 _atom_site_fract_y
 _atom_site_fract_z
 _atom_site_occupancy
  Ag  Ag0  1  0.750000  0.864472  0.744124  1
  Ag  Ag1  1  0.750000  0.364472  0.755876  1
  Ag  Ag2  1  0.250000  0.135528  0.255876  1
  Ag  Ag3  1  0.250000  0.635528  0.244124  1
  Bi  Bi4  1  0.250000  0.801388  0.559799  1
  Bi  Bi5  1  0.250000  0.301388  0.940201  1
  Bi  Bi6  1  0.750000  0.198612  0.440201  1
  Bi  Bi7  1  0.750000  0.698612  0.059799  1
  F  F8  1  0.750000  0.612239  0.701471  1
  F  F9  1  0.750000  0.112239  0.798529  1
  F  F10  1  0.250000  0.387761  0.298529  1
  F  F11  1  0.250000  0.887761  0.201471  1
  F  F12  1  0.750000  0.964478  0.526144  1
  F  F13  1  0.750000  0.464478  0.973856  1
  F  F14  1  0.250000  0.035522  0.473856  1
  F  F15  1  0.250000  0.535522  0.026144  1
  F  F16  1  0.929935  0.777007  0.925176  1
  F  F17  1  0.570065  0.277007  0.574824  1
  F  F18  1  0.429935  0.222993  0.074824  1
  F  F19  1  0.070065  0.722993  0.425176  1
  F  F20  1  0.070065  0.222993  0.074824  1
  F  F21  1  0.429935  0.722993  0.425176  1
  F  F22  1  0.570065  0.777007  0.925176  1
  F  F23  1  0.929935  0.277007  0.574824  1
  F  F24  1  0.447803  0.883342  0.677554  1
  F  F25  1  0.052197  0.383342  0.822446  1
  F  F26  1  0.947803  0.116658  0.322446  1
  F  F27  1  0.552197  0.616658  0.177554  1
  F  F28  1  0.552197  0.116658  0.322446  1
  F  F29  1  0.947803  0.616658  0.177554  1
  F  F30  1  0.052197  0.883342  0.677554  1
  F  F31  1  0.447803  0.383342  0.822446  1
  F  F32  1  0.250000  0.571568  0.639560  1
  F  F33  1  0.250000  0.071568  0.860440  1
  F  F34  1  0.750000  0.428432  0.360440  1
  F  F35  1  0.750000  0.928432  0.139560  1
