# generated using pymatgen
data_ZrBe3Pd2
_symmetry_space_group_name_H-M   'P 1'
_cell_length_a   4.79378424
_cell_length_b   4.79378455
_cell_length_c   4.74714114
_cell_angle_alpha   59.67444187
_cell_angle_beta   59.67443910
_cell_angle_gamma   60.00000720
_symmetry_Int_Tables_number   1
_chemical_formula_structural   ZrBe3Pd2
_chemical_formula_sum   'Zr1 Be3 Pd2'
_cell_volume   76.75725848
_cell_formula_units_Z   1
loop_
 _symmetry_equiv_pos_site_id
 _symmetry_equiv_pos_as_xyz
  1  'x, y, z'
loop_
 _atom_site_type_symbol
 _atom_site_label
 _atom_site_symmetry_multiplicity
 _atom_site_fract_x
 _atom_site_fract_y
 _atom_site_fract_z
 _atom_site_occupancy
  Zr  Zr0  1  0.999949  0.999949  0.000154  1
  Be  Be1  1  0.864183  0.377416  0.380985  1
  Be  Be2  1  0.377416  0.864183  0.380985  1
  Be  Be3  1  0.377416  0.377416  0.380985  1
  Pd  Pd4  1  0.760585  0.760585  0.718248  1
  Pd  Pd5  1  0.370452  0.370452  0.888645  1
