# generated using pymatgen
data_Gd3(GePd)2
_symmetry_space_group_name_H-M   'P 1'
_cell_length_a   5.71267800
_cell_length_b   8.07808300
_cell_length_c   13.14308100
_cell_angle_alpha   90.00000000
_cell_angle_beta   90.00000000
_cell_angle_gamma   90.00000000
_symmetry_Int_Tables_number   1
_chemical_formula_structural   Gd3(GePd)2
_chemical_formula_sum   'Gd12 Ge8 Pd8'
_cell_volume   606.52016006
_cell_formula_units_Z   4
loop_
 _symmetry_equiv_pos_site_id
 _symmetry_equiv_pos_as_xyz
  1  'x, y, z'
loop_
 _atom_site_type_symbol
 _atom_site_label
 _atom_site_symmetry_multiplicity
 _atom_site_fract_x
 _atom_site_fract_y
 _atom_site_fract_z
 _atom_site_occupancy
  Gd  Gd0  1  0.637526  0.263969  0.250000  1
  Gd  Gd1  1  0.362474  0.736031  0.750000  1
  Gd  Gd2  1  0.362474  0.763969  0.250000  1
  Gd  Gd3  1  0.637526  0.236031  0.750000  1
  Gd  Gd4  1  0.135940  0.401345  0.104418  1
  Gd  Gd5  1  0.864060  0.598655  0.895582  1
  Gd  Gd6  1  0.864060  0.598655  0.604418  1
  Gd  Gd7  1  0.864060  0.901345  0.395582  1
  Gd  Gd8  1  0.135940  0.401345  0.395582  1
  Gd  Gd9  1  0.135940  0.098655  0.604418  1
  Gd  Gd10  1  0.135940  0.098655  0.895582  1
  Gd  Gd11  1  0.864060  0.901345  0.104418  1
  Ge  Ge12  1  0.137263  0.115170  0.250000  1
  Ge  Ge13  1  0.862737  0.884830  0.750000  1
  Ge  Ge14  1  0.862737  0.615170  0.250000  1
  Ge  Ge15  1  0.137263  0.384830  0.750000  1
  Ge  Ge16  1  0.691707  0.250000  0.000000  1
  Ge  Ge17  1  0.308293  0.750000  0.000000  1
  Ge  Ge18  1  0.308293  0.750000  0.500000  1
  Ge  Ge19  1  0.691707  0.250000  0.500000  1
  Pd  Pd20  1  0.382158  0.049914  0.090998  1
  Pd  Pd21  1  0.617842  0.950086  0.909002  1
  Pd  Pd22  1  0.617842  0.950086  0.590998  1
  Pd  Pd23  1  0.617842  0.549914  0.409002  1
  Pd  Pd24  1  0.382158  0.049914  0.409002  1
  Pd  Pd25  1  0.382158  0.450086  0.590998  1
  Pd  Pd26  1  0.382158  0.450086  0.909002  1
  Pd  Pd27  1  0.617842  0.549914  0.090998  1
