# generated using pymatgen
data_Nd2Mo(SeO4)3
_symmetry_space_group_name_H-M   'P 1'
_cell_length_a   6.77148512
_cell_length_b   7.31431268
_cell_length_c   11.17594226
_cell_angle_alpha   85.03323668
_cell_angle_beta   73.10473746
_cell_angle_gamma   86.09119759
_symmetry_Int_Tables_number   1
_chemical_formula_structural   Nd2Mo(SeO4)3
_chemical_formula_sum   'Nd4 Mo2 Se6 O24'
_cell_volume   527.11282303
_cell_formula_units_Z   2
loop_
 _symmetry_equiv_pos_site_id
 _symmetry_equiv_pos_as_xyz
  1  'x, y, z'
loop_
 _atom_site_type_symbol
 _atom_site_label
 _atom_site_symmetry_multiplicity
 _atom_site_fract_x
 _atom_site_fract_y
 _atom_site_fract_z
 _atom_site_occupancy
  Nd  Nd0  1  0.732185  0.640312  0.509956  1
  Nd  Nd1  1  0.267815  0.359688  0.490044  1
  Nd  Nd2  1  0.204083  0.180138  0.165797  1
  Nd  Nd3  1  0.795917  0.819862  0.834203  1
  Mo  Mo4  1  0.721098  0.893268  0.208150  1
  Mo  Mo5  1  0.278902  0.106732  0.791850  1
  Se  Se6  1  0.196942  0.661900  0.216222  1
  Se  Se7  1  0.803058  0.338100  0.783778  1
  Se  Se8  1  0.657328  0.357353  0.141798  1
  Se  Se9  1  0.342672  0.642647  0.858202  1
  Se  Se10  1  0.789397  0.139052  0.490820  1
  Se  Se11  1  0.210603  0.860948  0.509180  1
  O  O12  1  0.693855  0.677401  0.298291  1
  O  O13  1  0.306145  0.322599  0.701709  1
  O  O14  1  0.720229  0.965836  0.414258  1
  O  O15  1  0.279771  0.034164  0.585742  1
  O  O16  1  0.455785  0.972853  0.234665  1
  O  O17  1  0.544215  0.027147  0.765335  1
  O  O18  1  0.818518  0.167430  0.178432  1
  O  O19  1  0.181482  0.832570  0.821568  1
  O  O20  1  0.782786  0.833968  0.050580  1
  O  O21  1  0.217214  0.166032  0.949420  1
  O  O22  1  0.052464  0.870029  0.197266  1
  O  O23  1  0.947536  0.129971  0.802734  1
  O  O24  1  0.098227  0.501992  0.151012  1
  O  O25  1  0.901773  0.498008  0.848988  1
  O  O26  1  0.086083  0.604530  0.378592  1
  O  O27  1  0.913917  0.395470  0.621408  1
  O  O28  1  0.555565  0.271180  0.037454  1
  O  O29  1  0.444435  0.728820  0.962546  1
  O  O30  1  0.430434  0.347725  0.266709  1
  O  O31  1  0.569566  0.652275  0.733291  1
  O  O32  1  0.037705  0.189114  0.394459  1
  O  O33  1  0.962295  0.810886  0.605541  1
  O  O34  1  0.644964  0.334494  0.459392  1
  O  O35  1  0.355036  0.665506  0.540608  1
