# generated using pymatgen
data_TbAg(PSe3)2
_symmetry_space_group_name_H-M   'P 1'
_cell_length_a   14.98491957
_cell_length_b   14.98491937
_cell_length_c   14.98492055
_cell_angle_alpha   25.76721884
_cell_angle_beta   25.76722220
_cell_angle_gamma   25.76722285
_symmetry_Int_Tables_number   1
_chemical_formula_structural   TbAg(PSe3)2
_chemical_formula_sum   'Tb2 Ag2 P4 Se12'
_cell_volume   559.96147985
_cell_formula_units_Z   2
loop_
 _symmetry_equiv_pos_site_id
 _symmetry_equiv_pos_as_xyz
  1  'x, y, z'
loop_
 _atom_site_type_symbol
 _atom_site_label
 _atom_site_symmetry_multiplicity
 _atom_site_fract_x
 _atom_site_fract_y
 _atom_site_fract_z
 _atom_site_occupancy
  Tb  Tb0  1  0.087378  0.087378  0.087378  1
  Tb  Tb1  1  0.912622  0.912622  0.912622  1
  Ag  Ag2  1  0.593627  0.593627  0.593627  1
  Ag  Ag3  1  0.406373  0.406373  0.406373  1
  P  P4  1  0.724334  0.724334  0.724334  1
  P  P5  1  0.776627  0.776627  0.776627  1
  P  P6  1  0.223373  0.223373  0.223373  1
  P  P7  1  0.275666  0.275666  0.275666  1
  Se  Se8  1  0.488914  0.763352  0.120737  1
  Se  Se9  1  0.004863  0.742920  0.376960  1
  Se  Se10  1  0.623040  0.995137  0.257080  1
  Se  Se11  1  0.742920  0.376960  0.004863  1
  Se  Se12  1  0.763352  0.120737  0.488914  1
  Se  Se13  1  0.376960  0.004863  0.742920  1
  Se  Se14  1  0.257080  0.623040  0.995137  1
  Se  Se15  1  0.120737  0.488914  0.763352  1
  Se  Se16  1  0.995137  0.257080  0.623040  1
  Se  Se17  1  0.879263  0.511086  0.236648  1
  Se  Se18  1  0.236648  0.879263  0.511086  1
  Se  Se19  1  0.511086  0.236648  0.879263  1
