# generated using pymatgen
data_TiV5Ir2
_symmetry_space_group_name_H-M   'P 1'
_cell_length_a   4.81380800
_cell_length_b   4.81380800
_cell_length_c   4.82830400
_cell_angle_alpha   90.00000000
_cell_angle_beta   90.00000000
_cell_angle_gamma   90.00000000
_symmetry_Int_Tables_number   1
_chemical_formula_structural   TiV5Ir2
_chemical_formula_sum   'Ti1 V5 Ir2'
_cell_volume   111.88506926
_cell_formula_units_Z   1
loop_
 _symmetry_equiv_pos_site_id
 _symmetry_equiv_pos_as_xyz
  1  'x, y, z'
loop_
 _atom_site_type_symbol
 _atom_site_label
 _atom_site_symmetry_multiplicity
 _atom_site_fract_x
 _atom_site_fract_y
 _atom_site_fract_z
 _atom_site_occupancy
  Ti  Ti0  1  0.000000  0.500000  0.750000  1
  V  V1  1  0.500000  0.248595  0.999373  1
  V  V2  1  0.500000  0.751405  0.999373  1
  V  V3  1  0.251405  0.000000  0.500627  1
  V  V4  1  0.748595  0.000000  0.500627  1
  V  V5  1  0.000000  0.500000  0.250000  1
  Ir  Ir6  1  0.500000  0.500000  0.497089  1
  Ir  Ir7  1  0.000000  0.000000  0.002911  1
