# generated using pymatgen
data_Ta8Nb2Si5Sn
_symmetry_space_group_name_H-M   'P 1'
_cell_length_a   7.62575432
_cell_length_b   7.62575344
_cell_length_c   7.62625258
_cell_angle_alpha   128.10550228
_cell_angle_beta   128.04966627
_cell_angle_gamma   76.49463786
_symmetry_Int_Tables_number   1
_chemical_formula_structural   Ta8Nb2Si5Sn
_chemical_formula_sum   'Ta8 Nb2 Si5 Sn1'
_cell_volume   266.97754381
_cell_formula_units_Z   1
loop_
 _symmetry_equiv_pos_site_id
 _symmetry_equiv_pos_as_xyz
  1  'x, y, z'
loop_
 _atom_site_type_symbol
 _atom_site_label
 _atom_site_symmetry_multiplicity
 _atom_site_fract_x
 _atom_site_fract_y
 _atom_site_fract_z
 _atom_site_occupancy
  Ta  Ta0  1  0.507098  0.023552  0.825772  1
  Ta  Ta1  1  0.197780  0.681325  0.174228  1
  Ta  Ta2  1  0.993285  0.818456  0.516994  1
  Ta  Ta3  1  0.301461  0.476291  0.483006  1
  Ta  Ta4  1  0.475683  0.992756  0.174052  1
  Ta  Ta5  1  0.818705  0.301632  0.825948  1
  Ta  Ta6  1  0.002027  0.002027  0.000000  1
  Ta  Ta7  1  0.498500  0.498500  0.000000  1
  Nb  Nb8  1  0.024615  0.197476  0.516333  1
  Nb  Nb9  1  0.681142  0.508282  0.483667  1
  Si  Si10  1  0.249911  0.249911  0.000000  1
  Si  Si11  1  0.368997  0.130886  0.500082  1
  Si  Si12  1  0.630804  0.868916  0.499918  1
  Si  Si13  1  0.868829  0.369008  0.237887  1
  Si  Si14  1  0.131121  0.630942  0.762113  1
  Sn  Sn15  1  0.750041  0.750041  0.000000  1
