# generated using pymatgen
data_Na8Sr4TiSnP8
_symmetry_space_group_name_H-M   'P 1'
_cell_length_a   9.48659616
_cell_length_b   9.49891124
_cell_length_c   7.41489733
_cell_angle_alpha   89.81419761
_cell_angle_beta   89.38088970
_cell_angle_gamma   120.26480602
_symmetry_Int_Tables_number   1
_chemical_formula_structural   Na8Sr4TiSnP8
_chemical_formula_sum   'Na8 Sr4 Ti1 Sn1 P8'
_cell_volume   577.04227702
_cell_formula_units_Z   1
loop_
 _symmetry_equiv_pos_site_id
 _symmetry_equiv_pos_as_xyz
  1  'x, y, z'
loop_
 _atom_site_type_symbol
 _atom_site_label
 _atom_site_symmetry_multiplicity
 _atom_site_fract_x
 _atom_site_fract_y
 _atom_site_fract_z
 _atom_site_occupancy
  Na  Na0  1  0.466197  0.926570  0.383109  1
  Na  Na1  1  0.942046  0.472661  0.892621  1
  Na  Na2  1  0.870213  0.733184  0.198777  1
  Na  Na3  1  0.276830  0.129302  0.231190  1
  Na  Na4  1  0.856013  0.133122  0.219730  1
  Na  Na5  1  0.135214  0.290735  0.739099  1
  Na  Na6  1  0.721859  0.864252  0.705752  1
  Na  Na7  1  0.137021  0.847891  0.726289  1
  Sr  Sr8  1  0.054798  0.532107  0.393129  1
  Sr  Sr9  1  0.478734  0.534821  0.385950  1
  Sr  Sr10  1  0.531384  0.055230  0.887117  1
  Sr  Sr11  1  0.534332  0.479231  0.884624  1
  Ti  Ti12  1  0.328359  0.664159  0.999524  1
  Sn  Sn13  1  0.658814  0.322386  0.503474  1
  P  P14  1  0.663526  0.338817  0.160014  1
  P  P15  1  0.337575  0.664491  0.674021  1
  P  P16  1  0.198487  0.389900  0.114677  1
  P  P17  1  0.612311  0.805513  0.093589  1
  P  P18  1  0.197820  0.807324  0.103656  1
  P  P19  1  0.812014  0.627199  0.594263  1
  P  P20  1  0.367491  0.188642  0.621401  1
  P  P21  1  0.817976  0.191479  0.607062  1
