# generated using pymatgen
data_Y2Ho3Lu3(Si3Rh)4
_symmetry_space_group_name_H-M   'P 1'
_cell_length_a   8.15070000
_cell_length_b   8.15069978
_cell_length_c   7.82595500
_cell_angle_alpha   90.00000000
_cell_angle_beta   90.00000000
_cell_angle_gamma   120.00000091
_symmetry_Int_Tables_number   1
_chemical_formula_structural   Y2Ho3Lu3(Si3Rh)4
_chemical_formula_sum   'Y2 Ho3 Lu3 Si12 Rh4'
_cell_volume   450.25420673
_cell_formula_units_Z   1
loop_
 _symmetry_equiv_pos_site_id
 _symmetry_equiv_pos_as_xyz
  1  'x, y, z'
loop_
 _atom_site_type_symbol
 _atom_site_label
 _atom_site_symmetry_multiplicity
 _atom_site_fract_x
 _atom_site_fract_y
 _atom_site_fract_z
 _atom_site_occupancy
  Y  Y0  1  0.000000  0.000000  0.250000  1
  Y  Y1  1  0.000000  0.000000  0.750000  1
  Ho  Ho2  1  0.491024  0.508976  0.750000  1
  Ho  Ho3  1  0.491024  0.982049  0.750000  1
  Ho  Ho4  1  0.017951  0.508976  0.750000  1
  Lu  Lu5  1  0.509078  0.490922  0.250000  1
  Lu  Lu6  1  0.509078  0.018155  0.250000  1
  Lu  Lu7  1  0.981845  0.490922  0.250000  1
  Si  Si8  1  0.167482  0.832518  0.498299  1
  Si  Si9  1  0.167482  0.334961  0.498299  1
  Si  Si10  1  0.665039  0.832518  0.498299  1
  Si  Si11  1  0.832783  0.167217  0.498148  1
  Si  Si12  1  0.832783  0.665567  0.498148  1
  Si  Si13  1  0.334433  0.167217  0.498148  1
  Si  Si14  1  0.832783  0.167217  0.001852  1
  Si  Si15  1  0.832783  0.665567  0.001852  1
  Si  Si16  1  0.334433  0.167217  0.001852  1
  Si  Si17  1  0.167482  0.832518  0.001701  1
  Si  Si18  1  0.167482  0.334961  0.001701  1
  Si  Si19  1  0.665039  0.832518  0.001701  1
  Rh  Rh20  1  0.333333  0.666667  0.462317  1
  Rh  Rh21  1  0.666667  0.333333  0.530956  1
  Rh  Rh22  1  0.666667  0.333333  0.969044  1
  Rh  Rh23  1  0.333333  0.666667  0.037683  1
