# generated using pymatgen
data_Cs6TmNpI12
_symmetry_space_group_name_H-M   'P 1'
_cell_length_a   10.74895307
_cell_length_b   10.78023844
_cell_length_c   8.91045000
_cell_angle_alpha   90.00000000
_cell_angle_beta   90.00000000
_cell_angle_gamma   89.71516622
_symmetry_Int_Tables_number   1
_chemical_formula_structural   Cs6TmNpI12
_chemical_formula_sum   'Cs6 Tm1 Np1 I12'
_cell_volume   1032.49701441
_cell_formula_units_Z   1
loop_
 _symmetry_equiv_pos_site_id
 _symmetry_equiv_pos_as_xyz
  1  'x, y, z'
loop_
 _atom_site_type_symbol
 _atom_site_label
 _atom_site_symmetry_multiplicity
 _atom_site_fract_x
 _atom_site_fract_y
 _atom_site_fract_z
 _atom_site_occupancy
  Cs  Cs0  1  0.000000  0.000000  0.500000  1
  Cs  Cs1  1  0.000000  0.000000  0.000000  1
  Cs  Cs2  1  0.233045  0.585857  0.500000  1
  Cs  Cs3  1  0.766955  0.414143  0.500000  1
  Cs  Cs4  1  0.413552  0.234687  0.000000  1
  Cs  Cs5  1  0.586448  0.765313  0.000000  1
  Tm  Tm6  1  0.000000  0.500000  0.000000  1
  Np  Np7  1  0.500000  0.000000  0.500000  1
  I  I8  1  0.697915  0.059769  0.747104  1
  I  I9  1  0.302085  0.940231  0.747104  1
  I  I10  1  0.942699  0.691349  0.239875  1
  I  I11  1  0.057301  0.308651  0.239875  1
  I  I12  1  0.302085  0.940231  0.252896  1
  I  I13  1  0.697915  0.059769  0.252896  1
  I  I14  1  0.057301  0.308651  0.760125  1
  I  I15  1  0.942699  0.691349  0.760125  1
  I  I16  1  0.571295  0.720619  0.500000  1
  I  I17  1  0.428705  0.279381  0.500000  1
  I  I18  1  0.270561  0.569808  0.000000  1
  I  I19  1  0.729439  0.430192  0.000000  1
