# generated using pymatgen
data_Nd4Tm(SiHg)2
_symmetry_space_group_name_H-M   'P 1'
_cell_length_a   9.14345649
_cell_length_b   9.14345642
_cell_length_c   7.68012500
_cell_angle_alpha   90.00000000
_cell_angle_beta   90.00000000
_cell_angle_gamma   130.41673451
_symmetry_Int_Tables_number   1
_chemical_formula_structural   Nd4Tm(SiHg)2
_chemical_formula_sum   'Nd8 Tm2 Si4 Hg4'
_cell_volume   488.84689254
_cell_formula_units_Z   2
loop_
 _symmetry_equiv_pos_site_id
 _symmetry_equiv_pos_as_xyz
  1  'x, y, z'
loop_
 _atom_site_type_symbol
 _atom_site_label
 _atom_site_symmetry_multiplicity
 _atom_site_fract_x
 _atom_site_fract_y
 _atom_site_fract_z
 _atom_site_occupancy
  Nd  Nd0  1  0.557722  0.811776  0.178352  1
  Nd  Nd1  1  0.311776  0.057722  0.321648  1
  Nd  Nd2  1  0.188224  0.442278  0.821648  1
  Nd  Nd3  1  0.942278  0.688224  0.678352  1
  Nd  Nd4  1  0.688224  0.942278  0.678352  1
  Nd  Nd5  1  0.442278  0.188224  0.821648  1
  Nd  Nd6  1  0.811776  0.557722  0.178352  1
  Nd  Nd7  1  0.057722  0.311776  0.321648  1
  Tm  Tm8  1  0.500000  0.500000  0.500000  1
  Tm  Tm9  1  0.000000  0.000000  0.000000  1
  Si  Si10  1  0.615874  0.615874  0.881444  1
  Si  Si11  1  0.115874  0.115874  0.618556  1
  Si  Si12  1  0.884126  0.884126  0.381444  1
  Si  Si13  1  0.384126  0.384126  0.118556  1
  Hg  Hg14  1  0.279945  0.720055  0.500000  1
  Hg  Hg15  1  0.220055  0.779945  0.000000  1
  Hg  Hg16  1  0.720055  0.279945  0.500000  1
  Hg  Hg17  1  0.779945  0.220055  0.000000  1
