# generated using pymatgen
data_SmMnAlO5
_symmetry_space_group_name_H-M   'P 1'
_cell_length_a   5.70318200
_cell_length_b   7.37856500
_cell_length_c   8.52695400
_cell_angle_alpha   90.00000000
_cell_angle_beta   90.00000000
_cell_angle_gamma   90.00000000
_symmetry_Int_Tables_number   1
_chemical_formula_structural   SmMnAlO5
_chemical_formula_sum   'Sm4 Mn4 Al4 O20'
_cell_volume   358.82530163
_cell_formula_units_Z   4
loop_
 _symmetry_equiv_pos_site_id
 _symmetry_equiv_pos_as_xyz
  1  'x, y, z'
loop_
 _atom_site_type_symbol
 _atom_site_label
 _atom_site_symmetry_multiplicity
 _atom_site_fract_x
 _atom_site_fract_y
 _atom_site_fract_z
 _atom_site_occupancy
  Sm  Sm0  1  0.500000  0.365886  0.330449  1
  Sm  Sm1  1  0.500000  0.634114  0.669551  1
  Sm  Sm2  1  0.500000  0.134114  0.830449  1
  Sm  Sm3  1  0.500000  0.865886  0.169551  1
  Mn  Mn4  1  0.244809  0.000000  0.500000  1
  Mn  Mn5  1  0.755191  0.000000  0.500000  1
  Mn  Mn6  1  0.755191  0.500000  0.000000  1
  Mn  Mn7  1  0.244809  0.500000  0.000000  1
  Al  Al8  1  0.000000  0.107918  0.141073  1
  Al  Al9  1  0.000000  0.892082  0.858927  1
  Al  Al10  1  0.000000  0.392082  0.641073  1
  Al  Al11  1  0.000000  0.607918  0.358927  1
  O  O12  1  0.000000  0.341566  0.069930  1
  O  O13  1  0.000000  0.658434  0.930070  1
  O  O14  1  0.000000  0.158434  0.569930  1
  O  O15  1  0.000000  0.841566  0.430070  1
  O  O16  1  0.215993  0.000000  0.000000  1
  O  O17  1  0.784007  0.000000  0.000000  1
  O  O18  1  0.784007  0.500000  0.500000  1
  O  O19  1  0.215993  0.500000  0.500000  1
  O  O20  1  0.245182  0.102530  0.289939  1
  O  O21  1  0.754818  0.897470  0.710061  1
  O  O22  1  0.245182  0.897470  0.710061  1
  O  O23  1  0.754818  0.397470  0.789939  1
  O  O24  1  0.754818  0.102530  0.289939  1
  O  O25  1  0.245182  0.602530  0.210061  1
  O  O26  1  0.754818  0.602530  0.210061  1
  O  O27  1  0.245182  0.397470  0.789939  1
  O  O28  1  0.500000  0.340420  0.054121  1
  O  O29  1  0.500000  0.659580  0.945879  1
  O  O30  1  0.500000  0.159580  0.554121  1
  O  O31  1  0.500000  0.840420  0.445879  1
