# generated using pymatgen
data_AcTm19Pt16
_symmetry_space_group_name_H-M   'P 1'
_cell_length_a   7.38832055
_cell_length_b   7.46916066
_cell_length_c   14.69936100
_cell_angle_alpha   90.00322948
_cell_angle_beta   89.93642521
_cell_angle_gamma   89.93611202
_symmetry_Int_Tables_number   1
_chemical_formula_structural   AcTm19Pt16
_chemical_formula_sum   'Ac1 Tm19 Pt16'
_cell_volume   811.17666340
_cell_formula_units_Z   1
loop_
 _symmetry_equiv_pos_site_id
 _symmetry_equiv_pos_as_xyz
  1  'x, y, z'
loop_
 _atom_site_type_symbol
 _atom_site_label
 _atom_site_symmetry_multiplicity
 _atom_site_fract_x
 _atom_site_fract_y
 _atom_site_fract_z
 _atom_site_occupancy
  Ac  Ac0  1  0.983700  0.826091  0.591668  1
  Tm  Tm1  1  0.635890  0.171159  0.624263  1
  Tm  Tm2  1  0.140581  0.332045  0.880282  1
  Tm  Tm3  1  0.359282  0.832857  0.122155  1
  Tm  Tm4  1  0.854395  0.664410  0.374790  1
  Tm  Tm5  1  0.360028  0.830081  0.377061  1
  Tm  Tm6  1  0.860649  0.668319  0.121608  1
  Tm  Tm7  1  0.639010  0.167994  0.880283  1
  Tm  Tm8  1  0.141604  0.331133  0.622062  1
  Tm  Tm9  1  0.486780  0.672224  0.594330  1
  Tm  Tm10  1  0.984422  0.825343  0.906378  1
  Tm  Tm11  1  0.514524  0.323556  0.094079  1
  Tm  Tm12  1  0.013944  0.182475  0.402454  1
  Tm  Tm13  1  0.512720  0.322963  0.406347  1
  Tm  Tm14  1  0.014897  0.175764  0.094567  1
  Tm  Tm15  1  0.483748  0.675305  0.907036  1
  Tm  Tm16  1  0.801949  0.508009  0.753561  1
  Tm  Tm17  1  0.304081  0.990743  0.753714  1
  Tm  Tm18  1  0.197681  0.490718  0.248808  1
  Tm  Tm19  1  0.697962  0.009506  0.248952  1
  Pt  Pt20  1  0.691345  0.978706  0.452175  1
  Pt  Pt21  1  0.195529  0.529380  0.042282  1
  Pt  Pt22  1  0.303904  0.027699  0.958725  1
  Pt  Pt23  1  0.801065  0.456853  0.536744  1
  Pt  Pt24  1  0.320686  0.041398  0.537293  1
  Pt  Pt25  1  0.803067  0.471212  0.958746  1
  Pt  Pt26  1  0.695953  0.971478  0.042217  1
  Pt  Pt27  1  0.196272  0.525592  0.456613  1
  Pt  Pt28  1  0.437020  0.383432  0.750833  1
  Pt  Pt29  1  0.934264  0.119998  0.753878  1
  Pt  Pt30  1  0.564275  0.612180  0.248961  1
  Pt  Pt31  1  0.064896  0.887013  0.250077  1
  Pt  Pt32  1  0.658682  0.854592  0.753439  1
  Pt  Pt33  1  0.169024  0.639357  0.756122  1
  Pt  Pt34  1  0.338025  0.144685  0.249212  1
  Pt  Pt35  1  0.838147  0.355732  0.248289  1
