# generated using pymatgen
data_Gd2Dy3(SiB4)2
_symmetry_space_group_name_H-M   'P 1'
_cell_length_a   7.24971223
_cell_length_b   7.24987128
_cell_length_c   8.16098506
_cell_angle_alpha   90.01359569
_cell_angle_beta   89.99662293
_cell_angle_gamma   90.02878327
_symmetry_Int_Tables_number   1
_chemical_formula_structural   Gd2Dy3(SiB4)2
_chemical_formula_sum   'Gd4 Dy6 Si4 B16'
_cell_volume   428.93706820
_cell_formula_units_Z   2
loop_
 _symmetry_equiv_pos_site_id
 _symmetry_equiv_pos_as_xyz
  1  'x, y, z'
loop_
 _atom_site_type_symbol
 _atom_site_label
 _atom_site_symmetry_multiplicity
 _atom_site_fract_x
 _atom_site_fract_y
 _atom_site_fract_z
 _atom_site_occupancy
  Gd  Gd0  1  0.680801  0.181058  0.225366  1
  Gd  Gd1  1  0.319149  0.819082  0.774450  1
  Gd  Gd2  1  0.319144  0.819197  0.225148  1
  Gd  Gd3  1  0.819390  0.680422  0.225170  1
  Dy  Dy4  1  0.819428  0.680489  0.777325  1
  Dy  Dy5  1  0.680634  0.180646  0.776874  1
  Dy  Dy6  1  0.180509  0.319353  0.777225  1
  Dy  Dy7  1  0.180433  0.319466  0.222357  1
  Dy  Dy8  1  0.000177  0.000332  0.500261  1
  Dy  Dy9  1  0.499955  0.499834  0.500290  1
  Si  Si10  1  0.114632  0.613559  0.501214  1
  Si  Si11  1  0.885489  0.384492  0.501352  1
  Si  Si12  1  0.385173  0.115804  0.501154  1
  Si  Si13  1  0.614923  0.885992  0.501246  1
  B  B14  1  0.172370  0.039854  0.999376  1
  B  B15  1  0.827587  0.960914  0.999575  1
  B  B16  1  0.960922  0.172675  0.999438  1
  B  B17  1  0.327628  0.538722  0.999371  1
  B  B18  1  0.038991  0.827946  0.999493  1
  B  B19  1  0.672375  0.460502  0.999511  1
  B  B20  1  0.539413  0.672125  0.999403  1
  B  B21  1  0.460537  0.327298  0.999526  1
  B  B22  1  0.090095  0.589897  0.999359  1
  B  B23  1  0.910077  0.409850  0.999379  1
  B  B24  1  0.409800  0.090435  0.999284  1
  B  B25  1  0.590320  0.909906  0.999349  1
  B  B26  1  0.000299  0.000581  0.159834  1
  B  B27  1  0.999659  0.000398  0.838910  1
  B  B28  1  0.500427  0.499462  0.838966  1
  B  B29  1  0.499661  0.499708  0.159794  1
