# generated using pymatgen
data_LiMg3(GePt)2
_symmetry_space_group_name_H-M   'P 1'
_cell_length_a   4.35945800
_cell_length_b   4.35945904
_cell_length_c   8.52843000
_cell_angle_alpha   90.00000000
_cell_angle_beta   90.00000000
_cell_angle_gamma   120.00000727
_symmetry_Int_Tables_number   1
_chemical_formula_structural   LiMg3(GePt)2
_chemical_formula_sum   'Li1 Mg3 Ge2 Pt2'
_cell_volume   140.36692587
_cell_formula_units_Z   1
loop_
 _symmetry_equiv_pos_site_id
 _symmetry_equiv_pos_as_xyz
  1  'x, y, z'
loop_
 _atom_site_type_symbol
 _atom_site_label
 _atom_site_symmetry_multiplicity
 _atom_site_fract_x
 _atom_site_fract_y
 _atom_site_fract_z
 _atom_site_occupancy
  Li  Li0  1  0.333333  0.666667  0.588575  1
  Mg  Mg1  1  0.666667  0.333333  0.083542  1
  Mg  Mg2  1  0.666667  0.333333  0.434079  1
  Mg  Mg3  1  0.333333  0.666667  0.906540  1
  Ge  Ge4  1  0.000000  0.000000  0.727254  1
  Ge  Ge5  1  0.000000  0.000000  0.259818  1
  Pt  Pt6  1  0.666667  0.333333  0.755995  1
  Pt  Pt7  1  0.333333  0.666667  0.244197  1
