# generated using pymatgen
data_La7PrSiPd24
_symmetry_space_group_name_H-M   'P 1'
_cell_length_a   8.53519916
_cell_length_b   8.53519916
_cell_length_c   8.53519916
_cell_angle_alpha   90.01561310
_cell_angle_beta   89.98438690
_cell_angle_gamma   89.98438690
_symmetry_Int_Tables_number   1
_chemical_formula_structural   La7PrSiPd24
_chemical_formula_sum   'La7 Pr1 Si1 Pd24'
_cell_volume   621.78598595
_cell_formula_units_Z   1
loop_
 _symmetry_equiv_pos_site_id
 _symmetry_equiv_pos_as_xyz
  1  'x, y, z'
loop_
 _atom_site_type_symbol
 _atom_site_label
 _atom_site_symmetry_multiplicity
 _atom_site_fract_x
 _atom_site_fract_y
 _atom_site_fract_z
 _atom_site_occupancy
  La  La0  1  0.253675  0.253589  0.253589  1
  La  La1  1  0.746417  0.746432  0.746432  1
  La  La2  1  0.746411  0.746325  0.253589  1
  La  La3  1  0.746411  0.253589  0.746325  1
  La  La4  1  0.253568  0.253583  0.746432  1
  La  La5  1  0.253568  0.746432  0.253583  1
  La  La6  1  0.253582  0.746418  0.746418  1
  Pr  Pr7  1  0.746676  0.253324  0.253324  1
  Si  Si8  1  0.999966  0.000034  0.000034  1
  Pd  Pd9  1  0.256912  0.500010  0.000001  1
  Pd  Pd10  1  0.743088  0.500004  0.999978  1
  Pd  Pd11  1  0.000022  0.256912  0.500004  1
  Pd  Pd12  1  0.499996  0.256912  0.999978  1
  Pd  Pd13  1  0.999999  0.743088  0.500010  1
  Pd  Pd14  1  0.499990  0.743088  0.000001  1
  Pd  Pd15  1  0.499996  0.999978  0.256912  1
  Pd  Pd16  1  0.256912  0.000001  0.500010  1
  Pd  Pd17  1  0.499990  0.000001  0.743088  1
  Pd  Pd18  1  0.743088  0.999978  0.500004  1
  Pd  Pd19  1  0.000022  0.500004  0.256912  1
  Pd  Pd20  1  0.999999  0.500010  0.743088  1
  Pd  Pd21  1  0.252106  0.500000  0.500000  1
  Pd  Pd22  1  0.747886  0.500035  0.500035  1
  Pd  Pd23  1  0.499965  0.252114  0.500035  1
  Pd  Pd24  1  0.500000  0.747894  0.500000  1
  Pd  Pd25  1  0.499965  0.500035  0.252114  1
  Pd  Pd26  1  0.500000  0.500000  0.747894  1
  Pd  Pd27  1  0.280918  0.999998  0.999998  1
  Pd  Pd28  1  0.719121  0.000126  0.000126  1
  Pd  Pd29  1  0.999874  0.280879  0.000126  1
  Pd  Pd30  1  0.000002  0.719082  0.999998  1
  Pd  Pd31  1  0.999874  0.000126  0.280879  1
  Pd  Pd32  1  0.000002  0.999998  0.719082  1
