# generated using pymatgen
data_Sc2Ga4CoNi
_symmetry_space_group_name_H-M   'P 1'
_cell_length_a   5.17876803
_cell_length_b   5.17876820
_cell_length_c   6.54079600
_cell_angle_alpha   90.00000000
_cell_angle_beta   90.00000000
_cell_angle_gamma   134.17889891
_symmetry_Int_Tables_number   1
_chemical_formula_structural   Sc2Ga4CoNi
_chemical_formula_sum   'Sc2 Ga4 Co1 Ni1'
_cell_volume   125.80677309
_cell_formula_units_Z   1
loop_
 _symmetry_equiv_pos_site_id
 _symmetry_equiv_pos_as_xyz
  1  'x, y, z'
loop_
 _atom_site_type_symbol
 _atom_site_label
 _atom_site_symmetry_multiplicity
 _atom_site_fract_x
 _atom_site_fract_y
 _atom_site_fract_z
 _atom_site_occupancy
  Sc  Sc0  1  0.928351  0.071649  0.250000  1
  Sc  Sc1  1  0.074268  0.925732  0.750000  1
  Ga  Ga2  1  0.639530  0.360470  0.449402  1
  Ga  Ga3  1  0.359472  0.640528  0.549342  1
  Ga  Ga4  1  0.359472  0.640528  0.950658  1
  Ga  Ga5  1  0.639530  0.360470  0.050598  1
  Co  Co6  1  0.205196  0.794804  0.250000  1
  Ni  Ni7  1  0.794179  0.205821  0.750000  1
