# generated using pymatgen
data_DyHo3Co17(TcP4)3
_symmetry_space_group_name_H-M   'P 1'
_cell_length_a   3.69656500
_cell_length_b   10.33444161
_cell_length_c   11.79164971
_cell_angle_alpha   89.95505585
_cell_angle_beta   90.00000000
_cell_angle_gamma   90.00000000
_symmetry_Int_Tables_number   1
_chemical_formula_structural   DyHo3Co17(TcP4)3
_chemical_formula_sum   'Dy1 Ho3 Co17 Tc3 P12'
_cell_volume   450.46369865
_cell_formula_units_Z   1
loop_
 _symmetry_equiv_pos_site_id
 _symmetry_equiv_pos_as_xyz
  1  'x, y, z'
loop_
 _atom_site_type_symbol
 _atom_site_label
 _atom_site_symmetry_multiplicity
 _atom_site_fract_x
 _atom_site_fract_y
 _atom_site_fract_z
 _atom_site_occupancy
  Dy  Dy0  1  0.250000  0.915289  0.204991  1
  Ho  Ho1  1  0.250000  0.581777  0.702396  1
  Ho  Ho2  1  0.750000  0.414777  0.296039  1
  Ho  Ho3  1  0.750000  0.083862  0.795215  1
  Co  Co4  1  0.750000  0.215880  0.509613  1
  Co  Co5  1  0.250000  0.405905  0.488005  1
  Co  Co6  1  0.250000  0.093113  0.988484  1
  Co  Co7  1  0.750000  0.592380  0.510684  1
  Co  Co8  1  0.750000  0.907322  0.011022  1
  Co  Co9  1  0.250000  0.220404  0.177143  1
  Co  Co10  1  0.250000  0.277724  0.676045  1
  Co  Co11  1  0.750000  0.778182  0.822625  1
  Co  Co12  1  0.750000  0.721452  0.323465  1
  Co  Co13  1  0.250000  0.886179  0.701461  1
  Co  Co14  1  0.250000  0.613429  0.202489  1
  Co  Co15  1  0.750000  0.116448  0.301394  1
  Co  Co16  1  0.750000  0.385676  0.797337  1
  Co  Co17  1  0.250000  0.464363  0.931793  1
  Co  Co18  1  0.250000  0.035994  0.432508  1
  Co  Co19  1  0.750000  0.535804  0.068614  1
  Co  Co20  1  0.750000  0.966993  0.568758  1
  Tc  Tc21  1  0.250000  0.711150  0.989210  1
  Tc  Tc22  1  0.250000  0.789322  0.489585  1
  Tc  Tc23  1  0.750000  0.288717  0.010613  1
  P  P24  1  0.250000  0.419492  0.113753  1
  P  P25  1  0.250000  0.081821  0.612111  1
  P  P26  1  0.750000  0.579106  0.886013  1
  P  P27  1  0.750000  0.921147  0.387474  1
  P  P28  1  0.250000  0.269603  0.864695  1
  P  P29  1  0.250000  0.230607  0.369063  1
  P  P30  1  0.750000  0.730048  0.134582  1
  P  P31  1  0.750000  0.770363  0.633316  1
  P  P32  1  0.250000  0.595732  0.391496  1
  P  P33  1  0.250000  0.903959  0.890616  1
  P  P34  1  0.750000  0.398608  0.606719  1
  P  P35  1  0.750000  0.097371  0.110669  1
