# generated using pymatgen
data_Pr16SmTm3Sn16
_symmetry_space_group_name_H-M   'P 1'
_cell_length_a   8.28256543
_cell_length_b   8.44160818
_cell_length_c   16.02652600
_cell_angle_alpha   90.00000000
_cell_angle_beta   90.00000000
_cell_angle_gamma   90.05621680
_symmetry_Int_Tables_number   1
_chemical_formula_structural   Pr16SmTm3Sn16
_chemical_formula_sum   'Pr16 Sm1 Tm3 Sn16'
_cell_volume   1120.54486351
_cell_formula_units_Z   1
loop_
 _symmetry_equiv_pos_site_id
 _symmetry_equiv_pos_as_xyz
  1  'x, y, z'
loop_
 _atom_site_type_symbol
 _atom_site_label
 _atom_site_symmetry_multiplicity
 _atom_site_fract_x
 _atom_site_fract_y
 _atom_site_fract_z
 _atom_site_occupancy
  Pr  Pr0  1  0.367993  0.836859  0.878674  1
  Pr  Pr1  1  0.868157  0.663109  0.620432  1
  Pr  Pr2  1  0.632584  0.163909  0.379780  1
  Pr  Pr3  1  0.131072  0.336876  0.119890  1
  Pr  Pr4  1  0.632584  0.163909  0.120220  1
  Pr  Pr5  1  0.131072  0.336876  0.380110  1
  Pr  Pr6  1  0.367993  0.836859  0.621326  1
  Pr  Pr7  1  0.868157  0.663109  0.879568  1
  Pr  Pr8  1  0.518253  0.318325  0.900817  1
  Pr  Pr9  1  0.018478  0.181638  0.599549  1
  Pr  Pr10  1  0.481998  0.680966  0.401084  1
  Pr  Pr11  1  0.981130  0.817710  0.098743  1
  Pr  Pr12  1  0.481998  0.680966  0.098916  1
  Pr  Pr13  1  0.981130  0.817710  0.401257  1
  Pr  Pr14  1  0.518253  0.318325  0.599183  1
  Pr  Pr15  1  0.018478  0.181638  0.900451  1
  Sm  Sm16  1  0.302580  0.001278  0.250000  1
  Tm  Tm17  1  0.199698  0.501170  0.750000  1
  Tm  Tm18  1  0.699583  0.998557  0.750000  1
  Tm  Tm19  1  0.800495  0.498290  0.250000  1
  Sn  Sn20  1  0.291373  0.034889  0.042328  1
  Sn  Sn21  1  0.791361  0.466739  0.455611  1
  Sn  Sn22  1  0.708467  0.966939  0.544806  1
  Sn  Sn23  1  0.208863  0.533463  0.955110  1
  Sn  Sn24  1  0.708467  0.966939  0.955194  1
  Sn  Sn25  1  0.208863  0.533463  0.544890  1
  Sn  Sn26  1  0.291373  0.034889  0.457672  1
  Sn  Sn27  1  0.791361  0.466739  0.044389  1
  Sn  Sn28  1  0.564457  0.616547  0.750000  1
  Sn  Sn29  1  0.064013  0.883331  0.750000  1
  Sn  Sn30  1  0.436802  0.385631  0.250000  1
  Sn  Sn31  1  0.932065  0.117459  0.250000  1
  Sn  Sn32  1  0.323626  0.146458  0.750000  1
  Sn  Sn33  1  0.823140  0.354272  0.750000  1
  Sn  Sn34  1  0.678740  0.852665  0.250000  1
  Sn  Sn35  1  0.175338  0.641496  0.250000  1
