# generated using pymatgen
data_Rb2VCoS4
_symmetry_space_group_name_H-M   'P 1'
_cell_length_a   13.76346699
_cell_length_b   12.29050214
_cell_length_c   7.29463239
_cell_angle_alpha   85.25424226
_cell_angle_beta   62.86301719
_cell_angle_gamma   31.88274323
_symmetry_Int_Tables_number   1
_chemical_formula_structural   Rb2VCoS4
_chemical_formula_sum   'Rb4 V2 Co2 S8'
_cell_volume   441.77450360
_cell_formula_units_Z   2
loop_
 _symmetry_equiv_pos_site_id
 _symmetry_equiv_pos_as_xyz
  1  'x, y, z'
loop_
 _atom_site_type_symbol
 _atom_site_label
 _atom_site_symmetry_multiplicity
 _atom_site_fract_x
 _atom_site_fract_y
 _atom_site_fract_z
 _atom_site_occupancy
  Rb  Rb0  1  0.572637  0.572637  0.927363  1
  Rb  Rb1  1  0.927363  0.927363  0.572637  1
  Rb  Rb2  1  0.322637  0.322637  0.677363  1
  Rb  Rb3  1  0.677363  0.677363  0.322637  1
  V  V4  1  0.750000  0.750000  0.750000  1
  V  V5  1  0.500000  0.500000  0.500000  1
  Co  Co6  1  0.000000  0.000000  0.000000  1
  Co  Co7  1  0.250000  0.250000  0.250000  1
  S  S8  1  0.215573  0.886982  0.601770  1
  S  S9  1  0.295676  0.601770  0.886982  1
  S  S10  1  0.601770  0.295676  0.215573  1
  S  S11  1  0.886982  0.215573  0.295676  1
  S  S12  1  0.363018  0.034427  0.954324  1
  S  S13  1  0.954324  0.648230  0.363018  1
  S  S14  1  0.648230  0.954324  0.034427  1
  S  S15  1  0.034427  0.363018  0.648230  1
