# generated using pymatgen
data_Ca7CeBi6
_symmetry_space_group_name_H-M   'P 1'
_cell_length_a   8.40964029
_cell_length_b   8.40963766
_cell_length_c   8.31501900
_cell_angle_alpha   109.24345563
_cell_angle_beta   109.24344939
_cell_angle_gamma   109.69802107
_symmetry_Int_Tables_number   1
_chemical_formula_structural   Ca7CeBi6
_chemical_formula_sum   'Ca7 Ce1 Bi6'
_cell_volume   453.95118490
_cell_formula_units_Z   1
loop_
 _symmetry_equiv_pos_site_id
 _symmetry_equiv_pos_as_xyz
  1  'x, y, z'
loop_
 _atom_site_type_symbol
 _atom_site_label
 _atom_site_symmetry_multiplicity
 _atom_site_fract_x
 _atom_site_fract_y
 _atom_site_fract_z
 _atom_site_occupancy
  Ca  Ca0  1  0.148383  0.500549  0.998757  1
  Ca  Ca1  1  0.352165  0.351617  0.350374  1
  Ca  Ca2  1  0.999451  0.147835  0.498207  1
  Ca  Ca3  1  0.862227  0.855909  0.859820  1
  Ca  Ca4  1  0.993684  0.637773  0.497594  1
  Ca  Ca5  1  0.500000  0.000000  0.146818  1
  Ca  Ca6  1  0.644091  0.506316  0.003910  1
  Ce  Ce7  1  0.500000  0.000000  0.648197  1
  Bi  Bi8  1  0.868312  0.245378  0.114453  1
  Bi  Bi9  1  0.129270  0.874793  0.256905  1
  Bi  Bi10  1  0.377067  0.631688  0.746142  1
  Bi  Bi11  1  0.254622  0.122933  0.869075  1
  Bi  Bi12  1  0.745524  0.370730  0.627634  1
  Bi  Bi13  1  0.625207  0.754476  0.382113  1
