# generated using pymatgen
data_Tb3Al2Ga2Ni9B2
_symmetry_space_group_name_H-M   'P 1'
_cell_length_a   5.18579000
_cell_length_b   5.18579097
_cell_length_c   10.61116900
_cell_angle_alpha   90.00000000
_cell_angle_beta   90.00000000
_cell_angle_gamma   119.99999381
_symmetry_Int_Tables_number   1
_chemical_formula_structural   Tb3Al2Ga2Ni9B2
_chemical_formula_sum   'Tb3 Al2 Ga2 Ni9 B2'
_cell_volume   247.12906349
_cell_formula_units_Z   1
loop_
 _symmetry_equiv_pos_site_id
 _symmetry_equiv_pos_as_xyz
  1  'x, y, z'
loop_
 _atom_site_type_symbol
 _atom_site_label
 _atom_site_symmetry_multiplicity
 _atom_site_fract_x
 _atom_site_fract_y
 _atom_site_fract_z
 _atom_site_occupancy
  Tb  Tb0  1  0.000000  0.000000  0.999188  1
  Tb  Tb1  1  0.000000  0.000000  0.336274  1
  Tb  Tb2  1  0.000000  0.000000  0.663375  1
  Al  Al3  1  0.666667  0.333333  0.684674  1
  Al  Al4  1  0.333333  0.666667  0.684674  1
  Ga  Ga5  1  0.333333  0.666667  0.315367  1
  Ga  Ga6  1  0.666667  0.333333  0.315367  1
  Ni  Ni7  1  0.500000  0.000000  0.500901  1
  Ni  Ni8  1  0.500000  0.500000  0.500901  1
  Ni  Ni9  1  0.000000  0.500000  0.500901  1
  Ni  Ni10  1  0.500000  0.000000  0.128317  1
  Ni  Ni11  1  0.500000  0.500000  0.128317  1
  Ni  Ni12  1  0.000000  0.500000  0.128317  1
  Ni  Ni13  1  0.500000  0.000000  0.871037  1
  Ni  Ni14  1  0.500000  0.500000  0.871037  1
  Ni  Ni15  1  0.000000  0.500000  0.871037  1
  B  B16  1  0.333333  0.666667  0.000158  1
  B  B17  1  0.666667  0.333333  0.000158  1
