# generated using pymatgen
data_LiTb16In3(CoIr)2
_symmetry_space_group_name_H-M   'P 1'
_cell_length_a   9.62250961
_cell_length_b   9.62250894
_cell_length_c   9.60137722
_cell_angle_alpha   59.91873058
_cell_angle_beta   59.91872185
_cell_angle_gamma   60.23156790
_symmetry_Int_Tables_number   1
_chemical_formula_structural   LiTb16In3(CoIr)2
_chemical_formula_sum   'Li1 Tb16 In3 Co2 Ir2'
_cell_volume   628.94549781
_cell_formula_units_Z   1
loop_
 _symmetry_equiv_pos_site_id
 _symmetry_equiv_pos_as_xyz
  1  'x, y, z'
loop_
 _atom_site_type_symbol
 _atom_site_label
 _atom_site_symmetry_multiplicity
 _atom_site_fract_x
 _atom_site_fract_y
 _atom_site_fract_z
 _atom_site_occupancy
  Li  Li0  1  0.320802  0.320802  0.319777  1
  Tb  Tb1  1  0.092265  0.710678  0.099272  1
  Tb  Tb2  1  0.940929  0.940929  0.559857  1
  Tb  Tb3  1  0.942767  0.563506  0.940277  1
  Tb  Tb4  1  0.312697  0.689845  0.309257  1
  Tb  Tb5  1  0.937448  0.566845  0.557166  1
  Tb  Tb6  1  0.308258  0.308258  0.691901  1
  Tb  Tb7  1  0.096274  0.096274  0.104722  1
  Tb  Tb8  1  0.561394  0.561394  0.936356  1
  Tb  Tb9  1  0.094758  0.094758  0.708077  1
  Tb  Tb10  1  0.689401  0.310954  0.690276  1
  Tb  Tb11  1  0.688092  0.688092  0.312304  1
  Tb  Tb12  1  0.689845  0.312697  0.309257  1
  Tb  Tb13  1  0.310954  0.689401  0.690276  1
  Tb  Tb14  1  0.566845  0.937448  0.557166  1
  Tb  Tb15  1  0.710678  0.092265  0.099272  1
  Tb  Tb16  1  0.563506  0.942767  0.940277  1
  In  In17  1  0.004499  0.333318  0.331989  1
  In  In18  1  0.333318  0.004499  0.331989  1
  In  In19  1  0.332513  0.332513  0.004908  1
  Co  Co20  1  0.891394  0.891394  0.892557  1
  Co  Co21  1  0.891317  0.891317  0.328954  1
  Ir  Ir22  1  0.326987  0.893060  0.892056  1
  Ir  Ir23  1  0.893060  0.326987  0.892056  1
