# generated using pymatgen
data_YErAg2(Pt2O7)2
_symmetry_space_group_name_H-M   'P 1'
_cell_length_a   7.38400126
_cell_length_b   7.23366954
_cell_length_c   7.23366966
_cell_angle_alpha   59.28440802
_cell_angle_beta   59.25668225
_cell_angle_gamma   59.25668322
_symmetry_Int_Tables_number   1
_chemical_formula_structural   YErAg2(Pt2O7)2
_chemical_formula_sum   'Y1 Er1 Ag2 Pt4 O14'
_cell_volume   268.64079315
_cell_formula_units_Z   1
loop_
 _symmetry_equiv_pos_site_id
 _symmetry_equiv_pos_as_xyz
  1  'x, y, z'
loop_
 _atom_site_type_symbol
 _atom_site_label
 _atom_site_symmetry_multiplicity
 _atom_site_fract_x
 _atom_site_fract_y
 _atom_site_fract_z
 _atom_site_occupancy
  Y  Y0  1  0.125000  0.625000  0.625000  1
  Er  Er1  1  0.625000  0.625000  0.625000  1
  Ag  Ag2  1  0.625000  0.625000  0.125000  1
  Ag  Ag3  1  0.625000  0.125000  0.625000  1
  Pt  Pt4  1  0.625000  0.125000  0.125000  1
  Pt  Pt5  1  0.125000  0.125000  0.125000  1
  Pt  Pt6  1  0.125000  0.625000  0.125000  1
  Pt  Pt7  1  0.125000  0.125000  0.625000  1
  O  O8  1  0.029535  0.468937  0.468937  1
  O  O9  1  0.793529  0.788408  0.223227  1
  O  O10  1  0.794957  0.204975  0.204975  1
  O  O11  1  0.736257  0.761213  0.761213  1
  O  O12  1  0.054353  0.460930  0.029089  1
  O  O13  1  0.456471  0.026773  0.461592  1
  O  O14  1  0.054353  0.029089  0.460930  1
  O  O15  1  0.513743  0.488787  0.488787  1
  O  O16  1  0.195647  0.220911  0.789070  1
  O  O17  1  0.195647  0.789070  0.220911  1
  O  O18  1  0.793529  0.223227  0.788408  1
  O  O19  1  0.455043  0.045025  0.045025  1
  O  O20  1  0.456471  0.461592  0.026773  1
  O  O21  1  0.220465  0.781063  0.781063  1
