# generated using pymatgen
data_ErTmSc3GaSi3
_symmetry_space_group_name_H-M   'P 1'
_cell_length_a   7.09536811
_cell_length_b   7.37892468
_cell_length_c   14.08197500
_cell_angle_alpha   89.99989431
_cell_angle_beta   89.85758386
_cell_angle_gamma   90.14855140
_symmetry_Int_Tables_number   1
_chemical_formula_structural   ErTmSc3GaSi3
_chemical_formula_sum   'Er4 Tm4 Sc12 Ga4 Si12'
_cell_volume   737.27375924
_cell_formula_units_Z   4
loop_
 _symmetry_equiv_pos_site_id
 _symmetry_equiv_pos_as_xyz
  1  'x, y, z'
loop_
 _atom_site_type_symbol
 _atom_site_label
 _atom_site_symmetry_multiplicity
 _atom_site_fract_x
 _atom_site_fract_y
 _atom_site_fract_z
 _atom_site_occupancy
  Er  Er0  1  0.013528  0.175409  0.097181  1
  Er  Er1  1  0.988140  0.824358  0.901906  1
  Er  Er2  1  0.487125  0.677383  0.901664  1
  Er  Er3  1  0.987893  0.826918  0.599996  1
  Tm  Tm4  1  0.510727  0.320831  0.097288  1
  Tm  Tm5  1  0.009716  0.175329  0.400682  1
  Tm  Tm6  1  0.510993  0.324018  0.400660  1
  Tm  Tm7  1  0.490352  0.676347  0.600321  1
  Sc  Sc8  1  0.162742  0.501586  0.751437  1
  Sc  Sc9  1  0.836663  0.497562  0.250081  1
  Sc  Sc10  1  0.336399  0.002979  0.248414  1
  Sc  Sc11  1  0.663291  0.997498  0.749938  1
  Sc  Sc12  1  0.333481  0.174551  0.627762  1
  Sc  Sc13  1  0.669216  0.826381  0.373681  1
  Sc  Sc14  1  0.170120  0.673631  0.373003  1
  Sc  Sc15  1  0.668626  0.826212  0.125599  1
  Sc  Sc16  1  0.828999  0.324736  0.626675  1
  Sc  Sc17  1  0.330585  0.175596  0.874591  1
  Sc  Sc18  1  0.829234  0.323370  0.874201  1
  Sc  Sc19  1  0.173165  0.675408  0.124542  1
  Ga  Ga20  1  0.162799  0.461818  0.539669  1
  Ga  Ga21  1  0.838185  0.537408  0.461328  1
  Ga  Ga22  1  0.338484  0.962419  0.461400  1
  Ga  Ga23  1  0.838677  0.537758  0.038660  1
  Si  Si24  1  0.032716  0.114666  0.751072  1
  Si  Si25  1  0.967508  0.885477  0.249344  1
  Si  Si26  1  0.467857  0.613032  0.248590  1
  Si  Si27  1  0.532676  0.386875  0.751041  1
  Si  Si28  1  0.285745  0.870163  0.750991  1
  Si  Si29  1  0.714894  0.129551  0.248795  1
  Si  Si30  1  0.214212  0.370408  0.248881  1
  Si  Si31  1  0.786238  0.630241  0.751299  1
  Si  Si32  1  0.659038  0.035706  0.539229  1
  Si  Si33  1  0.159109  0.464012  0.960897  1
  Si  Si34  1  0.657663  0.035588  0.961351  1
  Si  Si35  1  0.343207  0.964776  0.037833  1
