# generated using pymatgen
data_Tb3Er2In2(HgPd)2
_symmetry_space_group_name_H-M   'P 1'
_cell_length_a   3.62971200
_cell_length_b   8.02544500
_cell_length_c   18.29754800
_cell_angle_alpha   90.00000000
_cell_angle_beta   90.00000000
_cell_angle_gamma   90.00000000
_symmetry_Int_Tables_number   1
_chemical_formula_structural   Tb3Er2In2(HgPd)2
_chemical_formula_sum   'Tb6 Er4 In4 Hg4 Pd4'
_cell_volume   533.00856171
_cell_formula_units_Z   2
loop_
 _symmetry_equiv_pos_site_id
 _symmetry_equiv_pos_as_xyz
  1  'x, y, z'
loop_
 _atom_site_type_symbol
 _atom_site_label
 _atom_site_symmetry_multiplicity
 _atom_site_fract_x
 _atom_site_fract_y
 _atom_site_fract_z
 _atom_site_occupancy
  Tb  Tb0  1  0.000000  0.500000  0.500000  1
  Tb  Tb1  1  0.000000  0.000000  0.000000  1
  Tb  Tb2  1  0.000000  0.742178  0.283774  1
  Tb  Tb3  1  0.000000  0.257822  0.716226  1
  Tb  Tb4  1  0.000000  0.757822  0.783774  1
  Tb  Tb5  1  0.000000  0.242178  0.216226  1
  Er  Er6  1  0.000000  0.608195  0.083607  1
  Er  Er7  1  0.000000  0.391805  0.916393  1
  Er  Er8  1  0.000000  0.891805  0.583607  1
  Er  Er9  1  0.000000  0.108195  0.416393  1
  In  In10  1  0.500000  0.582390  0.649142  1
  In  In11  1  0.500000  0.417610  0.350858  1
  In  In12  1  0.500000  0.917610  0.149142  1
  In  In13  1  0.500000  0.082390  0.850858  1
  Hg  Hg14  1  0.500000  0.711864  0.933542  1
  Hg  Hg15  1  0.500000  0.288136  0.066458  1
  Hg  Hg16  1  0.500000  0.788136  0.433542  1
  Hg  Hg17  1  0.500000  0.211864  0.566458  1
  Pd  Pd18  1  0.500000  0.529898  0.196722  1
  Pd  Pd19  1  0.500000  0.470102  0.803278  1
  Pd  Pd20  1  0.500000  0.970102  0.696722  1
  Pd  Pd21  1  0.500000  0.029898  0.303278  1
