# generated using pymatgen
data_KCoPtSe4
_symmetry_space_group_name_H-M   'P 1'
_cell_length_a   6.41164300
_cell_length_b   7.37784100
_cell_length_c   15.73284000
_cell_angle_alpha   90.00000000
_cell_angle_beta   90.00000000
_cell_angle_gamma   90.00000000
_symmetry_Int_Tables_number   1
_chemical_formula_structural   KCoPtSe4
_chemical_formula_sum   'K4 Co4 Pt4 Se16'
_cell_volume   744.22756294
_cell_formula_units_Z   4
loop_
 _symmetry_equiv_pos_site_id
 _symmetry_equiv_pos_as_xyz
  1  'x, y, z'
loop_
 _atom_site_type_symbol
 _atom_site_label
 _atom_site_symmetry_multiplicity
 _atom_site_fract_x
 _atom_site_fract_y
 _atom_site_fract_z
 _atom_site_occupancy
  K  K0  1  0.357944  0.000000  0.000000  1
  K  K1  1  0.642056  0.500000  0.500000  1
  K  K2  1  0.036426  0.000000  0.500000  1
  K  K3  1  0.963574  0.500000  0.000000  1
  Co  Co4  1  0.500000  0.250000  0.250000  1
  Co  Co5  1  0.500000  0.750000  0.750000  1
  Co  Co6  1  0.500000  0.750000  0.250000  1
  Co  Co7  1  0.500000  0.250000  0.750000  1
  Pt  Pt8  1  0.001220  0.000000  0.250511  1
  Pt  Pt9  1  0.001220  0.000000  0.749489  1
  Pt  Pt10  1  0.998780  0.500000  0.249489  1
  Pt  Pt11  1  0.998780  0.500000  0.750511  1
  Se  Se12  1  0.816571  0.250699  0.330055  1
  Se  Se13  1  0.816571  0.749301  0.669945  1
  Se  Se14  1  0.183429  0.750699  0.169945  1
  Se  Se15  1  0.183429  0.249301  0.830055  1
  Se  Se16  1  0.183429  0.249301  0.169945  1
  Se  Se17  1  0.183429  0.750699  0.830055  1
  Se  Se18  1  0.816571  0.749301  0.330055  1
  Se  Se19  1  0.816571  0.250699  0.669945  1
  Se  Se20  1  0.655447  0.000000  0.171138  1
  Se  Se21  1  0.655447  0.000000  0.828862  1
  Se  Se22  1  0.344553  0.500000  0.328862  1
  Se  Se23  1  0.344553  0.500000  0.671138  1
  Se  Se24  1  0.349623  0.000000  0.329453  1
  Se  Se25  1  0.349623  0.000000  0.670547  1
  Se  Se26  1  0.650377  0.500000  0.170547  1
  Se  Se27  1  0.650377  0.500000  0.829453  1
