# generated using pymatgen
data_HfSc3MnTc7
_symmetry_space_group_name_H-M   'P 1'
_cell_length_a   5.23308500
_cell_length_b   5.23308564
_cell_length_c   8.56024100
_cell_angle_alpha   90.00000000
_cell_angle_beta   90.00000000
_cell_angle_gamma   120.00000228
_symmetry_Int_Tables_number   1
_chemical_formula_structural   HfSc3MnTc7
_chemical_formula_sum   'Hf1 Sc3 Mn1 Tc7'
_cell_volume   203.01692453
_cell_formula_units_Z   1
loop_
 _symmetry_equiv_pos_site_id
 _symmetry_equiv_pos_as_xyz
  1  'x, y, z'
loop_
 _atom_site_type_symbol
 _atom_site_label
 _atom_site_symmetry_multiplicity
 _atom_site_fract_x
 _atom_site_fract_y
 _atom_site_fract_z
 _atom_site_occupancy
  Hf  Hf0  1  0.333333  0.666667  0.436094  1
  Sc  Sc1  1  0.666667  0.333333  0.564339  1
  Sc  Sc2  1  0.666667  0.333333  0.936670  1
  Sc  Sc3  1  0.333333  0.666667  0.061818  1
  Mn  Mn4  1  0.000000  0.000000  0.500174  1
  Tc  Tc5  1  0.000000  0.000000  0.000349  1
  Tc  Tc6  1  0.828949  0.171051  0.254434  1
  Tc  Tc7  1  0.828949  0.657899  0.254434  1
  Tc  Tc8  1  0.342101  0.171051  0.254434  1
  Tc  Tc9  1  0.171020  0.828980  0.745752  1
  Tc  Tc10  1  0.171020  0.342040  0.745752  1
  Tc  Tc11  1  0.657960  0.828980  0.745752  1
