# generated using pymatgen
data_Ho7Sn23PdRu5
_symmetry_space_group_name_H-M   'P 1'
_cell_length_a   9.84649991
_cell_length_b   9.84649871
_cell_length_c   10.07917700
_cell_angle_alpha   89.97536278
_cell_angle_beta   90.02463722
_cell_angle_gamma   120.02550901
_symmetry_Int_Tables_number   1
_chemical_formula_structural   Ho7Sn23PdRu5
_chemical_formula_sum   'Ho7 Sn23 Pd1 Ru5'
_cell_volume   846.07267387
_cell_formula_units_Z   1
loop_
 _symmetry_equiv_pos_site_id
 _symmetry_equiv_pos_as_xyz
  1  'x, y, z'
loop_
 _atom_site_type_symbol
 _atom_site_label
 _atom_site_symmetry_multiplicity
 _atom_site_fract_x
 _atom_site_fract_y
 _atom_site_fract_z
 _atom_site_occupancy
  Ho  Ho0  1  0.005338  0.994662  0.994009  1
  Ho  Ho1  1  0.516121  0.483879  0.696085  1
  Ho  Ho2  1  0.514851  0.031599  0.695587  1
  Ho  Ho3  1  0.968401  0.485149  0.695587  1
  Ho  Ho4  1  0.034948  0.520553  0.306849  1
  Ho  Ho5  1  0.479447  0.965052  0.306849  1
  Ho  Ho6  1  0.482771  0.517229  0.304729  1
  Sn  Sn7  1  0.662855  0.337145  0.180950  1
  Sn  Sn8  1  0.666930  0.333070  0.873829  1
  Sn  Sn9  1  0.333344  0.666656  0.126679  1
  Sn  Sn10  1  0.349760  0.349076  0.999551  1
  Sn  Sn11  1  0.999311  0.649534  0.000007  1
  Sn  Sn12  1  0.646325  0.994408  0.998341  1
  Sn  Sn13  1  0.650924  0.650240  0.999551  1
  Sn  Sn14  1  0.333413  0.666587  0.819587  1
  Sn  Sn15  1  0.440124  0.220833  0.460892  1
  Sn  Sn16  1  0.219918  0.780082  0.540406  1
  Sn  Sn17  1  0.219983  0.440643  0.539730  1
  Sn  Sn18  1  0.559357  0.780017  0.539730  1
  Sn  Sn19  1  0.118947  0.881053  0.273197  1
  Sn  Sn20  1  0.779167  0.559876  0.460892  1
  Sn  Sn21  1  0.777633  0.222367  0.463934  1
  Sn  Sn22  1  0.350466  0.000689  0.000007  1
  Sn  Sn23  1  0.120716  0.237284  0.276560  1
  Sn  Sn24  1  0.762716  0.879284  0.276560  1
  Sn  Sn25  1  0.236599  0.117809  0.724429  1
  Sn  Sn26  1  0.882191  0.763401  0.724429  1
  Sn  Sn27  1  0.882189  0.117811  0.726390  1
  Sn  Sn28  1  0.999773  0.000227  0.498277  1
  Sn  Sn29  1  0.005592  0.353675  0.998341  1
  Pd  Pd30  1  0.828382  0.171618  0.200434  1
  Ru  Ru31  1  0.169141  0.830859  0.800356  1
  Ru  Ru32  1  0.170438  0.338547  0.797911  1
  Ru  Ru33  1  0.661453  0.829562  0.797911  1
  Ru  Ru34  1  0.339686  0.169212  0.200709  1
  Ru  Ru35  1  0.830788  0.660314  0.200709  1
