# generated using pymatgen
data_Yb2Si7(MoPt3)3
_symmetry_space_group_name_H-M   'P 1'
_cell_length_a   9.80727900
_cell_length_b   9.80727946
_cell_length_c   3.99930500
_cell_angle_alpha   90.00000000
_cell_angle_beta   90.00000000
_cell_angle_gamma   120.00000182
_symmetry_Int_Tables_number   1
_chemical_formula_structural   Yb2Si7(MoPt3)3
_chemical_formula_sum   'Yb2 Si7 Mo3 Pt9'
_cell_volume   333.12883887
_cell_formula_units_Z   1
loop_
 _symmetry_equiv_pos_site_id
 _symmetry_equiv_pos_as_xyz
  1  'x, y, z'
loop_
 _atom_site_type_symbol
 _atom_site_label
 _atom_site_symmetry_multiplicity
 _atom_site_fract_x
 _atom_site_fract_y
 _atom_site_fract_z
 _atom_site_occupancy
  Yb  Yb0  1  0.000000  0.000000  0.000000  1
  Yb  Yb1  1  0.333333  0.666667  0.500000  1
  Si  Si2  1  0.262117  0.216783  0.500000  1
  Si  Si3  1  0.783217  0.045335  0.500000  1
  Si  Si4  1  0.954665  0.737883  0.500000  1
  Si  Si5  1  0.549610  0.628015  0.000000  1
  Si  Si6  1  0.371985  0.921594  0.000000  1
  Si  Si7  1  0.078406  0.450390  0.000000  1
  Si  Si8  1  0.666667  0.333333  0.000000  1
  Mo  Mo9  1  0.880587  0.455853  0.500000  1
  Mo  Mo10  1  0.575265  0.119413  0.500000  1
  Mo  Mo11  1  0.544147  0.424735  0.500000  1
  Pt  Pt12  1  0.226320  0.943381  0.500000  1
  Pt  Pt13  1  0.056619  0.282940  0.500000  1
  Pt  Pt14  1  0.717060  0.773680  0.500000  1
  Pt  Pt15  1  0.298608  0.403041  0.000000  1
  Pt  Pt16  1  0.596959  0.895567  0.000000  1
  Pt  Pt17  1  0.104433  0.701392  0.000000  1
  Pt  Pt18  1  0.387905  0.173440  0.000000  1
  Pt  Pt19  1  0.826560  0.214465  0.000000  1
  Pt  Pt20  1  0.785535  0.612095  0.000000  1
