# generated using pymatgen
data_Dy6Al(P3Rh5)4
_symmetry_space_group_name_H-M   'P 1'
_cell_length_a   13.44162600
_cell_length_b   13.44162499
_cell_length_c   3.89325800
_cell_angle_alpha   90.00000000
_cell_angle_beta   90.00000000
_cell_angle_gamma   119.99999755
_symmetry_Int_Tables_number   1
_chemical_formula_structural   Dy6Al(P3Rh5)4
_chemical_formula_sum   'Dy6 Al1 P12 Rh20'
_cell_volume   609.18248675
_cell_formula_units_Z   1
loop_
 _symmetry_equiv_pos_site_id
 _symmetry_equiv_pos_as_xyz
  1  'x, y, z'
loop_
 _atom_site_type_symbol
 _atom_site_label
 _atom_site_symmetry_multiplicity
 _atom_site_fract_x
 _atom_site_fract_y
 _atom_site_fract_z
 _atom_site_occupancy
  Dy  Dy0  1  0.530456  0.717229  0.249185  1
  Dy  Dy1  1  0.282771  0.813226  0.249185  1
  Dy  Dy2  1  0.186774  0.469544  0.249185  1
  Dy  Dy3  1  0.469544  0.282771  0.750815  1
  Dy  Dy4  1  0.717229  0.186774  0.750815  1
  Dy  Dy5  1  0.813226  0.530456  0.750815  1
  Al  Al6  1  0.000000  0.000000  0.000000  1
  P  P7  1  0.526410  0.138510  0.250457  1
  P  P8  1  0.861490  0.387901  0.250457  1
  P  P9  1  0.612099  0.473590  0.250457  1
  P  P10  1  0.947823  0.718419  0.250047  1
  P  P11  1  0.281581  0.229403  0.250047  1
  P  P12  1  0.770597  0.052177  0.250047  1
  P  P13  1  0.387901  0.526410  0.749543  1
  P  P14  1  0.473590  0.861490  0.749543  1
  P  P15  1  0.138510  0.612099  0.749543  1
  P  P16  1  0.718419  0.770597  0.749953  1
  P  P17  1  0.229403  0.947823  0.749953  1
  P  P18  1  0.052177  0.281581  0.749953  1
  Rh  Rh19  1  0.333333  0.666667  0.751854  1
  Rh  Rh20  1  0.919825  0.251455  0.250192  1
  Rh  Rh21  1  0.748545  0.668370  0.250192  1
  Rh  Rh22  1  0.331630  0.080175  0.250192  1
  Rh  Rh23  1  0.440885  0.024849  0.750205  1
  Rh  Rh24  1  0.975151  0.416037  0.750205  1
  Rh  Rh25  1  0.583963  0.559115  0.750205  1
  Rh  Rh26  1  0.666667  0.333333  0.248146  1
  Rh  Rh27  1  0.095411  0.199207  0.250544  1
  Rh  Rh28  1  0.800793  0.896205  0.250544  1
  Rh  Rh29  1  0.103795  0.904589  0.250544  1
  Rh  Rh30  1  0.024849  0.583963  0.249795  1
  Rh  Rh31  1  0.416037  0.440885  0.249795  1
  Rh  Rh32  1  0.559115  0.975151  0.249795  1
  Rh  Rh33  1  0.668370  0.919825  0.749808  1
  Rh  Rh34  1  0.080175  0.748545  0.749808  1
  Rh  Rh35  1  0.251455  0.331630  0.749808  1
  Rh  Rh36  1  0.904589  0.800793  0.749456  1
  Rh  Rh37  1  0.199207  0.103795  0.749456  1
  Rh  Rh38  1  0.896205  0.095411  0.749456  1
