# generated using pymatgen
data_Y15LuMgAg3Rh4
_symmetry_space_group_name_H-M   'P 1'
_cell_length_a   9.60175888
_cell_length_b   9.62861733
_cell_length_c   9.62876551
_cell_angle_alpha   59.89510692
_cell_angle_beta   59.83618554
_cell_angle_gamma   59.83685990
_symmetry_Int_Tables_number   1
_chemical_formula_structural   Y15LuMgAg3Rh4
_chemical_formula_sum   'Y15 Lu1 Mg1 Ag3 Rh4'
_cell_volume   627.40652159
_cell_formula_units_Z   1
loop_
 _symmetry_equiv_pos_site_id
 _symmetry_equiv_pos_as_xyz
  1  'x, y, z'
loop_
 _atom_site_type_symbol
 _atom_site_label
 _atom_site_symmetry_multiplicity
 _atom_site_fract_x
 _atom_site_fract_y
 _atom_site_fract_z
 _atom_site_occupancy
  Y  Y0  1  0.600160  0.599047  0.203071  1
  Y  Y1  1  0.600152  0.203068  0.599059  1
  Y  Y2  1  0.184474  0.605272  0.605265  1
  Y  Y3  1  0.058138  0.439718  0.439722  1
  Y  Y4  1  0.435324  0.063271  0.063265  1
  Y  Y5  1  0.437105  0.061709  0.437168  1
  Y  Y6  1  0.060014  0.437847  0.061382  1
  Y  Y7  1  0.437111  0.437179  0.061694  1
  Y  Y8  1  0.060020  0.061365  0.437855  1
  Y  Y9  1  0.186510  0.812592  0.812599  1
  Y  Y10  1  0.815735  0.185054  0.185058  1
  Y  Y11  1  0.813081  0.187898  0.813853  1
  Y  Y12  1  0.184659  0.813949  0.185848  1
  Y  Y13  1  0.813079  0.813866  0.187884  1
  Y  Y14  1  0.184661  0.185840  0.813959  1
  Lu  Lu15  1  0.600076  0.597227  0.597230  1
  Mg  Mg16  1  0.539998  0.819255  0.819260  1
  Ag  Ag17  1  0.831800  0.835157  0.835162  1
  Ag  Ag18  1  0.832046  0.834481  0.498693  1
  Ag  Ag19  1  0.832047  0.498691  0.834476  1
  Rh  Rh20  1  0.387937  0.394464  0.394467  1
  Rh  Rh21  1  0.392713  0.398966  0.818693  1
  Rh  Rh22  1  0.392711  0.818720  0.398936  1
  Rh  Rh23  1  0.820450  0.395367  0.395402  1
