# generated using pymatgen
data_Ac3NdPd4
_symmetry_space_group_name_H-M   'P 1'
_cell_length_a   4.71935900
_cell_length_b   6.03122896
_cell_length_c   7.72754170
_cell_angle_alpha   89.18482611
_cell_angle_beta   90.00000000
_cell_angle_gamma   90.00000000
_symmetry_Int_Tables_number   1
_chemical_formula_structural   Ac3NdPd4
_chemical_formula_sum   'Ac3 Nd1 Pd4'
_cell_volume   219.93089008
_cell_formula_units_Z   1
loop_
 _symmetry_equiv_pos_site_id
 _symmetry_equiv_pos_as_xyz
  1  'x, y, z'
loop_
 _atom_site_type_symbol
 _atom_site_label
 _atom_site_symmetry_multiplicity
 _atom_site_fract_x
 _atom_site_fract_y
 _atom_site_fract_z
 _atom_site_occupancy
  Ac  Ac0  1  0.250000  0.353964  0.685487  1
  Ac  Ac1  1  0.250000  0.143833  0.178837  1
  Ac  Ac2  1  0.750000  0.645200  0.317246  1
  Nd  Nd3  1  0.750000  0.856029  0.817165  1
  Pd  Pd4  1  0.250000  0.851104  0.555040  1
  Pd  Pd5  1  0.250000  0.655390  0.033758  1
  Pd  Pd6  1  0.750000  0.140924  0.458971  1
  Pd  Pd7  1  0.750000  0.353555  0.953498  1
