# generated using pymatgen
data_CsNb4Tl(PS10)2
_symmetry_space_group_name_H-M   'P 1'
_cell_length_a   7.74380400
_cell_length_b   7.92945460
_cell_length_c   13.06171501
_cell_angle_alpha   87.89849433
_cell_angle_beta   82.45445339
_cell_angle_gamma   85.36456501
_symmetry_Int_Tables_number   1
_chemical_formula_structural   CsNb4Tl(PS10)2
_chemical_formula_sum   'Cs1 Nb4 Tl1 P2 S20'
_cell_volume   792.22202125
_cell_formula_units_Z   1
loop_
 _symmetry_equiv_pos_site_id
 _symmetry_equiv_pos_as_xyz
  1  'x, y, z'
loop_
 _atom_site_type_symbol
 _atom_site_label
 _atom_site_symmetry_multiplicity
 _atom_site_fract_x
 _atom_site_fract_y
 _atom_site_fract_z
 _atom_site_occupancy
  Cs  Cs0  1  0.050418  0.508696  0.480346  1
  Nb  Nb1  1  0.503953  0.063144  0.603169  1
  Nb  Nb2  1  0.503031  0.932421  0.396259  1
  Nb  Nb3  1  0.495449  0.068729  0.893724  1
  Nb  Nb4  1  0.501154  0.936702  0.105742  1
  Tl  Tl5  1  0.001376  0.504265  0.990639  1
  P  P6  1  0.294318  0.371808  0.751720  1
  P  P7  1  0.702915  0.624949  0.241054  1
  S  S8  1  0.622396  0.870775  0.745427  1
  S  S9  1  0.380073  0.130369  0.257318  1
  S  S10  1  0.683830  0.165887  0.021319  1
  S  S11  1  0.311512  0.841810  0.978432  1
  S  S12  1  0.421693  0.395986  0.879560  1
  S  S13  1  0.565193  0.609858  0.116926  1
  S  S14  1  0.699516  0.150198  0.441439  1
  S  S15  1  0.311335  0.842223  0.559279  1
  S  S16  1  0.761748  0.912638  0.496560  1
  S  S17  1  0.243881  0.078093  0.503927  1
  S  S18  1  0.759990  0.930541  0.966646  1
  S  S19  1  0.236034  0.076984  0.033410  1
  S  S20  1  0.077733  0.524386  0.751111  1
  S  S21  1  0.915523  0.465580  0.233188  1
  S  S22  1  0.727384  0.100512  0.730565  1
  S  S23  1  0.274183  0.901018  0.269996  1
  S  S24  1  0.261263  0.110255  0.763599  1
  S  S25  1  0.740339  0.886211  0.233188  1
  S  S26  1  0.454751  0.389039  0.613100  1
  S  S27  1  0.553407  0.606727  0.383759  1
