# generated using pymatgen
data_Sc10Fe2SnBi3
_symmetry_space_group_name_H-M   'P 1'
_cell_length_a   5.69793291
_cell_length_b   8.52677760
_cell_length_c   8.50628351
_cell_angle_alpha   83.57485437
_cell_angle_beta   70.43203389
_cell_angle_gamma   70.48095886
_symmetry_Int_Tables_number   1
_chemical_formula_structural   Sc10Fe2SnBi3
_chemical_formula_sum   'Sc10 Fe2 Sn1 Bi3'
_cell_volume   367.02978582
_cell_formula_units_Z   1
loop_
 _symmetry_equiv_pos_site_id
 _symmetry_equiv_pos_as_xyz
  1  'x, y, z'
loop_
 _atom_site_type_symbol
 _atom_site_label
 _atom_site_symmetry_multiplicity
 _atom_site_fract_x
 _atom_site_fract_y
 _atom_site_fract_z
 _atom_site_occupancy
  Sc  Sc0  1  0.070000  0.116537  0.743463  1
  Sc  Sc1  1  0.928009  0.886921  0.257061  1
  Sc  Sc2  1  0.813527  0.253769  0.119177  1
  Sc  Sc3  1  0.432704  0.253769  0.880823  1
  Sc  Sc4  1  0.183926  0.747545  0.884605  1
  Sc  Sc5  1  0.568530  0.747545  0.115395  1
  Sc  Sc6  1  0.685070  0.886921  0.742939  1
  Sc  Sc7  1  0.313463  0.116537  0.256537  1
  Sc  Sc8  1  0.254663  0.494449  0.500000  1
  Sc  Sc9  1  0.750888  0.494449  0.500000  1
  Fe  Fe10  1  0.249749  0.000502  0.000000  1
  Fe  Fe11  1  0.749749  0.000502  0.000000  1
  Sn  Sn12  1  0.661517  0.176965  0.500000  1
  Bi  Bi13  1  0.162121  0.500765  0.174991  1
  Bi  Bi14  1  0.837114  0.500765  0.825009  1
  Bi  Bi15  1  0.338970  0.822060  0.500000  1
