# generated using pymatgen
data_Nd8Lu12Bi11Sb
_symmetry_space_group_name_H-M   'P 1'
_cell_length_a   8.32613246
_cell_length_b   9.61045400
_cell_length_c   12.12537800
_cell_angle_alpha   90.00000000
_cell_angle_beta   89.96604009
_cell_angle_gamma   90.00000000
_symmetry_Int_Tables_number   1
_chemical_formula_structural   Nd8Lu12Bi11Sb
_chemical_formula_sum   'Nd8 Lu12 Bi11 Sb1'
_cell_volume   970.24727182
_cell_formula_units_Z   1
loop_
 _symmetry_equiv_pos_site_id
 _symmetry_equiv_pos_as_xyz
  1  'x, y, z'
loop_
 _atom_site_type_symbol
 _atom_site_label
 _atom_site_symmetry_multiplicity
 _atom_site_fract_x
 _atom_site_fract_y
 _atom_site_fract_z
 _atom_site_occupancy
  Nd  Nd0  1  0.352970  0.250000  0.285206  1
  Nd  Nd1  1  0.648256  0.750000  0.717327  1
  Nd  Nd2  1  0.147853  0.750000  0.781914  1
  Nd  Nd3  1  0.851706  0.250000  0.217399  1
  Nd  Nd4  1  0.187551  0.250000  0.778263  1
  Nd  Nd5  1  0.813947  0.750000  0.219549  1
  Nd  Nd6  1  0.314377  0.750000  0.280468  1
  Nd  Nd7  1  0.681675  0.250000  0.717126  1
  Lu  Lu8  1  0.026324  0.250000  0.510919  1
  Lu  Lu9  1  0.978246  0.750000  0.489605  1
  Lu  Lu10  1  0.477208  0.750000  0.011062  1
  Lu  Lu11  1  0.523457  0.250000  0.988805  1
  Lu  Lu12  1  0.191447  0.066375  0.057908  1
  Lu  Lu13  1  0.808649  0.934069  0.942354  1
  Lu  Lu14  1  0.310414  0.937991  0.557400  1
  Lu  Lu15  1  0.808649  0.565931  0.942354  1
  Lu  Lu16  1  0.687933  0.068768  0.444231  1
  Lu  Lu17  1  0.191447  0.433625  0.057908  1
  Lu  Lu18  1  0.687933  0.431232  0.444231  1
  Lu  Lu19  1  0.310414  0.562009  0.557400  1
  Bi  Bi20  1  0.598003  0.750000  0.457045  1
  Bi  Bi21  1  0.097397  0.750000  0.042603  1
  Bi  Bi22  1  0.903716  0.250000  0.956259  1
  Bi  Bi23  1  0.064287  0.004186  0.332009  1
  Bi  Bi24  1  0.935139  0.996180  0.668218  1
  Bi  Bi25  1  0.435487  0.995427  0.831864  1
  Bi  Bi26  1  0.935139  0.503820  0.668218  1
  Bi  Bi27  1  0.564441  0.004536  0.168222  1
  Bi  Bi28  1  0.064287  0.495814  0.332009  1
  Bi  Bi29  1  0.564441  0.495464  0.168222  1
  Bi  Bi30  1  0.435487  0.504573  0.831864  1
  Sb  Sb31  1  0.401725  0.250000  0.542036  1
