# generated using pymatgen
data_Ca(Nd2Ir)2
_symmetry_space_group_name_H-M   'P 1'
_cell_length_a   8.90310804
_cell_length_b   8.90310766
_cell_length_c   7.43108863
_cell_angle_alpha   83.38660121
_cell_angle_beta   83.38659851
_cell_angle_gamma   44.10871295
_symmetry_Int_Tables_number   1
_chemical_formula_structural   Ca(Nd2Ir)2
_chemical_formula_sum   'Ca2 Nd8 Ir4'
_cell_volume   406.79868302
_cell_formula_units_Z   2
loop_
 _symmetry_equiv_pos_site_id
 _symmetry_equiv_pos_as_xyz
  1  'x, y, z'
loop_
 _atom_site_type_symbol
 _atom_site_label
 _atom_site_symmetry_multiplicity
 _atom_site_fract_x
 _atom_site_fract_y
 _atom_site_fract_z
 _atom_site_occupancy
  Ca  Ca0  1  0.017483  0.798864  0.917801  1
  Ca  Ca1  1  0.201136  0.982517  0.582199  1
  Nd  Nd2  1  0.982352  0.202316  0.084700  1
  Nd  Nd3  1  0.797684  0.017648  0.415300  1
  Nd  Nd4  1  0.351241  0.212719  0.817711  1
  Nd  Nd5  1  0.787281  0.648759  0.682289  1
  Nd  Nd6  1  0.653056  0.787383  0.182869  1
  Nd  Nd7  1  0.212617  0.346944  0.317131  1
  Nd  Nd8  1  0.563170  0.436830  0.750000  1
  Nd  Nd9  1  0.430430  0.569570  0.250000  1
  Ir  Ir10  1  0.179477  0.589447  0.569825  1
  Ir  Ir11  1  0.410553  0.820523  0.930175  1
  Ir  Ir12  1  0.817322  0.403802  0.423711  1
  Ir  Ir13  1  0.596198  0.182678  0.076289  1
