# generated using pymatgen
data_Lu8TaRe2B24Rh
_symmetry_space_group_name_H-M   'P 1'
_cell_length_a   3.60679800
_cell_length_b   9.11212857
_cell_length_c   11.47742264
_cell_angle_alpha   90.19582607
_cell_angle_beta   90.00000000
_cell_angle_gamma   90.00000000
_symmetry_Int_Tables_number   1
_chemical_formula_structural   Lu8TaRe2B24Rh
_chemical_formula_sum   'Lu8 Ta1 Re2 B24 Rh1'
_cell_volume   377.21025958
_cell_formula_units_Z   1
loop_
 _symmetry_equiv_pos_site_id
 _symmetry_equiv_pos_as_xyz
  1  'x, y, z'
loop_
 _atom_site_type_symbol
 _atom_site_label
 _atom_site_symmetry_multiplicity
 _atom_site_fract_x
 _atom_site_fract_y
 _atom_site_fract_z
 _atom_site_occupancy
  Lu  Lu0  1  0.500000  0.318987  0.417975  1
  Lu  Lu1  1  0.500000  0.679137  0.591082  1
  Lu  Lu2  1  0.500000  0.179457  0.909750  1
  Lu  Lu3  1  0.500000  0.822022  0.079932  1
  Lu  Lu4  1  0.500000  0.447560  0.126922  1
  Lu  Lu5  1  0.500000  0.557619  0.870804  1
  Lu  Lu6  1  0.500000  0.055590  0.629724  1
  Lu  Lu7  1  0.500000  0.940785  0.374425  1
  Ta  Ta8  1  0.500000  0.139442  0.180123  1
  Re  Re9  1  0.500000  0.860190  0.818404  1
  Re  Re10  1  0.500000  0.362201  0.678178  1
  B  B11  1  0.000000  0.099659  0.473471  1
  B  B12  1  0.000000  0.895877  0.528919  1
  B  B13  1  0.000000  0.400033  0.970823  1
  B  B14  1  0.000000  0.604995  0.028732  1
  B  B15  1  0.000000  0.130192  0.320333  1
  B  B16  1  0.000000  0.868322  0.684336  1
  B  B17  1  0.000000  0.370273  0.814833  1
  B  B18  1  0.000000  0.632075  0.183673  1
  B  B19  1  0.000000  0.049493  0.062410  1
  B  B20  1  0.000000  0.946315  0.931573  1
  B  B21  1  0.000000  0.446113  0.565752  1
  B  B22  1  0.000000  0.553314  0.434339  1
  B  B23  1  0.000000  0.482887  0.288144  1
  B  B24  1  0.000000  0.519039  0.712007  1
  B  B25  1  0.000000  0.018510  0.787012  1
  B  B26  1  0.000000  0.973859  0.213363  1
  B  B27  1  0.000000  0.254533  0.076228  1
  B  B28  1  0.000000  0.750944  0.918781  1
  B  B29  1  0.000000  0.248828  0.580456  1
  B  B30  1  0.000000  0.749153  0.421821  1
  B  B31  1  0.000000  0.298799  0.238206  1
  B  B32  1  0.000000  0.706607  0.765023  1
  B  B33  1  0.000000  0.207457  0.734781  1
  B  B34  1  0.000000  0.791208  0.265347  1
  Rh  Rh35  1  0.500000  0.638523  0.322315  1
