# generated using pymatgen
data_Lu9ScZn3Co
_symmetry_space_group_name_H-M   'P 1'
_cell_length_a   9.15048300
_cell_length_b   9.15048298
_cell_length_c   9.17139100
_cell_angle_alpha   90.00000000
_cell_angle_beta   90.00000000
_cell_angle_gamma   119.99999646
_symmetry_Int_Tables_number   1
_chemical_formula_structural   Lu9ScZn3Co
_chemical_formula_sum   'Lu18 Sc2 Zn6 Co2'
_cell_volume   665.04937887
_cell_formula_units_Z   2
loop_
 _symmetry_equiv_pos_site_id
 _symmetry_equiv_pos_as_xyz
  1  'x, y, z'
loop_
 _atom_site_type_symbol
 _atom_site_label
 _atom_site_symmetry_multiplicity
 _atom_site_fract_x
 _atom_site_fract_y
 _atom_site_fract_z
 _atom_site_occupancy
  Lu  Lu0  1  0.542348  0.457652  0.250000  1
  Lu  Lu1  1  0.542348  0.084695  0.250000  1
  Lu  Lu2  1  0.915305  0.457652  0.250000  1
  Lu  Lu3  1  0.457652  0.542348  0.750000  1
  Lu  Lu4  1  0.457652  0.915305  0.750000  1
  Lu  Lu5  1  0.084695  0.542348  0.750000  1
  Lu  Lu6  1  0.208135  0.791865  0.438716  1
  Lu  Lu7  1  0.208135  0.416270  0.438716  1
  Lu  Lu8  1  0.583730  0.791865  0.438716  1
  Lu  Lu9  1  0.791865  0.208135  0.561284  1
  Lu  Lu10  1  0.791865  0.583730  0.561284  1
  Lu  Lu11  1  0.416270  0.208135  0.561284  1
  Lu  Lu12  1  0.791865  0.208135  0.938716  1
  Lu  Lu13  1  0.791865  0.583730  0.938716  1
  Lu  Lu14  1  0.416270  0.208135  0.938716  1
  Lu  Lu15  1  0.208135  0.791865  0.061284  1
  Lu  Lu16  1  0.208135  0.416270  0.061284  1
  Lu  Lu17  1  0.583730  0.791865  0.061284  1
  Sc  Sc18  1  0.000000  0.000000  0.500000  1
  Sc  Sc19  1  0.000000  0.000000  0.000000  1
  Zn  Zn20  1  0.888766  0.111234  0.250000  1
  Zn  Zn21  1  0.888766  0.777533  0.250000  1
  Zn  Zn22  1  0.222467  0.111234  0.250000  1
  Zn  Zn23  1  0.111234  0.888766  0.750000  1
  Zn  Zn24  1  0.111234  0.222467  0.750000  1
  Zn  Zn25  1  0.777533  0.888766  0.750000  1
  Co  Co26  1  0.333333  0.666667  0.250000  1
  Co  Co27  1  0.666667  0.333333  0.750000  1
