# generated using pymatgen
data_Ti3Si2B4Mo7
_symmetry_space_group_name_H-M   'P 1'
_cell_length_a   7.02167753
_cell_length_b   7.00901830
_cell_length_c   7.01664354
_cell_angle_alpha   128.95170624
_cell_angle_beta   129.00103339
_cell_angle_gamma   75.03482233
_symmetry_Int_Tables_number   1
_chemical_formula_structural   Ti3Si2B4Mo7
_chemical_formula_sum   'Ti3 Si2 B4 Mo7'
_cell_volume   203.23421002
_cell_formula_units_Z   1
loop_
 _symmetry_equiv_pos_site_id
 _symmetry_equiv_pos_as_xyz
  1  'x, y, z'
loop_
 _atom_site_type_symbol
 _atom_site_label
 _atom_site_symmetry_multiplicity
 _atom_site_fract_x
 _atom_site_fract_y
 _atom_site_fract_z
 _atom_site_occupancy
  Ti  Ti0  1  0.000230  0.998913  0.999789  1
  Ti  Ti1  1  0.805534  0.978994  0.500000  1
  Ti  Ti2  1  0.500441  0.499125  0.000211  1
  Si  Si3  1  0.749009  0.748539  0.998988  1
  Si  Si4  1  0.250021  0.249551  0.001012  1
  B  B5  1  0.382855  0.882518  0.264058  1
  B  B6  1  0.880672  0.618077  0.500000  1
  B  B7  1  0.618797  0.118461  0.735942  1
  B  B8  1  0.117970  0.379769  0.500000  1
  Mo  Mo9  1  0.304826  0.803904  0.832218  1
  Mo  Mo10  1  0.196164  0.026899  0.500000  1
  Mo  Mo11  1  0.529406  0.696254  0.500000  1
  Mo  Mo12  1  0.027350  0.527558  0.833437  1
  Mo  Mo13  1  0.693913  0.194120  0.166563  1
  Mo  Mo14  1  0.972609  0.471686  0.167782  1
  Mo  Mo15  1  0.470202  0.305631  0.500000  1
