# generated using pymatgen
data_Y11Ho9(Bi2Rh)4
_symmetry_space_group_name_H-M   'P 1'
_cell_length_a   8.03471100
_cell_length_b   8.97241100
_cell_length_c   12.54209601
_cell_angle_alpha   89.99964304
_cell_angle_beta   89.99677579
_cell_angle_gamma   90.00035707
_symmetry_Int_Tables_number   1
_chemical_formula_structural   Y11Ho9(Bi2Rh)4
_chemical_formula_sum   'Y11 Ho9 Bi8 Rh4'
_cell_volume   904.16884759
_cell_formula_units_Z   1
loop_
 _symmetry_equiv_pos_site_id
 _symmetry_equiv_pos_as_xyz
  1  'x, y, z'
loop_
 _atom_site_type_symbol
 _atom_site_label
 _atom_site_symmetry_multiplicity
 _atom_site_fract_x
 _atom_site_fract_y
 _atom_site_fract_z
 _atom_site_occupancy
  Y  Y0  1  0.839894  0.750009  0.793558  1
  Y  Y1  1  0.159869  0.249992  0.206683  1
  Y  Y2  1  0.340258  0.249995  0.706610  1
  Y  Y3  1  0.659780  0.750009  0.293125  1
  Y  Y4  1  0.373961  0.750002  0.691415  1
  Y  Y5  1  0.625873  0.249993  0.308715  1
  Y  Y6  1  0.873979  0.249998  0.808540  1
  Y  Y7  1  0.126101  0.749996  0.191278  1
  Y  Y8  1  0.953638  0.750002  0.501662  1
  Y  Y9  1  0.046480  0.249992  0.498355  1
  Y  Y10  1  0.453612  0.249994  0.998353  1
  Ho  Ho11  1  0.547518  0.750004  0.001521  1
  Ho  Ho12  1  0.676067  0.042106  0.566230  1
  Ho  Ho13  1  0.323909  0.957995  0.433742  1
  Ho  Ho14  1  0.176558  0.957659  0.933882  1
  Ho  Ho15  1  0.323896  0.542004  0.433741  1
  Ho  Ho16  1  0.823594  0.041818  0.066150  1
  Ho  Ho17  1  0.676070  0.457890  0.566226  1
  Ho  Ho18  1  0.823590  0.458174  0.066152  1
  Ho  Ho19  1  0.176555  0.542344  0.933883  1
  Bi  Bi20  1  0.566929  0.492323  0.826358  1
  Bi  Bi21  1  0.433211  0.508137  0.173667  1
  Bi  Bi22  1  0.066980  0.507972  0.673935  1
  Bi  Bi23  1  0.433213  0.991864  0.173670  1
  Bi  Bi24  1  0.933055  0.492068  0.326049  1
  Bi  Bi25  1  0.566937  0.007683  0.826359  1
  Bi  Bi26  1  0.933051  0.007932  0.326049  1
  Bi  Bi27  1  0.066979  0.992029  0.673932  1
  Rh  Rh28  1  0.571348  0.750003  0.508981  1
  Rh  Rh29  1  0.428716  0.250009  0.491032  1
  Rh  Rh30  1  0.071308  0.250006  0.990938  1
  Rh  Rh31  1  0.927070  0.749997  0.009207  1
