# generated using pymatgen
data_Zr6Zn16Pt7Se
_symmetry_space_group_name_H-M   'P 1'
_cell_length_a   8.82968877
_cell_length_b   8.82968813
_cell_length_c   8.82968800
_cell_angle_alpha   60.00000049
_cell_angle_beta   60.00000287
_cell_angle_gamma   59.99999737
_symmetry_Int_Tables_number   1
_chemical_formula_structural   Zr6Zn16Pt7Se
_chemical_formula_sum   'Zr6 Zn16 Pt7 Se1'
_cell_volume   486.76699379
_cell_formula_units_Z   1
loop_
 _symmetry_equiv_pos_site_id
 _symmetry_equiv_pos_as_xyz
  1  'x, y, z'
loop_
 _atom_site_type_symbol
 _atom_site_label
 _atom_site_symmetry_multiplicity
 _atom_site_fract_x
 _atom_site_fract_y
 _atom_site_fract_z
 _atom_site_occupancy
  Zr  Zr0  1  0.714314  0.285686  0.285686  1
  Zr  Zr1  1  0.285686  0.714314  0.714314  1
  Zr  Zr2  1  0.285686  0.714314  0.285686  1
  Zr  Zr3  1  0.714314  0.285686  0.714314  1
  Zr  Zr4  1  0.285686  0.285686  0.714314  1
  Zr  Zr5  1  0.714314  0.714314  0.285686  1
  Zn  Zn6  1  0.122371  0.122371  0.122371  1
  Zn  Zn7  1  0.877629  0.877629  0.877629  1
  Zn  Zn8  1  0.122371  0.122371  0.632888  1
  Zn  Zn9  1  0.122371  0.632888  0.122371  1
  Zn  Zn10  1  0.877629  0.877629  0.367112  1
  Zn  Zn11  1  0.877629  0.367112  0.877629  1
  Zn  Zn12  1  0.632888  0.122371  0.122371  1
  Zn  Zn13  1  0.367112  0.877629  0.877629  1
  Zn  Zn14  1  0.337907  0.337907  0.337907  1
  Zn  Zn15  1  0.662093  0.662093  0.662093  1
  Zn  Zn16  1  0.337907  0.337907  0.986278  1
  Zn  Zn17  1  0.337907  0.986278  0.337907  1
  Zn  Zn18  1  0.662093  0.662093  0.013722  1
  Zn  Zn19  1  0.662093  0.013722  0.662093  1
  Zn  Zn20  1  0.986278  0.337907  0.337907  1
  Zn  Zn21  1  0.013722  0.662093  0.662093  1
  Pt  Pt22  1  0.500000  0.000000  0.000000  1
  Pt  Pt23  1  0.000000  0.500000  0.500000  1
  Pt  Pt24  1  0.000000  0.500000  0.000000  1
  Pt  Pt25  1  0.500000  0.000000  0.500000  1
  Pt  Pt26  1  0.000000  0.000000  0.500000  1
  Pt  Pt27  1  0.500000  0.500000  0.000000  1
  Pt  Pt28  1  0.000000  0.000000  0.000000  1
  Se  Se29  1  0.500000  0.500000  0.500000  1
