# generated using pymatgen
data_InSiAgTe4
_symmetry_space_group_name_H-M   'P 1'
_cell_length_a   7.45076064
_cell_length_b   7.45076104
_cell_length_c   7.45076059
_cell_angle_alpha   130.74763321
_cell_angle_beta   130.74763053
_cell_angle_gamma   72.21435187
_symmetry_Int_Tables_number   1
_chemical_formula_structural   InSiAgTe4
_chemical_formula_sum   'In1 Si1 Ag1 Te4'
_cell_volume   232.09582204
_cell_formula_units_Z   1
loop_
 _symmetry_equiv_pos_site_id
 _symmetry_equiv_pos_as_xyz
  1  'x, y, z'
loop_
 _atom_site_type_symbol
 _atom_site_label
 _atom_site_symmetry_multiplicity
 _atom_site_fract_x
 _atom_site_fract_y
 _atom_site_fract_z
 _atom_site_occupancy
  In  In0  1  0.500000  0.500000  0.000000  1
  Si  Si1  1  0.750000  0.250000  0.500000  1
  Ag  Ag2  1  0.250000  0.750000  0.500000  1
  Te  Te3  1  0.079661  0.119050  0.441139  1
  Te  Te4  1  0.677910  0.638521  0.558861  1
  Te  Te5  1  0.361479  0.920339  0.039388  1
  Te  Te6  1  0.880950  0.322090  0.960612  1
