# generated using pymatgen
data_TmGa2(Fe4Tc)2
_symmetry_space_group_name_H-M   'P 1'
_cell_length_a   4.75859194
_cell_length_b   6.49768140
_cell_length_c   6.49768222
_cell_angle_alpha   96.77985411
_cell_angle_beta   111.47998931
_cell_angle_gamma   68.52001170
_symmetry_Int_Tables_number   1
_chemical_formula_structural   TmGa2(Fe4Tc)2
_chemical_formula_sum   'Tm1 Ga2 Fe8 Tc2'
_cell_volume   173.93867386
_cell_formula_units_Z   1
loop_
 _symmetry_equiv_pos_site_id
 _symmetry_equiv_pos_as_xyz
  1  'x, y, z'
loop_
 _atom_site_type_symbol
 _atom_site_label
 _atom_site_symmetry_multiplicity
 _atom_site_fract_x
 _atom_site_fract_y
 _atom_site_fract_z
 _atom_site_occupancy
  Tm  Tm0  1  0.000000  0.000000  0.000000  1
  Ga  Ga1  1  0.708712  0.791288  0.208712  1
  Ga  Ga2  1  0.291288  0.208712  0.791288  1
  Fe  Fe3  1  0.500000  0.772272  0.772272  1
  Fe  Fe4  1  0.500000  0.227728  0.227728  1
  Fe  Fe5  1  0.500000  0.000000  0.500000  1
  Fe  Fe6  1  0.000000  0.000000  0.500000  1
  Fe  Fe7  1  0.500000  0.500000  0.000000  1
  Fe  Fe8  1  0.000000  0.500000  0.000000  1
  Fe  Fe9  1  0.639262  0.360738  0.639262  1
  Fe  Fe10  1  0.360738  0.639262  0.360738  1
  Tc  Tc11  1  0.000000  0.360273  0.360273  1
  Tc  Tc12  1  0.000000  0.639727  0.639727  1
