# generated using pymatgen
data_Tb10ZnGa3Bi2
_symmetry_space_group_name_H-M   'P 1'
_cell_length_a   8.65777371
_cell_length_b   8.65777376
_cell_length_c   8.73501153
_cell_angle_alpha   123.43850675
_cell_angle_beta   123.43850801
_cell_angle_gamma   83.57425514
_symmetry_Int_Tables_number   1
_chemical_formula_structural   Tb10ZnGa3Bi2
_chemical_formula_sum   'Tb10 Zn1 Ga3 Bi2'
_cell_volume   438.31465902
_cell_formula_units_Z   1
loop_
 _symmetry_equiv_pos_site_id
 _symmetry_equiv_pos_as_xyz
  1  'x, y, z'
loop_
 _atom_site_type_symbol
 _atom_site_label
 _atom_site_symmetry_multiplicity
 _atom_site_fract_x
 _atom_site_fract_y
 _atom_site_fract_z
 _atom_site_occupancy
  Tb  Tb0  1  0.998443  0.999146  0.997590  1
  Tb  Tb1  1  0.500854  0.501557  0.002410  1
  Tb  Tb2  1  0.795644  0.295498  0.802944  1
  Tb  Tb3  1  0.204502  0.704356  0.197056  1
  Tb  Tb4  1  0.492699  0.992553  0.197056  1
  Tb  Tb5  1  0.291579  0.484550  0.500000  1
  Tb  Tb6  1  0.015450  0.208421  0.500000  1
  Tb  Tb7  1  0.507447  0.007301  0.802944  1
  Tb  Tb8  1  0.706475  0.513362  0.500000  1
  Tb  Tb9  1  0.986638  0.793525  0.500000  1
  Zn  Zn10  1  0.357331  0.142669  0.500000  1
  Ga  Ga11  1  0.151798  0.651972  0.803771  1
  Ga  Ga12  1  0.848028  0.348202  0.196229  1
  Ga  Ga13  1  0.644291  0.855709  0.500000  1
  Bi  Bi14  1  0.249410  0.250590  0.000000  1
  Bi  Bi15  1  0.749410  0.750590  0.000000  1
