# generated using pymatgen
data_Zr6Si5GeRu6
_symmetry_space_group_name_H-M   'P 1'
_cell_length_a   7.68554686
_cell_length_b   7.68518679
_cell_length_c   7.68174172
_cell_angle_alpha   127.86220773
_cell_angle_beta   122.13220342
_cell_angle_gamma   81.62777533
_symmetry_Int_Tables_number   1
_chemical_formula_structural   Zr6Si5GeRu6
_chemical_formula_sum   'Zr6 Si5 Ge1 Ru6'
_cell_volume   292.03048636
_cell_formula_units_Z   1
loop_
 _symmetry_equiv_pos_site_id
 _symmetry_equiv_pos_as_xyz
  1  'x, y, z'
loop_
 _atom_site_type_symbol
 _atom_site_label
 _atom_site_symmetry_multiplicity
 _atom_site_fract_x
 _atom_site_fract_y
 _atom_site_fract_z
 _atom_site_occupancy
  Zr  Zr0  1  0.529770  0.510501  0.475275  1
  Zr  Zr1  1  0.054538  0.509081  0.957006  1
  Zr  Zr2  1  0.249282  0.086409  0.332896  1
  Zr  Zr3  1  0.747897  0.081730  0.837320  1
  Zr  Zr4  1  0.949656  0.900573  0.453153  1
  Zr  Zr5  1  0.466421  0.942303  0.971807  1
  Si  Si6  1  0.327255  0.839156  0.499847  1
  Si  Si7  1  0.728546  0.472815  0.245446  1
  Si  Si8  1  0.836774  0.836485  0.009847  1
  Si  Si9  1  0.272174  0.517599  0.746178  1
  Si  Si10  1  0.161951  0.172698  0.999647  1
  Ge  Ge11  1  0.672337  0.173051  0.510334  1
  Ru  Ru12  1  0.645755  0.508723  0.909922  1
  Ru  Ru13  1  0.999706  0.747260  0.746267  1
  Ru  Ru14  1  0.904002  0.257717  0.401217  1
  Ru  Ru15  1  0.101212  0.504597  0.358675  1
  Ru  Ru16  1  0.498460  0.742269  0.247291  1
  Ru  Ru17  1  0.354263  0.257032  0.857872  1
