# generated using pymatgen
data_Ho4Ni2B16PtRh
_symmetry_space_group_name_H-M   'P 1'
_cell_length_a   6.90660906
_cell_length_b   6.90660846
_cell_length_c   6.90660821
_cell_angle_alpha   111.29953377
_cell_angle_beta   113.39339434
_cell_angle_gamma   103.86967496
_symmetry_Int_Tables_number   1
_chemical_formula_structural   Ho4Ni2B16PtRh
_chemical_formula_sum   'Ho4 Ni2 B16 Pt1 Rh1'
_cell_volume   251.72601657
_cell_formula_units_Z   1
loop_
 _symmetry_equiv_pos_site_id
 _symmetry_equiv_pos_as_xyz
  1  'x, y, z'
loop_
 _atom_site_type_symbol
 _atom_site_label
 _atom_site_symmetry_multiplicity
 _atom_site_fract_x
 _atom_site_fract_y
 _atom_site_fract_z
 _atom_site_occupancy
  Ho  Ho0  1  0.791519  0.793992  0.997527  1
  Ho  Ho1  1  0.203536  0.206008  0.997527  1
  Ho  Ho2  1  0.751768  0.249596  0.502171  1
  Ho  Ho3  1  0.252575  0.750404  0.502171  1
  Ni  Ni4  1  0.499344  0.743687  0.243032  1
  Ni  Ni5  1  0.499344  0.256313  0.755657  1
  B  B6  1  0.273313  0.108454  0.381766  1
  B  B7  1  0.727023  0.892287  0.619310  1
  B  B8  1  0.273313  0.891546  0.164859  1
  B  B9  1  0.727023  0.107713  0.834736  1
  B  B10  1  0.110909  0.731545  0.842454  1
  B  B11  1  0.890329  0.265829  0.156158  1
  B  B12  1  0.110909  0.268455  0.379364  1
  B  B13  1  0.890329  0.734171  0.624500  1
  B  B14  1  0.113602  0.108657  0.527591  1
  B  B15  1  0.580668  0.588067  0.474449  1
  B  B16  1  0.113602  0.586011  0.004946  1
  B  B17  1  0.580668  0.106218  0.992601  1
  B  B18  1  0.886383  0.893782  0.474449  1
  B  B19  1  0.418934  0.413989  0.527591  1
  B  B20  1  0.886383  0.411933  0.992601  1
  B  B21  1  0.418934  0.891343  0.004946  1
  Pt  Pt22  1  0.724743  0.500000  0.224743  1
  Rh  Rh23  1  0.274849  0.500000  0.774849  1
