# generated using pymatgen
data_Hf4Fe5(NiP2)3
_symmetry_space_group_name_H-M   'P 1'
_cell_length_a   12.10167527
_cell_length_b   12.01497001
_cell_length_c   3.65082500
_cell_angle_alpha   90.00000000
_cell_angle_beta   90.00000000
_cell_angle_gamma   119.82032756
_symmetry_Int_Tables_number   1
_chemical_formula_structural   Hf4Fe5(NiP2)3
_chemical_formula_sum   'Hf8 Fe10 Ni6 P12'
_cell_volume   460.54628102
_cell_formula_units_Z   2
loop_
 _symmetry_equiv_pos_site_id
 _symmetry_equiv_pos_as_xyz
  1  'x, y, z'
loop_
 _atom_site_type_symbol
 _atom_site_label
 _atom_site_symmetry_multiplicity
 _atom_site_fract_x
 _atom_site_fract_y
 _atom_site_fract_z
 _atom_site_occupancy
  Hf  Hf0  1  0.823925  0.822857  0.500000  1
  Hf  Hf1  1  0.444375  0.444717  0.000000  1
  Hf  Hf2  1  0.001485  0.179526  0.500000  1
  Hf  Hf3  1  0.556095  0.001600  0.000000  1
  Hf  Hf4  1  0.331959  0.671831  0.000000  1
  Hf  Hf5  1  0.669609  0.336678  0.000000  1
  Hf  Hf6  1  0.000230  0.558515  0.000000  1
  Hf  Hf7  1  0.178242  0.997744  0.500000  1
  Fe  Fe8  1  0.624822  0.820017  0.000000  1
  Fe  Fe9  1  0.374067  0.191452  0.000000  1
  Fe  Fe10  1  0.996926  0.721457  0.500000  1
  Fe  Fe11  1  0.276866  0.278807  0.500000  1
  Fe  Fe12  1  0.873328  0.353469  0.500000  1
  Fe  Fe13  1  0.724561  0.003192  0.500000  1
  Fe  Fe14  1  0.815485  0.622854  0.000000  1
  Fe  Fe15  1  0.177261  0.804349  0.000000  1
  Fe  Fe16  1  0.355119  0.878919  0.500000  1
  Fe  Fe17  1  0.127942  0.480877  0.500000  1
  Ni  Ni18  1  0.641462  0.514643  0.500000  1
  Ni  Ni19  1  0.999571  0.999164  0.000000  1
  Ni  Ni20  1  0.516138  0.645142  0.500000  1
  Ni  Ni21  1  0.489405  0.131605  0.500000  1
  Ni  Ni22  1  0.190935  0.367896  0.000000  1
  Ni  Ni23  1  0.811620  0.178863  0.000000  1
  P  P24  1  0.001342  0.351115  0.000000  1
  P  P25  1  0.829505  0.519320  0.500000  1
  P  P26  1  0.692840  0.174061  0.500000  1
  P  P27  1  0.180006  0.171956  0.000000  1
  P  P28  1  0.657471  0.658173  0.000000  1
  P  P29  1  0.819947  0.992988  0.000000  1
  P  P30  1  0.518455  0.831500  0.500000  1
  P  P31  1  0.172263  0.692504  0.500000  1
  P  P32  1  0.341793  0.994146  0.000000  1
  P  P33  1  0.476757  0.305507  0.500000  1
  P  P34  1  0.998674  0.818689  0.000000  1
  P  P35  1  0.309519  0.483868  0.500000  1
