# generated using pymatgen
data_Cu3Ni(RhSe2)8
_symmetry_space_group_name_H-M   'P 1'
_cell_length_a   12.68544215
_cell_length_b   12.68544261
_cell_length_c   12.68544303
_cell_angle_alpha   33.52703534
_cell_angle_beta   33.52703182
_cell_angle_gamma   33.52703613
_symmetry_Int_Tables_number   1
_chemical_formula_structural   Cu3Ni(RhSe2)8
_chemical_formula_sum   'Cu3 Ni1 Rh8 Se16'
_cell_volume   554.67176717
_cell_formula_units_Z   1
loop_
 _symmetry_equiv_pos_site_id
 _symmetry_equiv_pos_as_xyz
  1  'x, y, z'
loop_
 _atom_site_type_symbol
 _atom_site_label
 _atom_site_symmetry_multiplicity
 _atom_site_fract_x
 _atom_site_fract_y
 _atom_site_fract_z
 _atom_site_occupancy
  Cu  Cu0  1  0.437273  0.437273  0.437273  1
  Cu  Cu1  1  0.562445  0.562445  0.562445  1
  Cu  Cu2  1  0.062427  0.062427  0.062427  1
  Ni  Ni3  1  0.937529  0.937529  0.937529  1
  Rh  Rh4  1  0.250556  0.250556  0.250556  1
  Rh  Rh5  1  0.749870  0.749870  0.749870  1
  Rh  Rh6  1  0.000456  0.000456  0.501654  1
  Rh  Rh7  1  0.499379  0.499379  0.998341  1
  Rh  Rh8  1  0.000456  0.501654  0.000456  1
  Rh  Rh9  1  0.499379  0.998341  0.499379  1
  Rh  Rh10  1  0.998341  0.499379  0.499379  1
  Rh  Rh11  1  0.501654  0.000456  0.000456  1
  Se  Se12  1  0.872510  0.872510  0.872510  1
  Se  Se13  1  0.369767  0.369767  0.369767  1
  Se  Se14  1  0.133111  0.133111  0.611443  1
  Se  Se15  1  0.639532  0.639532  0.101214  1
  Se  Se16  1  0.133111  0.611443  0.133111  1
  Se  Se17  1  0.639532  0.101214  0.639532  1
  Se  Se18  1  0.611443  0.133111  0.133111  1
  Se  Se19  1  0.101214  0.639532  0.639532  1
  Se  Se20  1  0.629028  0.629028  0.629028  1
  Se  Se21  1  0.130045  0.130045  0.130045  1
  Se  Se22  1  0.361573  0.361573  0.898377  1
  Se  Se23  1  0.860554  0.860554  0.398308  1
  Se  Se24  1  0.361573  0.898377  0.361573  1
  Se  Se25  1  0.860554  0.398308  0.860554  1
  Se  Se26  1  0.898377  0.361573  0.361573  1
  Se  Se27  1  0.398308  0.860554  0.860554  1
