# generated using pymatgen
data_Yb3DyNi2(RuO6)2
_symmetry_space_group_name_H-M   'P 1'
_cell_length_a   5.61671512
_cell_length_b   5.30615289
_cell_length_c   9.22639502
_cell_angle_alpha   55.55021621
_cell_angle_beta   89.98783490
_cell_angle_gamma   89.86238180
_symmetry_Int_Tables_number   1
_chemical_formula_structural   Yb3DyNi2(RuO6)2
_chemical_formula_sum   'Yb3 Dy1 Ni2 Ru2 O12'
_cell_volume   226.75015901
_cell_formula_units_Z   1
loop_
 _symmetry_equiv_pos_site_id
 _symmetry_equiv_pos_as_xyz
  1  'x, y, z'
loop_
 _atom_site_type_symbol
 _atom_site_label
 _atom_site_symmetry_multiplicity
 _atom_site_fract_x
 _atom_site_fract_y
 _atom_site_fract_z
 _atom_site_occupancy
  Yb  Yb0  1  0.073196  0.724175  0.753271  1
  Yb  Yb1  1  0.928909  0.274119  0.247138  1
  Yb  Yb2  1  0.570358  0.272353  0.748169  1
  Dy  Dy3  1  0.426209  0.727857  0.252153  1
  Ni  Ni4  1  0.501328  0.500622  0.998353  1
  Ni  Ni5  1  0.995954  0.498026  0.501716  1
  Ru  Ru6  1  0.501763  0.994483  0.503684  1
  Ru  Ru7  1  0.998044  0.005159  0.996612  1
  O  O8  1  0.468273  0.859382  0.744301  1
  O  O9  1  0.533373  0.133237  0.254813  1
  O  O10  1  0.967023  0.137145  0.755854  1
  O  O11  1  0.034087  0.859108  0.245304  1
  O  O12  1  0.792217  0.760350  0.556675  1
  O  O13  1  0.212293  0.247791  0.441176  1
  O  O14  1  0.293369  0.236215  0.946954  1
  O  O15  1  0.702262  0.761404  0.057153  1
  O  O16  1  0.310376  0.649188  0.548358  1
  O  O17  1  0.687303  0.357715  0.446254  1
  O  O18  1  0.810262  0.351655  0.948544  1
  O  O19  1  0.193402  0.650021  0.053519  1
