# generated using pymatgen
data_SrSb3IF24
_symmetry_space_group_name_H-M   'P 1'
_cell_length_a   10.59032757
_cell_length_b   10.59032812
_cell_length_c   9.82899800
_cell_angle_alpha   88.47753159
_cell_angle_beta   88.47753151
_cell_angle_gamma   119.43878601
_symmetry_Int_Tables_number   1
_chemical_formula_structural   SrSb3IF24
_chemical_formula_sum   'Sr2 Sb6 I2 F48'
_cell_volume   958.70124965
_cell_formula_units_Z   2
loop_
 _symmetry_equiv_pos_site_id
 _symmetry_equiv_pos_as_xyz
  1  'x, y, z'
loop_
 _atom_site_type_symbol
 _atom_site_label
 _atom_site_symmetry_multiplicity
 _atom_site_fract_x
 _atom_site_fract_y
 _atom_site_fract_z
 _atom_site_occupancy
  Sr  Sr0  1  0.000000  0.000000  0.500000  1
  Sr  Sr1  1  0.000000  0.000000  0.000000  1
  Sb  Sb2  1  0.357963  0.176926  0.744631  1
  Sb  Sb3  1  0.823074  0.642037  0.755369  1
  Sb  Sb4  1  0.818783  0.181217  0.750000  1
  Sb  Sb5  1  0.176926  0.357963  0.244631  1
  Sb  Sb6  1  0.181217  0.818783  0.250000  1
  Sb  Sb7  1  0.642037  0.823074  0.255369  1
  I  I8  1  0.333258  0.666742  0.750000  1
  I  I9  1  0.666742  0.333258  0.250000  1
  F  F10  1  0.330543  0.309862  0.852446  1
  F  F11  1  0.972843  0.647136  0.862785  1
  F  F12  1  0.676370  0.022389  0.862206  1
  F  F13  1  0.309862  0.330543  0.352446  1
  F  F14  1  0.022389  0.676370  0.362206  1
  F  F15  1  0.647136  0.972843  0.362785  1
  F  F16  1  0.669457  0.690138  0.147554  1
  F  F17  1  0.027157  0.352864  0.137215  1
  F  F18  1  0.323630  0.977611  0.137794  1
  F  F19  1  0.690138  0.669457  0.647554  1
  F  F20  1  0.977611  0.323630  0.637794  1
  F  F21  1  0.352864  0.027157  0.637215  1
  F  F22  1  0.493182  0.326826  0.622204  1
  F  F23  1  0.826597  0.506392  0.636045  1
  F  F24  1  0.680172  0.178362  0.630346  1
  F  F25  1  0.326826  0.493182  0.122204  1
  F  F26  1  0.178362  0.680172  0.130346  1
  F  F27  1  0.506392  0.826597  0.136045  1
  F  F28  1  0.506818  0.673174  0.377796  1
  F  F29  1  0.173403  0.493608  0.363955  1
  F  F30  1  0.319828  0.821638  0.369654  1
  F  F31  1  0.673174  0.506818  0.877796  1
  F  F32  1  0.821638  0.319828  0.869654  1
  F  F33  1  0.493608  0.173403  0.863955  1
  F  F34  1  0.189586  0.523249  0.859387  1
  F  F35  1  0.328811  0.803245  0.856675  1
  F  F36  1  0.469481  0.662170  0.856729  1
  F  F37  1  0.523249  0.189586  0.359387  1
  F  F38  1  0.662170  0.469481  0.356729  1
  F  F39  1  0.803245  0.328811  0.356675  1
  F  F40  1  0.810414  0.476751  0.140613  1
  F  F41  1  0.671189  0.196755  0.143325  1
  F  F42  1  0.530519  0.337830  0.143271  1
  F  F43  1  0.476751  0.810414  0.640613  1
  F  F44  1  0.337830  0.530519  0.643271  1
  F  F45  1  0.196755  0.671189  0.643325  1
  F  F46  1  0.198164  0.164118  0.637141  1
  F  F47  1  0.979380  0.799099  0.641249  1
  F  F48  1  0.829983  0.032912  0.642094  1
  F  F49  1  0.164118  0.198164  0.137141  1
  F  F50  1  0.032912  0.829983  0.142094  1
  F  F51  1  0.799099  0.979380  0.141249  1
  F  F52  1  0.801836  0.835882  0.362859  1
  F  F53  1  0.020620  0.200901  0.358751  1
  F  F54  1  0.170017  0.967088  0.357906  1
  F  F55  1  0.835882  0.801836  0.862859  1
  F  F56  1  0.967088  0.170017  0.857906  1
  F  F57  1  0.200901  0.020620  0.858751  1
