# generated using pymatgen
data_K5EuTaP4
_symmetry_space_group_name_H-M   'P 1'
_cell_length_a   10.21308077
_cell_length_b   10.21308100
_cell_length_c   7.71186451
_cell_angle_alpha   88.33393598
_cell_angle_beta   88.33393473
_cell_angle_gamma   120.67899623
_symmetry_Int_Tables_number   1
_chemical_formula_structural   K5EuTaP4
_chemical_formula_sum   'K10 Eu2 Ta2 P8'
_cell_volume   690.62200253
_cell_formula_units_Z   2
loop_
 _symmetry_equiv_pos_site_id
 _symmetry_equiv_pos_as_xyz
  1  'x, y, z'
loop_
 _atom_site_type_symbol
 _atom_site_label
 _atom_site_symmetry_multiplicity
 _atom_site_fract_x
 _atom_site_fract_y
 _atom_site_fract_z
 _atom_site_occupancy
  K  K0  1  0.464785  0.527413  0.498344  1
  K  K1  1  0.059975  0.528627  0.500392  1
  K  K2  1  0.527413  0.464785  0.998344  1
  K  K3  1  0.528627  0.059975  0.000392  1
  K  K4  1  0.863448  0.142837  0.679446  1
  K  K5  1  0.289116  0.151336  0.714229  1
  K  K6  1  0.855090  0.715267  0.661210  1
  K  K7  1  0.142837  0.863448  0.179446  1
  K  K8  1  0.715267  0.855090  0.161210  1
  K  K9  1  0.151336  0.289116  0.214229  1
  Eu  Eu10  1  0.462305  0.934004  0.493584  1
  Eu  Eu11  1  0.934004  0.462305  0.993584  1
  Ta  Ta12  1  0.670681  0.330309  0.394300  1
  Ta  Ta13  1  0.330309  0.670681  0.894300  1
  P  P14  1  0.691368  0.342054  0.706708  1
  P  P15  1  0.342054  0.691368  0.206708  1
  P  P16  1  0.794103  0.198705  0.282606  1
  P  P17  1  0.405043  0.186092  0.322440  1
  P  P18  1  0.802476  0.584964  0.261031  1
  P  P19  1  0.198705  0.794103  0.782606  1
  P  P20  1  0.584964  0.802476  0.761031  1
  P  P21  1  0.186092  0.405043  0.822440  1
