# generated using pymatgen
data_Pr10Ir5Ru
_symmetry_space_group_name_H-M   'P 1'
_cell_length_a   11.31832400
_cell_length_b   11.31832400
_cell_length_c   6.66589600
_cell_angle_alpha   90.00000000
_cell_angle_beta   90.00000000
_cell_angle_gamma   90.00000000
_symmetry_Int_Tables_number   1
_chemical_formula_structural   Pr10Ir5Ru
_chemical_formula_sum   'Pr20 Ir10 Ru2'
_cell_volume   853.93099529
_cell_formula_units_Z   2
loop_
 _symmetry_equiv_pos_site_id
 _symmetry_equiv_pos_as_xyz
  1  'x, y, z'
loop_
 _atom_site_type_symbol
 _atom_site_label
 _atom_site_symmetry_multiplicity
 _atom_site_fract_x
 _atom_site_fract_y
 _atom_site_fract_z
 _atom_site_occupancy
  Pr  Pr0  1  0.293898  0.087706  0.386376  1
  Pr  Pr1  1  0.293898  0.912294  0.886376  1
  Pr  Pr2  1  0.706102  0.087706  0.886376  1
  Pr  Pr3  1  0.706102  0.912294  0.386376  1
  Pr  Pr4  1  0.587706  0.793898  0.886376  1
  Pr  Pr5  1  0.587706  0.206102  0.386376  1
  Pr  Pr6  1  0.412294  0.793898  0.386376  1
  Pr  Pr7  1  0.412294  0.206102  0.886376  1
  Pr  Pr8  1  0.208770  0.409298  0.617678  1
  Pr  Pr9  1  0.208770  0.590702  0.117678  1
  Pr  Pr10  1  0.791230  0.409298  0.117678  1
  Pr  Pr11  1  0.791230  0.590702  0.617678  1
  Pr  Pr12  1  0.909298  0.708770  0.117678  1
  Pr  Pr13  1  0.909298  0.291230  0.617678  1
  Pr  Pr14  1  0.090702  0.708770  0.617678  1
  Pr  Pr15  1  0.090702  0.291230  0.117678  1
  Pr  Pr16  1  0.000000  0.000000  0.493936  1
  Pr  Pr17  1  0.000000  0.000000  0.993936  1
  Pr  Pr18  1  0.500000  0.500000  0.993936  1
  Pr  Pr19  1  0.500000  0.500000  0.493936  1
  Ir  Ir20  1  0.847926  0.154369  0.248545  1
  Ir  Ir21  1  0.847926  0.845631  0.748545  1
  Ir  Ir22  1  0.152074  0.154369  0.748545  1
  Ir  Ir23  1  0.152074  0.845631  0.248545  1
  Ir  Ir24  1  0.654369  0.347926  0.748545  1
  Ir  Ir25  1  0.654369  0.652074  0.248545  1
  Ir  Ir26  1  0.345631  0.347926  0.248545  1
  Ir  Ir27  1  0.345631  0.652074  0.748545  1
  Ir  Ir28  1  0.000000  0.500000  0.881181  1
  Ir  Ir29  1  0.000000  0.500000  0.381181  1
  Ru  Ru30  1  0.500000  0.000000  0.120556  1
  Ru  Ru31  1  0.500000  0.000000  0.620556  1
