# generated using pymatgen
data_Y3Cd3RhAu2
_symmetry_space_group_name_H-M   'P 1'
_cell_length_a   7.85575500
_cell_length_b   7.85575527
_cell_length_c   3.81912600
_cell_angle_alpha   90.00000000
_cell_angle_beta   90.00000000
_cell_angle_gamma   119.99999464
_symmetry_Int_Tables_number   1
_chemical_formula_structural   Y3Cd3RhAu2
_chemical_formula_sum   'Y3 Cd3 Rh1 Au2'
_cell_volume   204.11293051
_cell_formula_units_Z   1
loop_
 _symmetry_equiv_pos_site_id
 _symmetry_equiv_pos_as_xyz
  1  'x, y, z'
loop_
 _atom_site_type_symbol
 _atom_site_label
 _atom_site_symmetry_multiplicity
 _atom_site_fract_x
 _atom_site_fract_y
 _atom_site_fract_z
 _atom_site_occupancy
  Y  Y0  1  0.584917  0.976885  0.000000  1
  Y  Y1  1  0.023115  0.608032  0.000000  1
  Y  Y2  1  0.391968  0.415083  0.000000  1
  Cd  Cd3  1  0.269213  0.002958  0.500000  1
  Cd  Cd4  1  0.997042  0.266254  0.500000  1
  Cd  Cd5  1  0.733746  0.730787  0.500000  1
  Rh  Rh6  1  0.333333  0.666667  0.500000  1
  Au  Au7  1  0.666667  0.333333  0.500000  1
  Au  Au8  1  0.000000  0.000000  0.000000  1
