# generated using pymatgen
data_NaCeMn3Al20Ru
_symmetry_space_group_name_H-M   'P 1'
_cell_length_a   6.82693073
_cell_length_b   6.82424564
_cell_length_c   9.06574852
_cell_angle_alpha   89.94189406
_cell_angle_beta   90.12877590
_cell_angle_gamma   97.30867720
_symmetry_Int_Tables_number   1
_chemical_formula_structural   NaCeMn3Al20Ru
_chemical_formula_sum   'Na1 Ce1 Mn3 Al20 Ru1'
_cell_volume   418.92823095
_cell_formula_units_Z   1
loop_
 _symmetry_equiv_pos_site_id
 _symmetry_equiv_pos_as_xyz
  1  'x, y, z'
loop_
 _atom_site_type_symbol
 _atom_site_label
 _atom_site_symmetry_multiplicity
 _atom_site_fract_x
 _atom_site_fract_y
 _atom_site_fract_z
 _atom_site_occupancy
  Na  Na0  1  0.875682  0.125747  0.750578  1
  Ce  Ce1  1  0.119406  0.873693  0.247671  1
  Mn  Mn2  1  0.495825  0.999768  0.000632  1
  Mn  Mn3  1  0.001143  0.504921  0.001238  1
  Mn  Mn4  1  0.000689  0.504915  0.499457  1
  Al  Al5  1  0.591823  0.866598  0.246924  1
  Al  Al6  1  0.778141  0.522898  0.249623  1
  Al  Al7  1  0.158468  0.841912  0.900671  1
  Al  Al8  1  0.412762  0.134663  0.753390  1
  Al  Al9  1  0.626877  0.373805  0.960868  1
  Al  Al10  1  0.849366  0.155345  0.405799  1
  Al  Al11  1  0.770153  0.771376  0.996900  1
  Al  Al12  1  0.866899  0.585911  0.750107  1
  Al  Al13  1  0.844879  0.155390  0.095123  1
  Al  Al14  1  0.218136  0.471328  0.750459  1
  Al  Al15  1  0.153287  0.841483  0.599048  1
  Al  Al16  1  0.772473  0.770361  0.499525  1
  Al  Al17  1  0.475032  0.220191  0.247696  1
  Al  Al18  1  0.628225  0.377284  0.538700  1
  Al  Al19  1  0.225624  0.231410  0.502425  1
  Al  Al20  1  0.373405  0.622238  0.452374  1
  Al  Al21  1  0.132284  0.410390  0.250246  1
  Al  Al22  1  0.531188  0.783907  0.752314  1
  Al  Al23  1  0.374611  0.625097  0.048426  1
  Al  Al24  1  0.227064  0.229691  0.999879  1
  Ru  Ru25  1  0.496557  0.999679  0.499925  1
