# generated using pymatgen
data_Pr2GePt6
_symmetry_space_group_name_H-M   'P 1'
_cell_length_a   6.85308592
_cell_length_b   6.85308535
_cell_length_c   6.85308700
_cell_angle_alpha   49.16617520
_cell_angle_beta   49.16617931
_cell_angle_gamma   49.16616319
_symmetry_Int_Tables_number   1
_chemical_formula_structural   Pr2GePt6
_chemical_formula_sum   'Pr2 Ge1 Pt6'
_cell_volume   169.23648461
_cell_formula_units_Z   1
loop_
 _symmetry_equiv_pos_site_id
 _symmetry_equiv_pos_as_xyz
  1  'x, y, z'
loop_
 _atom_site_type_symbol
 _atom_site_label
 _atom_site_symmetry_multiplicity
 _atom_site_fract_x
 _atom_site_fract_y
 _atom_site_fract_z
 _atom_site_occupancy
  Pr  Pr0  1  0.218907  0.218907  0.218907  1
  Pr  Pr1  1  0.781093  0.781093  0.781093  1
  Ge  Ge2  1  0.500000  0.500000  0.500000  1
  Pt  Pt3  1  0.732786  0.227853  0.227854  1
  Pt  Pt4  1  0.227853  0.732786  0.227854  1
  Pt  Pt5  1  0.772147  0.772147  0.267213  1
  Pt  Pt6  1  0.227853  0.227853  0.732787  1
  Pt  Pt7  1  0.772147  0.267214  0.772146  1
  Pt  Pt8  1  0.267214  0.772147  0.772146  1
