# generated using pymatgen
data_Ho3Tm2(Tl2Rh)2
_symmetry_space_group_name_H-M   'P 1'
_cell_length_a   3.61295100
_cell_length_b   7.97546900
_cell_length_c   18.24688000
_cell_angle_alpha   90.00000000
_cell_angle_beta   90.00000000
_cell_angle_gamma   90.00000000
_symmetry_Int_Tables_number   1
_chemical_formula_structural   Ho3Tm2(Tl2Rh)2
_chemical_formula_sum   'Ho6 Tm4 Tl8 Rh4'
_cell_volume   525.78345852
_cell_formula_units_Z   2
loop_
 _symmetry_equiv_pos_site_id
 _symmetry_equiv_pos_as_xyz
  1  'x, y, z'
loop_
 _atom_site_type_symbol
 _atom_site_label
 _atom_site_symmetry_multiplicity
 _atom_site_fract_x
 _atom_site_fract_y
 _atom_site_fract_z
 _atom_site_occupancy
  Ho  Ho0  1  0.000000  0.000000  0.000000  1
  Ho  Ho1  1  0.000000  0.500000  0.500000  1
  Ho  Ho2  1  0.000000  0.746867  0.779765  1
  Ho  Ho3  1  0.000000  0.253133  0.220235  1
  Ho  Ho4  1  0.000000  0.246867  0.720235  1
  Ho  Ho5  1  0.000000  0.753133  0.279765  1
  Tm  Tm6  1  0.000000  0.879098  0.590210  1
  Tm  Tm7  1  0.000000  0.120902  0.409790  1
  Tm  Tm8  1  0.000000  0.379098  0.909790  1
  Tm  Tm9  1  0.000000  0.620902  0.090210  1
  Tl  Tl10  1  0.500000  0.799366  0.435065  1
  Tl  Tl11  1  0.500000  0.200634  0.564935  1
  Tl  Tl12  1  0.500000  0.299366  0.064935  1
  Tl  Tl13  1  0.500000  0.700634  0.935065  1
  Tl  Tl14  1  0.500000  0.931298  0.149961  1
  Tl  Tl15  1  0.500000  0.068702  0.850039  1
  Tl  Tl16  1  0.500000  0.431298  0.350039  1
  Tl  Tl17  1  0.500000  0.568702  0.649961  1
  Rh  Rh18  1  0.500000  0.967659  0.694744  1
  Rh  Rh19  1  0.500000  0.032341  0.305256  1
  Rh  Rh20  1  0.500000  0.467659  0.805256  1
  Rh  Rh21  1  0.500000  0.532341  0.194744  1
