# generated using pymatgen
data_Na2CeCl6
_symmetry_space_group_name_H-M   'P 1'
_cell_length_a   12.13220400
_cell_length_b   12.13220275
_cell_length_c   6.26864300
_cell_angle_alpha   90.00000000
_cell_angle_beta   90.00000000
_cell_angle_gamma   119.99999796
_symmetry_Int_Tables_number   1
_chemical_formula_structural   Na2CeCl6
_chemical_formula_sum   'Na6 Ce3 Cl18'
_cell_volume   799.06763712
_cell_formula_units_Z   3
loop_
 _symmetry_equiv_pos_site_id
 _symmetry_equiv_pos_as_xyz
  1  'x, y, z'
loop_
 _atom_site_type_symbol
 _atom_site_label
 _atom_site_symmetry_multiplicity
 _atom_site_fract_x
 _atom_site_fract_y
 _atom_site_fract_z
 _atom_site_occupancy
  Na  Na0  1  0.660463  0.000000  0.000000  1
  Na  Na1  1  0.339537  0.000000  0.000000  1
  Na  Na2  1  0.000000  0.660463  0.000000  1
  Na  Na3  1  0.660463  0.660463  0.000000  1
  Na  Na4  1  0.339537  0.339537  0.000000  1
  Na  Na5  1  0.000000  0.339537  0.000000  1
  Ce  Ce6  1  0.666667  0.333333  0.505025  1
  Ce  Ce7  1  0.333333  0.666667  0.494975  1
  Ce  Ce8  1  0.000000  0.000000  0.000000  1
  Cl  Cl9  1  0.563497  0.126996  0.750474  1
  Cl  Cl10  1  0.770378  0.229622  0.266866  1
  Cl  Cl11  1  0.788674  0.894337  0.227899  1
  Cl  Cl12  1  0.436503  0.563497  0.249526  1
  Cl  Cl13  1  0.770378  0.540756  0.266866  1
  Cl  Cl14  1  0.105663  0.211326  0.227899  1
  Cl  Cl15  1  0.229622  0.770378  0.733134  1
  Cl  Cl16  1  0.563497  0.436503  0.750474  1
  Cl  Cl17  1  0.229622  0.459244  0.733134  1
  Cl  Cl18  1  0.126996  0.563497  0.249526  1
  Cl  Cl19  1  0.211326  0.105663  0.772101  1
  Cl  Cl20  1  0.105663  0.894337  0.227899  1
  Cl  Cl21  1  0.540756  0.770378  0.733134  1
  Cl  Cl22  1  0.436503  0.873004  0.249526  1
  Cl  Cl23  1  0.894337  0.105663  0.772101  1
  Cl  Cl24  1  0.873004  0.436503  0.750474  1
  Cl  Cl25  1  0.459244  0.229622  0.266866  1
  Cl  Cl26  1  0.894337  0.788674  0.772101  1
