# generated using pymatgen
data_Th2Co4Cu2SiP
_symmetry_space_group_name_H-M   'P 1'
_cell_length_a   3.80961300
_cell_length_b   3.80961300
_cell_length_c   10.47193100
_cell_angle_alpha   90.00000000
_cell_angle_beta   90.00000000
_cell_angle_gamma   90.00000000
_symmetry_Int_Tables_number   1
_chemical_formula_structural   Th2Co4Cu2SiP
_chemical_formula_sum   'Th2 Co4 Cu2 Si1 P1'
_cell_volume   151.98071806
_cell_formula_units_Z   1
loop_
 _symmetry_equiv_pos_site_id
 _symmetry_equiv_pos_as_xyz
  1  'x, y, z'
loop_
 _atom_site_type_symbol
 _atom_site_label
 _atom_site_symmetry_multiplicity
 _atom_site_fract_x
 _atom_site_fract_y
 _atom_site_fract_z
 _atom_site_occupancy
  Th  Th0  1  0.000000  0.500000  0.253838  1
  Th  Th1  1  0.500000  0.000000  0.741960  1
  Co  Co2  1  0.000000  0.000000  0.005563  1
  Co  Co3  1  0.500000  0.500000  0.005563  1
  Co  Co4  1  0.000000  0.500000  0.660114  1
  Co  Co5  1  0.500000  0.000000  0.335640  1
  Cu  Cu6  1  0.000000  0.000000  0.498358  1
  Cu  Cu7  1  0.500000  0.500000  0.498358  1
  Si  Si8  1  0.000000  0.500000  0.882675  1
  P  P9  1  0.500000  0.000000  0.117929  1
