# generated using pymatgen
data_NpU3F24
_symmetry_space_group_name_H-M   'P 1'
_cell_length_a   5.51096507
_cell_length_b   9.47365200
_cell_length_c   10.43570400
_cell_angle_alpha   90.00000000
_cell_angle_beta   90.00851068
_cell_angle_gamma   90.00000000
_symmetry_Int_Tables_number   1
_chemical_formula_structural   NpU3F24
_chemical_formula_sum   'Np1 U3 F24'
_cell_volume   544.83730183
_cell_formula_units_Z   1
loop_
 _symmetry_equiv_pos_site_id
 _symmetry_equiv_pos_as_xyz
  1  'x, y, z'
loop_
 _atom_site_type_symbol
 _atom_site_label
 _atom_site_symmetry_multiplicity
 _atom_site_fract_x
 _atom_site_fract_y
 _atom_site_fract_z
 _atom_site_occupancy
  Np  Np0  1  0.914544  0.750000  0.871954  1
  U  U1  1  0.585518  0.750000  0.371968  1
  U  U2  1  0.085539  0.250000  0.128006  1
  U  U3  1  0.414660  0.250000  0.628048  1
  F  F4  1  0.567624  0.400992  0.738570  1
  F  F5  1  0.066682  0.600276  0.762322  1
  F  F6  1  0.432332  0.900794  0.261348  1
  F  F7  1  0.932273  0.099105  0.238443  1
  F  F8  1  0.208241  0.750000  0.985836  1
  F  F9  1  0.710528  0.250000  0.513296  1
  F  F10  1  0.789444  0.250000  0.013253  1
  F  F11  1  0.289669  0.750000  0.486829  1
  F  F12  1  0.620188  0.750000  0.758045  1
  F  F13  1  0.117974  0.250000  0.742864  1
  F  F14  1  0.382085  0.250000  0.242871  1
  F  F15  1  0.881994  0.750000  0.257093  1
  F  F16  1  0.761638  0.899498  0.981830  1
  F  F17  1  0.260653  0.099273  0.517382  1
  F  F18  1  0.239336  0.400724  0.017270  1
  F  F19  1  0.739272  0.599404  0.482804  1
  F  F20  1  0.239336  0.099276  0.017270  1
  F  F21  1  0.739272  0.900596  0.482804  1
  F  F22  1  0.761638  0.600502  0.981830  1
  F  F23  1  0.260653  0.400727  0.517382  1
  F  F24  1  0.066682  0.899724  0.762322  1
  F  F25  1  0.567624  0.099008  0.738570  1
  F  F26  1  0.932273  0.400895  0.238443  1
  F  F27  1  0.432332  0.599206  0.261348  1
