# generated using pymatgen
data_K8Y6CoBr20
_symmetry_space_group_name_H-M   'P 1'
_cell_length_a   12.02378709
_cell_length_b   12.02396926
_cell_length_c   12.02296700
_cell_angle_alpha   60.00194577
_cell_angle_beta   60.00150515
_cell_angle_gamma   59.99474572
_symmetry_Int_Tables_number   1
_chemical_formula_structural   K8Y6CoBr20
_chemical_formula_sum   'K8 Y6 Co1 Br20'
_cell_volume   1229.07919952
_cell_formula_units_Z   1
loop_
 _symmetry_equiv_pos_site_id
 _symmetry_equiv_pos_as_xyz
  1  'x, y, z'
loop_
 _atom_site_type_symbol
 _atom_site_label
 _atom_site_symmetry_multiplicity
 _atom_site_fract_x
 _atom_site_fract_y
 _atom_site_fract_z
 _atom_site_occupancy
  K  K0  1  0.076613  0.641126  0.641141  1
  K  K1  1  0.641119  0.076610  0.641142  1
  K  K2  1  0.641143  0.641144  0.076607  1
  K  K3  1  0.641130  0.641139  0.641115  1
  K  K4  1  0.358881  0.923390  0.358858  1
  K  K5  1  0.923387  0.358874  0.358859  1
  K  K6  1  0.358857  0.358856  0.923393  1
  K  K7  1  0.358870  0.358861  0.358885  1
  Y  Y8  1  0.842600  0.842601  0.157401  1
  Y  Y9  1  0.842584  0.157414  0.842587  1
  Y  Y10  1  0.157400  0.157399  0.842599  1
  Y  Y11  1  0.157416  0.842586  0.157413  1
  Y  Y12  1  0.157416  0.842584  0.842585  1
  Y  Y13  1  0.842584  0.157416  0.157415  1
  Co  Co14  1  0.000000  0.000000  0.000000  1
  Br  Br15  1  0.660990  0.339010  0.000002  1
  Br  Br16  1  0.000011  0.661003  0.999988  1
  Br  Br17  1  0.000002  0.999999  0.660984  1
  Br  Br18  1  0.661004  0.000014  0.338995  1
  Br  Br19  1  0.339010  0.660990  0.999998  1
  Br  Br20  1  0.338996  0.999986  0.661005  1
  Br  Br21  1  0.999998  0.000001  0.339016  1
  Br  Br22  1  0.999989  0.338997  0.000012  1
  Br  Br23  1  0.000010  0.661005  0.338996  1
  Br  Br24  1  0.660998  0.000013  0.999990  1
  Br  Br25  1  0.999990  0.338995  0.661004  1
  Br  Br26  1  0.339002  0.999987  0.000010  1
  Br  Br27  1  0.673170  0.673173  0.326816  1
  Br  Br28  1  0.673126  0.326859  0.673128  1
  Br  Br29  1  0.326830  0.326827  0.673184  1
  Br  Br30  1  0.326874  0.673141  0.326872  1
  Br  Br31  1  0.326857  0.673130  0.673130  1
  Br  Br32  1  0.673143  0.326870  0.326870  1
  Br  Br33  1  0.750000  0.750001  0.749996  1
  Br  Br34  1  0.250000  0.249999  0.250004  1
