# generated using pymatgen
data_Ca9AcIr4
_symmetry_space_group_name_H-M   'P 1'
_cell_length_a   8.71554893
_cell_length_b   8.71554863
_cell_length_c   7.63927711
_cell_angle_alpha   82.89830034
_cell_angle_beta   82.89829790
_cell_angle_gamma   44.76929008
_symmetry_Int_Tables_number   1
_chemical_formula_structural   Ca9AcIr4
_chemical_formula_sum   'Ca9 Ac1 Ir4'
_cell_volume   404.99886901
_cell_formula_units_Z   1
loop_
 _symmetry_equiv_pos_site_id
 _symmetry_equiv_pos_as_xyz
  1  'x, y, z'
loop_
 _atom_site_type_symbol
 _atom_site_label
 _atom_site_symmetry_multiplicity
 _atom_site_fract_x
 _atom_site_fract_y
 _atom_site_fract_z
 _atom_site_occupancy
  Ca  Ca0  1  0.019044  0.805023  0.911310  1
  Ca  Ca1  1  0.194977  0.980956  0.588690  1
  Ca  Ca2  1  0.983590  0.194467  0.080147  1
  Ca  Ca3  1  0.805533  0.016410  0.419853  1
  Ca  Ca4  1  0.361658  0.205310  0.822430  1
  Ca  Ca5  1  0.794690  0.638342  0.677570  1
  Ca  Ca6  1  0.643058  0.800544  0.176446  1
  Ca  Ca7  1  0.199456  0.356942  0.323554  1
  Ca  Ca8  1  0.570386  0.429614  0.750000  1
  Ac  Ac9  1  0.430592  0.569408  0.250000  1
  Ir  Ir10  1  0.174704  0.603209  0.577848  1
  Ir  Ir11  1  0.396791  0.825296  0.922152  1
  Ir  Ir12  1  0.822973  0.397456  0.416052  1
  Ir  Ir13  1  0.602544  0.177027  0.083948  1
