# generated using pymatgen
data_NdLu3(ScIr)4
_symmetry_space_group_name_H-M   'P 1'
_cell_length_a   4.22418900
_cell_length_b   7.12701263
_cell_length_c   8.70947080
_cell_angle_alpha   91.04256668
_cell_angle_beta   90.00000000
_cell_angle_gamma   90.00000000
_symmetry_Int_Tables_number   1
_chemical_formula_structural   NdLu3(ScIr)4
_chemical_formula_sum   'Nd1 Lu3 Sc4 Ir4'
_cell_volume   262.16259980
_cell_formula_units_Z   1
loop_
 _symmetry_equiv_pos_site_id
 _symmetry_equiv_pos_as_xyz
  1  'x, y, z'
loop_
 _atom_site_type_symbol
 _atom_site_label
 _atom_site_symmetry_multiplicity
 _atom_site_fract_x
 _atom_site_fract_y
 _atom_site_fract_z
 _atom_site_occupancy
  Nd  Nd0  1  0.750000  0.508082  0.824512  1
  Lu  Lu1  1  0.250000  0.981384  0.327811  1
  Lu  Lu2  1  0.250000  0.478830  0.174461  1
  Lu  Lu3  1  0.750000  0.023153  0.667985  1
  Sc  Sc4  1  0.250000  0.363121  0.556899  1
  Sc  Sc5  1  0.250000  0.854839  0.937147  1
  Sc  Sc6  1  0.750000  0.649846  0.431823  1
  Sc  Sc7  1  0.750000  0.138112  0.070300  1
  Ir  Ir8  1  0.250000  0.228231  0.896570  1
  Ir  Ir9  1  0.250000  0.751373  0.605557  1
  Ir  Ir10  1  0.750000  0.759843  0.117802  1
  Ir  Ir11  1  0.750000  0.263187  0.389135  1
