# generated using pymatgen
data_LaNd15MgCo4Hg3
_symmetry_space_group_name_H-M   'P 1'
_cell_length_a   9.72865578
_cell_length_b   9.87348362
_cell_length_c   9.87348378
_cell_angle_alpha   59.41744390
_cell_angle_beta   60.47975702
_cell_angle_gamma   60.47976103
_symmetry_Int_Tables_number   1
_chemical_formula_structural   LaNd15MgCo4Hg3
_chemical_formula_sum   'La1 Nd15 Mg1 Co4 Hg3'
_cell_volume   672.37989315
_cell_formula_units_Z   1
loop_
 _symmetry_equiv_pos_site_id
 _symmetry_equiv_pos_as_xyz
  1  'x, y, z'
loop_
 _atom_site_type_symbol
 _atom_site_label
 _atom_site_symmetry_multiplicity
 _atom_site_fract_x
 _atom_site_fract_y
 _atom_site_fract_z
 _atom_site_occupancy
  La  La0  1  0.178651  0.816530  0.816530  1
  Nd  Nd1  1  0.556429  0.942248  0.563277  1
  Nd  Nd2  1  0.184725  0.190643  0.812756  1
  Nd  Nd3  1  0.556429  0.563277  0.942248  1
  Nd  Nd4  1  0.957120  0.349220  0.349220  1
  Nd  Nd5  1  0.800846  0.195460  0.809697  1
  Nd  Nd6  1  0.184725  0.812756  0.190643  1
  Nd  Nd7  1  0.351167  0.341174  0.959489  1
  Nd  Nd8  1  0.351167  0.959489  0.341174  1
  Nd  Nd9  1  0.941342  0.940782  0.559276  1
  Nd  Nd10  1  0.938420  0.566790  0.566790  1
  Nd  Nd11  1  0.344175  0.344677  0.344677  1
  Nd  Nd12  1  0.800846  0.809697  0.195460  1
  Nd  Nd13  1  0.807690  0.190591  0.190591  1
  Nd  Nd14  1  0.561237  0.936268  0.936268  1
  Nd  Nd15  1  0.941342  0.559276  0.940782  1
  Mg  Mg16  1  0.290944  0.567337  0.567337  1
  Co  Co17  1  0.145639  0.583129  0.126482  1
  Co  Co18  1  0.575491  0.144559  0.144559  1
  Co  Co19  1  0.145639  0.126482  0.583129  1
  Co  Co20  1  0.137050  0.143228  0.143228  1
  Hg  Hg21  1  0.583505  0.584401  0.584401  1
  Hg  Hg22  1  0.582713  0.248005  0.583984  1
  Hg  Hg23  1  0.582713  0.583984  0.248005  1
