# generated using pymatgen
data_TbDy3ThSn4
_symmetry_space_group_name_H-M   'P 1'
_cell_length_a   8.12502400
_cell_length_b   8.23134300
_cell_length_c   15.56647200
_cell_angle_alpha   90.00000000
_cell_angle_beta   90.00000000
_cell_angle_gamma   90.00000000
_symmetry_Int_Tables_number   1
_chemical_formula_structural   TbDy3ThSn4
_chemical_formula_sum   'Tb4 Dy12 Th4 Sn16'
_cell_volume   1041.08345914
_cell_formula_units_Z   4
loop_
 _symmetry_equiv_pos_site_id
 _symmetry_equiv_pos_as_xyz
  1  'x, y, z'
loop_
 _atom_site_type_symbol
 _atom_site_label
 _atom_site_symmetry_multiplicity
 _atom_site_fract_x
 _atom_site_fract_y
 _atom_site_fract_z
 _atom_site_occupancy
  Tb  Tb0  1  0.475729  0.678837  0.099432  1
  Tb  Tb1  1  0.975729  0.821163  0.400568  1
  Tb  Tb2  1  0.524271  0.321163  0.599432  1
  Tb  Tb3  1  0.024271  0.178837  0.900568  1
  Dy  Dy4  1  0.365699  0.836151  0.877120  1
  Dy  Dy5  1  0.865699  0.663849  0.622880  1
  Dy  Dy6  1  0.634301  0.163849  0.377120  1
  Dy  Dy7  1  0.134301  0.336151  0.122880  1
  Dy  Dy8  1  0.634084  0.165423  0.122588  1
  Dy  Dy9  1  0.134084  0.334577  0.377412  1
  Dy  Dy10  1  0.365916  0.834577  0.622588  1
  Dy  Dy11  1  0.865916  0.665423  0.877412  1
  Dy  Dy12  1  0.196074  0.500828  0.749846  1
  Dy  Dy13  1  0.696074  0.999172  0.750154  1
  Dy  Dy14  1  0.803926  0.499172  0.249846  1
  Dy  Dy15  1  0.303926  0.000828  0.250154  1
  Th  Th16  1  0.518322  0.320064  0.903538  1
  Th  Th17  1  0.018322  0.179936  0.596462  1
  Th  Th18  1  0.481678  0.679936  0.403538  1
  Th  Th19  1  0.981678  0.820064  0.096462  1
  Sn  Sn20  1  0.296196  0.038984  0.040848  1
  Sn  Sn21  1  0.796196  0.461016  0.459152  1
  Sn  Sn22  1  0.703804  0.961016  0.540848  1
  Sn  Sn23  1  0.203804  0.538984  0.959152  1
  Sn  Sn24  1  0.707652  0.967196  0.957340  1
  Sn  Sn25  1  0.207652  0.532804  0.542660  1
  Sn  Sn26  1  0.292348  0.032804  0.457340  1
  Sn  Sn27  1  0.792348  0.467196  0.042660  1
  Sn  Sn28  1  0.563181  0.620412  0.750845  1
  Sn  Sn29  1  0.063181  0.879588  0.749155  1
  Sn  Sn30  1  0.436819  0.379588  0.250845  1
  Sn  Sn31  1  0.936819  0.120412  0.249155  1
  Sn  Sn32  1  0.327508  0.144329  0.748570  1
  Sn  Sn33  1  0.827508  0.355671  0.751430  1
  Sn  Sn34  1  0.672492  0.855671  0.248570  1
  Sn  Sn35  1  0.172492  0.644329  0.251430  1
