# generated using pymatgen
data_K10Tl7
_symmetry_space_group_name_H-M   'P 1'
_cell_length_a   22.95723600
_cell_length_b   10.22298739
_cell_length_c   13.64435900
_cell_angle_alpha   86.82637986
_cell_angle_beta   90.00000000
_cell_angle_gamma   90.00000000
_symmetry_Int_Tables_number   1
_chemical_formula_structural   K10Tl7
_chemical_formula_sum   'K40 Tl28'
_cell_volume   3197.30449779
_cell_formula_units_Z   4
loop_
 _symmetry_equiv_pos_site_id
 _symmetry_equiv_pos_as_xyz
  1  'x, y, z'
loop_
 _atom_site_type_symbol
 _atom_site_label
 _atom_site_symmetry_multiplicity
 _atom_site_fract_x
 _atom_site_fract_y
 _atom_site_fract_z
 _atom_site_occupancy
  K  K0  1  0.977669  0.951509  0.266690  1
  K  K1  1  0.022331  0.048491  0.733310  1
  K  K2  1  0.477669  0.048491  0.233310  1
  K  K3  1  0.522331  0.951509  0.766690  1
  K  K4  1  0.229990  0.696230  0.503588  1
  K  K5  1  0.770010  0.303770  0.496412  1
  K  K6  1  0.729990  0.303770  0.996412  1
  K  K7  1  0.270010  0.696230  0.003588  1
  K  K8  1  0.716358  0.677951  0.558036  1
  K  K9  1  0.283642  0.322049  0.441964  1
  K  K10  1  0.216358  0.322049  0.941964  1
  K  K11  1  0.783642  0.677951  0.058036  1
  K  K12  1  0.144999  0.359734  0.646094  1
  K  K13  1  0.855001  0.640266  0.353906  1
  K  K14  1  0.644999  0.640266  0.853906  1
  K  K15  1  0.355001  0.359734  0.146094  1
  K  K16  1  0.377490  0.986956  0.581555  1
  K  K17  1  0.622510  0.013044  0.418445  1
  K  K18  1  0.877490  0.013044  0.918445  1
  K  K19  1  0.122510  0.986956  0.081555  1
  K  K20  1  0.029969  0.686801  0.528396  1
  K  K21  1  0.970031  0.313199  0.471604  1
  K  K22  1  0.529969  0.313199  0.971604  1
  K  K23  1  0.470031  0.686801  0.028396  1
  K  K24  1  0.106285  0.660844  0.833153  1
  K  K25  1  0.893715  0.339156  0.166847  1
  K  K26  1  0.606285  0.339156  0.666847  1
  K  K27  1  0.393715  0.660844  0.333153  1
  K  K28  1  0.227698  0.960745  0.743729  1
  K  K29  1  0.772302  0.039255  0.256271  1
  K  K30  1  0.727698  0.039255  0.756271  1
  K  K31  1  0.272302  0.960745  0.243729  1
  K  K32  1  0.974854  0.686647  0.033201  1
  K  K33  1  0.025146  0.313353  0.966799  1
  K  K34  1  0.474854  0.313353  0.466799  1
  K  K35  1  0.525146  0.686647  0.533201  1
  K  K36  1  0.871417  0.928366  0.586550  1
  K  K37  1  0.128583  0.071634  0.413450  1
  K  K38  1  0.371417  0.071634  0.913450  1
  K  K39  1  0.628583  0.928366  0.086550  1
  Tl  Tl40  1  0.257954  0.582125  0.753331  1
  Tl  Tl41  1  0.742046  0.417875  0.246669  1
  Tl  Tl42  1  0.757954  0.417875  0.746669  1
  Tl  Tl43  1  0.242046  0.582125  0.253331  1
  Tl  Tl44  1  0.493379  0.570796  0.776266  1
  Tl  Tl45  1  0.506621  0.429204  0.223734  1
  Tl  Tl46  1  0.993379  0.429204  0.723734  1
  Tl  Tl47  1  0.006621  0.570796  0.276266  1
  Tl  Tl48  1  0.948171  0.721270  0.775682  1
  Tl  Tl49  1  0.051829  0.278730  0.224318  1
  Tl  Tl50  1  0.448171  0.278730  0.724318  1
  Tl  Tl51  1  0.551829  0.721270  0.275682  1
  Tl  Tl52  1  0.303736  0.282392  0.707776  1
  Tl  Tl53  1  0.696264  0.717608  0.292224  1
  Tl  Tl54  1  0.803736  0.717608  0.792224  1
  Tl  Tl55  1  0.196264  0.282392  0.207776  1
  Tl  Tl56  1  0.378556  0.542328  0.621328  1
  Tl  Tl57  1  0.621444  0.457672  0.378672  1
  Tl  Tl58  1  0.878556  0.457672  0.878672  1
  Tl  Tl59  1  0.121444  0.542328  0.121328  1
  Tl  Tl60  1  0.371783  0.453013  0.875299  1
  Tl  Tl61  1  0.628217  0.546987  0.124701  1
  Tl  Tl62  1  0.871783  0.546987  0.624701  1
  Tl  Tl63  1  0.128217  0.453013  0.375299  1
  Tl  Tl64  1  0.376259  0.760980  0.792453  1
  Tl  Tl65  1  0.623741  0.239020  0.207547  1
  Tl  Tl66  1  0.876259  0.239020  0.707547  1
  Tl  Tl67  1  0.123741  0.760980  0.292453  1
