# generated using pymatgen
data_Nd8GaSiBr12
_symmetry_space_group_name_H-M   'P 1'
_cell_length_a   4.21289500
_cell_length_b   13.83271828
_cell_length_c   14.63515130
_cell_angle_alpha   89.97679815
_cell_angle_beta   90.00000000
_cell_angle_gamma   90.00000000
_symmetry_Int_Tables_number   1
_chemical_formula_structural   Nd8GaSiBr12
_chemical_formula_sum   'Nd8 Ga1 Si1 Br12'
_cell_volume   852.87492936
_cell_formula_units_Z   1
loop_
 _symmetry_equiv_pos_site_id
 _symmetry_equiv_pos_as_xyz
  1  'x, y, z'
loop_
 _atom_site_type_symbol
 _atom_site_label
 _atom_site_symmetry_multiplicity
 _atom_site_fract_x
 _atom_site_fract_y
 _atom_site_fract_z
 _atom_site_occupancy
  Nd  Nd0  1  0.500000  0.119989  0.338568  1
  Nd  Nd1  1  0.500000  0.880011  0.661432  1
  Nd  Nd2  1  0.500000  0.618064  0.158956  1
  Nd  Nd3  1  0.500000  0.381936  0.841044  1
  Nd  Nd4  1  0.000000  0.123098  0.581798  1
  Nd  Nd5  1  0.000000  0.876902  0.418202  1
  Nd  Nd6  1  0.000000  0.618914  0.921213  1
  Nd  Nd7  1  0.000000  0.381086  0.078787  1
  Ga  Ga8  1  0.500000  0.000000  0.500000  1
  Si  Si9  1  0.500000  0.500000  0.000000  1
  Br  Br10  1  0.500000  0.245450  0.161321  1
  Br  Br11  1  0.500000  0.754550  0.838679  1
  Br  Br12  1  0.500000  0.742245  0.335560  1
  Br  Br13  1  0.500000  0.257755  0.664440  1
  Br  Br14  1  0.000000  0.253832  0.411280  1
  Br  Br15  1  0.000000  0.746168  0.588720  1
  Br  Br16  1  0.000000  0.752418  0.088753  1
  Br  Br17  1  0.000000  0.247582  0.911247  1
  Br  Br18  1  0.000000  0.001667  0.244574  1
  Br  Br19  1  0.000000  0.998333  0.755426  1
  Br  Br20  1  0.000000  0.501915  0.254202  1
  Br  Br21  1  0.000000  0.498085  0.745798  1
