# generated using pymatgen
data_TbAg3(Ru2O7)2
_symmetry_space_group_name_H-M   'P 1'
_cell_length_a   7.18327110
_cell_length_b   7.18327169
_cell_length_c   7.26717480
_cell_angle_alpha   60.38119246
_cell_angle_beta   60.38119263
_cell_angle_gamma   60.00000524
_symmetry_Int_Tables_number   1
_chemical_formula_structural   TbAg3(Ru2O7)2
_chemical_formula_sum   'Tb1 Ag3 Ru4 O14'
_cell_volume   266.66964188
_cell_formula_units_Z   1
loop_
 _symmetry_equiv_pos_site_id
 _symmetry_equiv_pos_as_xyz
  1  'x, y, z'
loop_
 _atom_site_type_symbol
 _atom_site_label
 _atom_site_symmetry_multiplicity
 _atom_site_fract_x
 _atom_site_fract_y
 _atom_site_fract_z
 _atom_site_occupancy
  Tb  Tb0  1  0.625000  0.625000  0.125000  1
  Ag  Ag1  1  0.625000  0.125000  0.625000  1
  Ag  Ag2  1  0.125000  0.625000  0.625000  1
  Ag  Ag3  1  0.625000  0.625000  0.625000  1
  Ru  Ru4  1  0.125000  0.125000  0.625000  1
  Ru  Ru5  1  0.125000  0.625000  0.125000  1
  Ru  Ru6  1  0.625000  0.125000  0.125000  1
  Ru  Ru7  1  0.125000  0.125000  0.125000  1
  O  O8  1  0.753580  0.753580  0.739261  1
  O  O9  1  0.496420  0.496420  0.510739  1
  O  O10  1  0.043366  0.449226  0.058183  1
  O  O11  1  0.807193  0.190868  0.811071  1
  O  O12  1  0.059132  0.059132  0.438929  1
  O  O13  1  0.449226  0.043366  0.058183  1
  O  O14  1  0.059132  0.442807  0.438929  1
  O  O15  1  0.449226  0.449226  0.058183  1
  O  O16  1  0.442807  0.059132  0.438929  1
  O  O17  1  0.190868  0.807193  0.811071  1
  O  O18  1  0.800774  0.206634  0.191817  1
  O  O19  1  0.206634  0.800774  0.191817  1
  O  O20  1  0.800774  0.800774  0.191817  1
  O  O21  1  0.190868  0.190868  0.811071  1
