# generated using pymatgen
data_Dy2Ho10InGaTcNi3
_symmetry_space_group_name_H-M   'P 1'
_cell_length_a   8.35354126
_cell_length_b   8.35296173
_cell_length_c   8.35296532
_cell_angle_alpha   112.91244990
_cell_angle_beta   109.97190526
_cell_angle_gamma   105.60915107
_symmetry_Int_Tables_number   1
_chemical_formula_structural   Dy2Ho10InGaTcNi3
_chemical_formula_sum   'Dy2 Ho10 In1 Ga1 Tc1 Ni3'
_cell_volume   446.85570940
_cell_formula_units_Z   1
loop_
 _symmetry_equiv_pos_site_id
 _symmetry_equiv_pos_as_xyz
  1  'x, y, z'
loop_
 _atom_site_type_symbol
 _atom_site_label
 _atom_site_symmetry_multiplicity
 _atom_site_fract_x
 _atom_site_fract_y
 _atom_site_fract_z
 _atom_site_occupancy
  Dy  Dy0  1  0.441197  0.244839  0.196359  1
  Dy  Dy1  1  0.574835  0.771537  0.803298  1
  Ho  Ho2  1  0.032274  0.228438  0.803836  1
  Ho  Ho3  1  0.951399  0.754934  0.196464  1
  Ho  Ho4  1  0.184815  0.280273  0.465885  1
  Ho  Ho5  1  0.825800  0.721167  0.546258  1
  Ho  Ho6  1  0.184815  0.718929  0.904543  1
  Ho  Ho7  1  0.825800  0.279542  0.104633  1
  Ho  Ho8  1  0.323659  0.638723  0.308647  1
  Ho  Ho9  1  0.670942  0.361489  0.685816  1
  Ho  Ho10  1  0.323658  0.015012  0.684935  1
  Ho  Ho11  1  0.670941  0.985126  0.309454  1
  In  In12  1  0.493817  0.500177  0.993640  1
  Ga  Ga13  1  0.017744  0.999598  0.018146  1
  Tc  Tc14  1  0.325741  0.999915  0.325827  1
  Ni  Ni15  1  0.653056  0.000291  0.652765  1
  Ni  Ni16  1  0.116728  0.617600  0.499128  1
  Ni  Ni17  1  0.882778  0.382409  0.500368  1
