# generated using pymatgen
data_Er3Tm2Tl3Zn
_symmetry_space_group_name_H-M   'P 1'
_cell_length_a   9.07048900
_cell_length_b   9.07048884
_cell_length_c   6.64149200
_cell_angle_alpha   90.00000000
_cell_angle_beta   90.00000000
_cell_angle_gamma   119.99999694
_symmetry_Int_Tables_number   1
_chemical_formula_structural   Er3Tm2Tl3Zn
_chemical_formula_sum   'Er6 Tm4 Tl6 Zn2'
_cell_volume   473.21411811
_cell_formula_units_Z   2
loop_
 _symmetry_equiv_pos_site_id
 _symmetry_equiv_pos_as_xyz
  1  'x, y, z'
loop_
 _atom_site_type_symbol
 _atom_site_label
 _atom_site_symmetry_multiplicity
 _atom_site_fract_x
 _atom_site_fract_y
 _atom_site_fract_z
 _atom_site_occupancy
  Er  Er0  1  0.274431  0.000000  0.750000  1
  Er  Er1  1  0.725569  0.000000  0.250000  1
  Er  Er2  1  0.000000  0.274431  0.750000  1
  Er  Er3  1  0.000000  0.725569  0.250000  1
  Er  Er4  1  0.725569  0.725569  0.750000  1
  Er  Er5  1  0.274431  0.274431  0.250000  1
  Tm  Tm6  1  0.333333  0.666667  0.500000  1
  Tm  Tm7  1  0.666667  0.333333  0.500000  1
  Tm  Tm8  1  0.666667  0.333333  0.000000  1
  Tm  Tm9  1  0.333333  0.666667  0.000000  1
  Tl  Tl10  1  0.621835  0.000000  0.750000  1
  Tl  Tl11  1  0.378165  0.000000  0.250000  1
  Tl  Tl12  1  0.000000  0.621835  0.750000  1
  Tl  Tl13  1  0.000000  0.378165  0.250000  1
  Tl  Tl14  1  0.378165  0.378165  0.750000  1
  Tl  Tl15  1  0.621835  0.621835  0.250000  1
  Zn  Zn16  1  0.000000  0.000000  0.500000  1
  Zn  Zn17  1  0.000000  0.000000  0.000000  1
