# generated using pymatgen
data_YbTm7(AlRu)8
_symmetry_space_group_name_H-M   'P 1'
_cell_length_a   4.05157000
_cell_length_b   6.94594216
_cell_length_c   15.83946600
_cell_angle_alpha   89.77166400
_cell_angle_beta   90.00000000
_cell_angle_gamma   90.00000000
_symmetry_Int_Tables_number   1
_chemical_formula_structural   YbTm7(AlRu)8
_chemical_formula_sum   'Yb1 Tm7 Al8 Ru8'
_cell_volume   445.75025101
_cell_formula_units_Z   1
loop_
 _symmetry_equiv_pos_site_id
 _symmetry_equiv_pos_as_xyz
  1  'x, y, z'
loop_
 _atom_site_type_symbol
 _atom_site_label
 _atom_site_symmetry_multiplicity
 _atom_site_fract_x
 _atom_site_fract_y
 _atom_site_fract_z
 _atom_site_occupancy
  Yb  Yb0  1  0.250000  0.536528  0.719667  1
  Tm  Tm1  1  0.750000  0.962871  0.219324  1
  Tm  Tm2  1  0.250000  0.157174  0.564194  1
  Tm  Tm3  1  0.750000  0.843932  0.436102  1
  Tm  Tm4  1  0.750000  0.462651  0.280854  1
  Tm  Tm5  1  0.750000  0.342538  0.064061  1
  Tm  Tm6  1  0.250000  0.657530  0.935461  1
  Tm  Tm7  1  0.250000  0.036906  0.781007  1
  Al  Al8  1  0.750000  0.502300  0.565751  1
  Al  Al9  1  0.750000  0.364763  0.848731  1
  Al  Al10  1  0.750000  0.999834  0.933570  1
  Al  Al11  1  0.750000  0.868845  0.651273  1
  Al  Al12  1  0.250000  0.499620  0.433575  1
  Al  Al13  1  0.250000  0.997682  0.066596  1
  Al  Al14  1  0.250000  0.633123  0.152161  1
  Al  Al15  1  0.250000  0.134839  0.348079  1
  Ru  Ru16  1  0.750000  0.748141  0.813985  1
  Ru  Ru17  1  0.250000  0.236933  0.939025  1
  Ru  Ru18  1  0.750000  0.263916  0.437217  1
  Ru  Ru19  1  0.250000  0.753882  0.312029  1
  Ru  Ru20  1  0.750000  0.762242  0.063205  1
  Ru  Ru21  1  0.750000  0.242415  0.686552  1
  Ru  Ru22  1  0.250000  0.252433  0.186814  1
  Ru  Ru23  1  0.250000  0.738898  0.560769  1
