# generated using pymatgen
data_Er4Ga18IrPd4Ru
_symmetry_space_group_name_H-M   'P 1'
_cell_length_a   7.62363359
_cell_length_b   7.62363338
_cell_length_c   9.51709400
_cell_angle_alpha   89.88724482
_cell_angle_beta   89.88723539
_cell_angle_gamma   119.77828422
_symmetry_Int_Tables_number   1
_chemical_formula_structural   Er4Ga18IrPd4Ru
_chemical_formula_sum   'Er4 Ga18 Ir1 Pd4 Ru1'
_cell_volume   480.08884934
_cell_formula_units_Z   1
loop_
 _symmetry_equiv_pos_site_id
 _symmetry_equiv_pos_as_xyz
  1  'x, y, z'
loop_
 _atom_site_type_symbol
 _atom_site_label
 _atom_site_symmetry_multiplicity
 _atom_site_fract_x
 _atom_site_fract_y
 _atom_site_fract_z
 _atom_site_occupancy
  Er  Er0  1  0.996712  0.669059  0.250740  1
  Er  Er1  1  0.002653  0.330588  0.749379  1
  Er  Er2  1  0.669412  0.997347  0.250621  1
  Er  Er3  1  0.330941  0.003288  0.749260  1
  Ga  Ga4  1  0.128427  0.128718  0.251321  1
  Ga  Ga5  1  0.871282  0.871573  0.748679  1
  Ga  Ga6  1  0.000636  0.334715  0.082676  1
  Ga  Ga7  1  0.999737  0.665599  0.917170  1
  Ga  Ga8  1  0.998959  0.660601  0.577724  1
  Ga  Ga9  1  0.339399  0.001041  0.422276  1
  Ga  Ga10  1  0.997722  0.337624  0.422390  1
  Ga  Ga11  1  0.662376  0.002278  0.577610  1
  Ga  Ga12  1  0.665285  0.999364  0.917324  1
  Ga  Ga13  1  0.334401  0.000263  0.082830  1
  Ga  Ga14  1  0.336085  0.334320  0.564587  1
  Ga  Ga15  1  0.665680  0.663915  0.435413  1
  Ga  Ga16  1  0.665792  0.666056  0.072612  1
  Ga  Ga17  1  0.333944  0.334208  0.927388  1
  Ga  Ga18  1  0.336799  0.545836  0.253059  1
  Ga  Ga19  1  0.663040  0.453301  0.745511  1
  Ga  Ga20  1  0.546699  0.336960  0.254489  1
  Ga  Ga21  1  0.454164  0.663201  0.746941  1
  Ir  Ir22  1  0.327611  0.672389  0.500000  1
  Pd  Pd23  1  0.670790  0.329210  0.000000  1
  Pd  Pd24  1  0.329053  0.670947  0.000000  1
  Pd  Pd25  1  0.000005  0.999995  0.000000  1
  Pd  Pd26  1  0.000009  0.999991  0.500000  1
  Ru  Ru27  1  0.672386  0.327614  0.500000  1
