# generated using pymatgen
data_LiEu4Al3Pt4
_symmetry_space_group_name_H-M   'P 1'
_cell_length_a   4.34828100
_cell_length_b   7.32128552
_cell_length_c   8.24155877
_cell_angle_alpha   89.55778184
_cell_angle_beta   90.00000000
_cell_angle_gamma   90.00000000
_symmetry_Int_Tables_number   1
_chemical_formula_structural   LiEu4Al3Pt4
_chemical_formula_sum   'Li1 Eu4 Al3 Pt4'
_cell_volume   262.36226422
_cell_formula_units_Z   1
loop_
 _symmetry_equiv_pos_site_id
 _symmetry_equiv_pos_as_xyz
  1  'x, y, z'
loop_
 _atom_site_type_symbol
 _atom_site_label
 _atom_site_symmetry_multiplicity
 _atom_site_fract_x
 _atom_site_fract_y
 _atom_site_fract_z
 _atom_site_occupancy
  Li  Li0  1  0.250000  0.134092  0.061783  1
  Eu  Eu1  1  0.250000  0.527616  0.819433  1
  Eu  Eu2  1  0.250000  0.023167  0.684582  1
  Eu  Eu3  1  0.750000  0.975241  0.316653  1
  Eu  Eu4  1  0.750000  0.471775  0.180351  1
  Al  Al5  1  0.750000  0.360075  0.566198  1
  Al  Al6  1  0.250000  0.648558  0.433855  1
  Al  Al7  1  0.750000  0.860283  0.938915  1
  Pt  Pt8  1  0.250000  0.773215  0.113845  1
  Pt  Pt9  1  0.250000  0.295776  0.406926  1
  Pt  Pt10  1  0.750000  0.713007  0.608669  1
  Pt  Pt11  1  0.750000  0.217195  0.868790  1
