# generated using pymatgen
data_Er2Tm5Lu(OsBr4)2
_symmetry_space_group_name_H-M   'P 1'
_cell_length_a   8.86208214
_cell_length_b   8.89376620
_cell_length_c   6.48679292
_cell_angle_alpha   89.49294997
_cell_angle_beta   89.55981678
_cell_angle_gamma   89.21426213
_symmetry_Int_Tables_number   1
_chemical_formula_structural   Er2Tm5Lu(OsBr4)2
_chemical_formula_sum   'Er2 Tm5 Lu1 Os2 Br8'
_cell_volume   511.18870559
_cell_formula_units_Z   1
loop_
 _symmetry_equiv_pos_site_id
 _symmetry_equiv_pos_as_xyz
  1  'x, y, z'
loop_
 _atom_site_type_symbol
 _atom_site_label
 _atom_site_symmetry_multiplicity
 _atom_site_fract_x
 _atom_site_fract_y
 _atom_site_fract_z
 _atom_site_occupancy
  Er  Er0  1  0.097498  0.247640  0.992331  1
  Er  Er1  1  0.902408  0.751984  0.008618  1
  Tm  Tm2  1  0.751904  0.098245  0.989224  1
  Tm  Tm3  1  0.098994  0.752291  0.490156  1
  Tm  Tm4  1  0.902186  0.247393  0.510493  1
  Tm  Tm5  1  0.753088  0.903161  0.508841  1
  Tm  Tm6  1  0.247581  0.095950  0.492057  1
  Lu  Lu7  1  0.244965  0.902572  0.011670  1
  Os  Os8  1  0.994576  0.004783  0.250537  1
  Os  Os9  1  0.005400  0.994821  0.750373  1
  Br  Br10  1  0.419986  0.817003  0.405338  1
  Br  Br11  1  0.580789  0.183653  0.591239  1
  Br  Br12  1  0.184633  0.581934  0.091347  1
  Br  Br13  1  0.816431  0.418957  0.908684  1
  Br  Br14  1  0.415028  0.188816  0.094271  1
  Br  Br15  1  0.583484  0.811425  0.904491  1
  Br  Br16  1  0.809993  0.585317  0.406649  1
  Br  Br17  1  0.191055  0.414055  0.593682  1
