# generated using pymatgen
data_Ho2ThIn3CoIr2
_symmetry_space_group_name_H-M   'P 1'
_cell_length_a   7.57506711
_cell_length_b   7.57506847
_cell_length_c   3.83053700
_cell_angle_alpha   90.00000000
_cell_angle_beta   90.00000000
_cell_angle_gamma   118.55161628
_symmetry_Int_Tables_number   1
_chemical_formula_structural   Ho2ThIn3CoIr2
_chemical_formula_sum   'Ho2 Th1 In3 Co1 Ir2'
_cell_volume   193.07167200
_cell_formula_units_Z   1
loop_
 _symmetry_equiv_pos_site_id
 _symmetry_equiv_pos_as_xyz
  1  'x, y, z'
loop_
 _atom_site_type_symbol
 _atom_site_label
 _atom_site_symmetry_multiplicity
 _atom_site_fract_x
 _atom_site_fract_y
 _atom_site_fract_z
 _atom_site_occupancy
  Ho  Ho0  1  0.410764  0.002958  0.000000  1
  Ho  Ho1  1  0.002958  0.410764  0.000000  1
  Th  Th2  1  0.580078  0.580078  0.000000  1
  In  In3  1  0.009004  0.753416  0.500000  1
  In  In4  1  0.235271  0.235271  0.500000  1
  In  In5  1  0.753416  0.009004  0.500000  1
  Co  Co6  1  0.995234  0.995234  0.000000  1
  Ir  Ir7  1  0.667665  0.345610  0.500000  1
  Ir  Ir8  1  0.345610  0.667665  0.500000  1
