# generated using pymatgen
data_Pr3Th(B10Ru)2
_symmetry_space_group_name_H-M   'P 1'
_cell_length_a   4.22310100
_cell_length_b   5.76946916
_cell_length_c   11.48555492
_cell_angle_alpha   90.05367440
_cell_angle_beta   90.00000000
_cell_angle_gamma   90.00000000
_symmetry_Int_Tables_number   1
_chemical_formula_structural   Pr3Th(B10Ru)2
_chemical_formula_sum   'Pr3 Th1 B20 Ru2'
_cell_volume   279.84600837
_cell_formula_units_Z   1
loop_
 _symmetry_equiv_pos_site_id
 _symmetry_equiv_pos_as_xyz
  1  'x, y, z'
loop_
 _atom_site_type_symbol
 _atom_site_label
 _atom_site_symmetry_multiplicity
 _atom_site_fract_x
 _atom_site_fract_y
 _atom_site_fract_z
 _atom_site_occupancy
  Pr  Pr0  1  0.500000  0.282995  0.869278  1
  Pr  Pr1  1  0.500000  0.718819  0.129562  1
  Pr  Pr2  1  0.500000  0.784080  0.633463  1
  Th  Th3  1  0.500000  0.220748  0.369470  1
  B  B4  1  0.000000  0.117645  0.542451  1
  B  B5  1  0.000000  0.877858  0.457784  1
  B  B6  1  0.000000  0.619437  0.957154  1
  B  B7  1  0.000000  0.379789  0.043093  1
  B  B8  1  0.000000  0.135553  0.697213  1
  B  B9  1  0.000000  0.866534  0.303435  1
  B  B10  1  0.299451  0.220682  0.119336  1
  B  B11  1  0.298907  0.778656  0.881794  1
  B  B12  1  0.700194  0.721078  0.381237  1
  B  B13  1  0.700973  0.277236  0.617005  1
  B  B14  1  0.701093  0.778656  0.881794  1
  B  B15  1  0.700549  0.220682  0.119336  1
  B  B16  1  0.299027  0.277236  0.617005  1
  B  B17  1  0.299806  0.721078  0.381237  1
  B  B18  1  0.000000  0.059729  0.193728  1
  B  B19  1  0.000000  0.942363  0.807971  1
  B  B20  1  0.000000  0.559599  0.306836  1
  B  B21  1  0.000000  0.441745  0.691361  1
  B  B22  1  0.000000  0.365454  0.197570  1
  B  B23  1  0.000000  0.635410  0.802229  1
  Ru  Ru24  1  0.000000  0.496781  0.498434  1
  Ru  Ru25  1  0.000000  0.000162  0.000222  1
