# generated using pymatgen
data_Nd18Dy2Si15Sn
_symmetry_space_group_name_H-M   'P 1'
_cell_length_a   7.90010432
_cell_length_b   7.90514967
_cell_length_c   15.26375200
_cell_angle_alpha   89.97225502
_cell_angle_beta   89.60861393
_cell_angle_gamma   90.05554558
_symmetry_Int_Tables_number   1
_chemical_formula_structural   Nd18Dy2Si15Sn
_chemical_formula_sum   'Nd18 Dy2 Si15 Sn1'
_cell_volume   953.22151218
_cell_formula_units_Z   1
loop_
 _symmetry_equiv_pos_site_id
 _symmetry_equiv_pos_as_xyz
  1  'x, y, z'
loop_
 _atom_site_type_symbol
 _atom_site_label
 _atom_site_symmetry_multiplicity
 _atom_site_fract_x
 _atom_site_fract_y
 _atom_site_fract_z
 _atom_site_occupancy
  Nd  Nd0  1  0.799155  0.190004  0.752548  1
  Nd  Nd1  1  0.689123  0.691651  0.496733  1
  Nd  Nd2  1  0.375883  0.011631  0.447224  1
  Nd  Nd3  1  0.495132  0.870051  0.697684  1
  Nd  Nd4  1  0.510746  0.122201  0.196481  1
  Nd  Nd5  1  0.878201  0.488039  0.301060  1
  Nd  Nd6  1  0.120789  0.516323  0.806829  1
  Nd  Nd7  1  0.623358  0.987386  0.949792  1
  Nd  Nd8  1  0.004255  0.384100  0.547696  1
  Nd  Nd9  1  0.989747  0.622528  0.054688  1
  Nd  Nd10  1  0.126667  0.979331  0.881808  1
  Nd  Nd11  1  0.520764  0.628352  0.127012  1
  Nd  Nd12  1  0.489499  0.381963  0.625668  1
  Nd  Nd13  1  0.629498  0.521645  0.876355  1
  Nd  Nd14  1  0.373054  0.479743  0.371083  1
  Nd  Nd15  1  0.872100  0.019712  0.375895  1
  Nd  Nd16  1  0.980726  0.127822  0.123983  1
  Nd  Nd17  1  0.009374  0.859424  0.619099  1
  Dy  Dy18  1  0.310389  0.311136  0.001256  1
  Dy  Dy19  1  0.190019  0.811295  0.249488  1
  Si  Si20  1  0.329751  0.691265  0.955919  1
  Si  Si21  1  0.666446  0.305279  0.451074  1
  Si  Si22  1  0.692257  0.329848  0.047690  1
  Si  Si23  1  0.306405  0.669643  0.544763  1
  Si  Si24  1  0.809395  0.829525  0.203772  1
  Si  Si25  1  0.170250  0.191218  0.295719  1
  Si  Si26  1  0.834242  0.806428  0.797973  1
  Si  Si27  1  0.287154  0.923259  0.063551  1
  Si  Si28  1  0.573545  0.789692  0.308715  1
  Si  Si29  1  0.428127  0.214105  0.819057  1
  Si  Si30  1  0.789063  0.575994  0.691080  1
  Si  Si31  1  0.213317  0.422629  0.187559  1
  Si  Si32  1  0.710771  0.079064  0.560035  1
  Si  Si33  1  0.926878  0.289344  0.941482  1
  Si  Si34  1  0.080797  0.714557  0.434752  1
  Sn  Sn35  1  0.193123  0.163813  0.694479  1
