# generated using pymatgen
data_Sr3PuN4
_symmetry_space_group_name_H-M   'P 1'
_cell_length_a   7.26871469
_cell_length_b   9.69060125
_cell_length_c   6.40886223
_cell_angle_alpha   29.06999182
_cell_angle_beta   55.45294825
_cell_angle_gamma   41.40279436
_symmetry_Int_Tables_number   1
_chemical_formula_structural   Sr3PuN4
_chemical_formula_sum   'Sr3 Pu1 N4'
_cell_volume   139.44875658
_cell_formula_units_Z   1
loop_
 _symmetry_equiv_pos_site_id
 _symmetry_equiv_pos_as_xyz
  1  'x, y, z'
loop_
 _atom_site_type_symbol
 _atom_site_label
 _atom_site_symmetry_multiplicity
 _atom_site_fract_x
 _atom_site_fract_y
 _atom_site_fract_z
 _atom_site_occupancy
  Sr  Sr0  1  0.250000  0.500000  0.000000  1
  Sr  Sr1  1  0.750000  0.500000  0.000000  1
  Sr  Sr2  1  0.500000  0.000000  0.000000  1
  Pu  Pu3  1  0.000000  0.000000  0.000000  1
  N  N4  1  0.500000  0.500000  0.500000  1
  N  N5  1  0.185805  0.000000  0.628390  1
  N  N6  1  0.000000  0.500000  0.500000  1
  N  N7  1  0.814195  0.000000  0.371610  1
