# generated using pymatgen
data_ThGa8PdRh2
_symmetry_space_group_name_H-M   'P 1'
_cell_length_a   8.50876609
_cell_length_b   8.49106579
_cell_length_c   8.50876631
_cell_angle_alpha   90.73537233
_cell_angle_beta   90.44147702
_cell_angle_gamma   90.73537900
_symmetry_Int_Tables_number   1
_chemical_formula_structural   ThGa8PdRh2
_chemical_formula_sum   'Th3 Ga24 Pd3 Rh6'
_cell_volume   614.62523802
_cell_formula_units_Z   3
loop_
 _symmetry_equiv_pos_site_id
 _symmetry_equiv_pos_as_xyz
  1  'x, y, z'
loop_
 _atom_site_type_symbol
 _atom_site_label
 _atom_site_symmetry_multiplicity
 _atom_site_fract_x
 _atom_site_fract_y
 _atom_site_fract_z
 _atom_site_occupancy
  Th  Th0  1  0.000634  0.500000  0.999366  1
  Th  Th1  1  0.496889  0.999792  0.997787  1
  Th  Th2  1  0.002213  0.000208  0.503111  1
  Ga  Ga3  1  0.989201  0.638434  0.638980  1
  Ga  Ga4  1  0.638502  0.639357  0.988581  1
  Ga  Ga5  1  0.640602  0.987966  0.641501  1
  Ga  Ga6  1  0.011419  0.360643  0.361498  1
  Ga  Ga7  1  0.361020  0.361566  0.010799  1
  Ga  Ga8  1  0.358499  0.012034  0.359398  1
  Ga  Ga9  1  0.737883  0.500000  0.262117  1
  Ga  Ga10  1  0.262722  0.500000  0.737278  1
  Ga  Ga11  1  0.500259  0.262750  0.736997  1
  Ga  Ga12  1  0.498058  0.734715  0.262084  1
  Ga  Ga13  1  0.263003  0.737250  0.499741  1
  Ga  Ga14  1  0.737916  0.265285  0.501942  1
  Ga  Ga15  1  0.837380  0.148256  0.837362  1
  Ga  Ga16  1  0.148054  0.837534  0.837340  1
  Ga  Ga17  1  0.839688  0.836712  0.145724  1
  Ga  Ga18  1  0.162638  0.851744  0.162620  1
  Ga  Ga19  1  0.854276  0.163288  0.160312  1
  Ga  Ga20  1  0.162660  0.162466  0.851946  1
  Ga  Ga21  1  0.729887  0.482654  0.731014  1
  Ga  Ga22  1  0.482095  0.729440  0.729310  1
  Ga  Ga23  1  0.729821  0.726810  0.485264  1
  Ga  Ga24  1  0.268986  0.517346  0.270113  1
  Ga  Ga25  1  0.514736  0.273190  0.270179  1
  Ga  Ga26  1  0.270690  0.270560  0.517905  1
  Pd  Pd27  1  0.838435  0.838053  0.838098  1
  Pd  Pd28  1  0.161902  0.161947  0.161565  1
  Pd  Pd29  1  0.664139  0.000000  0.335861  1
  Rh  Rh30  1  0.664386  0.334687  0.000747  1
  Rh  Rh31  1  0.000674  0.335166  0.665239  1
  Rh  Rh32  1  0.336436  0.000000  0.663564  1
  Rh  Rh33  1  0.334761  0.664834  0.999326  1
  Rh  Rh34  1  0.999253  0.665313  0.335614  1
  Rh  Rh35  1  0.500283  0.500000  0.499717  1
