# generated using pymatgen
data_Y18Sc2Cd6CoNi
_symmetry_space_group_name_H-M   'P 1'
_cell_length_a   9.58732500
_cell_length_b   9.58732561
_cell_length_c   9.66556400
_cell_angle_alpha   90.00000000
_cell_angle_beta   90.00000000
_cell_angle_gamma   119.99999444
_symmetry_Int_Tables_number   1
_chemical_formula_structural   Y18Sc2Cd6CoNi
_chemical_formula_sum   'Y18 Sc2 Cd6 Co1 Ni1'
_cell_volume   769.40106670
_cell_formula_units_Z   1
loop_
 _symmetry_equiv_pos_site_id
 _symmetry_equiv_pos_as_xyz
  1  'x, y, z'
loop_
 _atom_site_type_symbol
 _atom_site_label
 _atom_site_symmetry_multiplicity
 _atom_site_fract_x
 _atom_site_fract_y
 _atom_site_fract_z
 _atom_site_occupancy
  Y  Y0  1  0.542518  0.457482  0.250000  1
  Y  Y1  1  0.542518  0.085034  0.250000  1
  Y  Y2  1  0.914966  0.457482  0.250000  1
  Y  Y3  1  0.456512  0.543488  0.750000  1
  Y  Y4  1  0.456512  0.913024  0.750000  1
  Y  Y5  1  0.086976  0.543488  0.750000  1
  Y  Y6  1  0.209635  0.790365  0.436942  1
  Y  Y7  1  0.209635  0.419272  0.436942  1
  Y  Y8  1  0.580728  0.790365  0.436942  1
  Y  Y9  1  0.791941  0.208059  0.561821  1
  Y  Y10  1  0.791941  0.583880  0.561821  1
  Y  Y11  1  0.416120  0.208059  0.561821  1
  Y  Y12  1  0.791941  0.208059  0.938179  1
  Y  Y13  1  0.791941  0.583880  0.938179  1
  Y  Y14  1  0.416120  0.208059  0.938179  1
  Y  Y15  1  0.209635  0.790365  0.063058  1
  Y  Y16  1  0.209635  0.419272  0.063058  1
  Y  Y17  1  0.580728  0.790365  0.063058  1
  Sc  Sc18  1  0.000000  0.000000  0.499350  1
  Sc  Sc19  1  0.000000  0.000000  0.000650  1
  Cd  Cd20  1  0.889263  0.110737  0.250000  1
  Cd  Cd21  1  0.889263  0.778527  0.250000  1
  Cd  Cd22  1  0.221473  0.110737  0.250000  1
  Cd  Cd23  1  0.110877  0.889123  0.750000  1
  Cd  Cd24  1  0.110877  0.221754  0.750000  1
  Cd  Cd25  1  0.778246  0.889123  0.750000  1
  Co  Co26  1  0.333333  0.666667  0.250000  1
  Ni  Ni27  1  0.666667  0.333333  0.750000  1
