# generated using pymatgen
data_Tm6Co14P12RuRh3
_symmetry_space_group_name_H-M   'P 1'
_cell_length_a   3.68243500
_cell_length_b   10.59588300
_cell_length_c   12.28148700
_cell_angle_alpha   90.00000000
_cell_angle_beta   90.00000000
_cell_angle_gamma   90.00000000
_symmetry_Int_Tables_number   1
_chemical_formula_structural   Tm6Co14P12RuRh3
_chemical_formula_sum   'Tm6 Co14 P12 Ru1 Rh3'
_cell_volume   479.20704783
_cell_formula_units_Z   1
loop_
 _symmetry_equiv_pos_site_id
 _symmetry_equiv_pos_as_xyz
  1  'x, y, z'
loop_
 _atom_site_type_symbol
 _atom_site_label
 _atom_site_symmetry_multiplicity
 _atom_site_fract_x
 _atom_site_fract_y
 _atom_site_fract_z
 _atom_site_occupancy
  Tm  Tm0  1  0.000000  0.500000  0.520530  1
  Tm  Tm1  1  0.500000  0.000000  0.479326  1
  Tm  Tm2  1  0.500000  0.813670  0.205997  1
  Tm  Tm3  1  0.500000  0.186330  0.205997  1
  Tm  Tm4  1  0.000000  0.685523  0.794387  1
  Tm  Tm5  1  0.000000  0.314477  0.794387  1
  Co  Co6  1  0.000000  0.500000  0.989043  1
  Co  Co7  1  0.500000  0.000000  0.011745  1
  Co  Co8  1  0.500000  0.332526  0.993174  1
  Co  Co9  1  0.500000  0.667474  0.993174  1
  Co  Co10  1  0.000000  0.169147  0.007369  1
  Co  Co11  1  0.000000  0.830853  0.007369  1
  Co  Co12  1  0.500000  0.300563  0.429422  1
  Co  Co13  1  0.500000  0.699437  0.429422  1
  Co  Co14  1  0.000000  0.199970  0.569516  1
  Co  Co15  1  0.000000  0.800030  0.569516  1
  Co  Co16  1  0.500000  0.879263  0.709285  1
  Co  Co17  1  0.500000  0.120737  0.709285  1
  Co  Co18  1  0.000000  0.619809  0.290918  1
  Co  Co19  1  0.000000  0.380191  0.290918  1
  P  P20  1  0.500000  0.500000  0.888843  1
  P  P21  1  0.000000  0.000000  0.110454  1
  P  P22  1  0.500000  0.500000  0.350423  1
  P  P23  1  0.000000  0.000000  0.648266  1
  P  P24  1  0.500000  0.303919  0.613828  1
  P  P25  1  0.500000  0.696081  0.613828  1
  P  P26  1  0.000000  0.196169  0.385822  1
  P  P27  1  0.000000  0.803831  0.385822  1
  P  P28  1  0.500000  0.843916  0.893507  1
  P  P29  1  0.500000  0.156084  0.893507  1
  P  P30  1  0.000000  0.654523  0.107814  1
  P  P31  1  0.000000  0.345477  0.107814  1
  Ru  Ru32  1  0.500000  0.500000  0.160109  1
  Rh  Rh33  1  0.000000  0.000000  0.839573  1
  Rh  Rh34  1  0.500000  0.500000  0.703027  1
  Rh  Rh35  1  0.000000  0.000000  0.296587  1
