# generated using pymatgen
data_Y2UFe2Ge7
_symmetry_space_group_name_H-M   'P 1'
_cell_length_a   12.47984389
_cell_length_b   12.47984353
_cell_length_c   4.17798200
_cell_angle_alpha   90.00000000
_cell_angle_beta   90.00000000
_cell_angle_gamma   160.30666516
_symmetry_Int_Tables_number   1
_chemical_formula_structural   Y2UFe2Ge7
_chemical_formula_sum   'Y2 U1 Fe2 Ge7'
_cell_volume   219.27866360
_cell_formula_units_Z   1
loop_
 _symmetry_equiv_pos_site_id
 _symmetry_equiv_pos_as_xyz
  1  'x, y, z'
loop_
 _atom_site_type_symbol
 _atom_site_label
 _atom_site_symmetry_multiplicity
 _atom_site_fract_x
 _atom_site_fract_y
 _atom_site_fract_z
 _atom_site_occupancy
  Y  Y0  1  0.315573  0.684427  0.500000  1
  Y  Y1  1  0.684427  0.315573  0.500000  1
  U  U2  1  0.000000  0.000000  0.000000  1
  Fe  Fe3  1  0.125001  0.874999  0.000000  1
  Fe  Fe4  1  0.874999  0.125001  0.000000  1
  Ge  Ge5  1  0.500000  0.500000  0.500000  1
  Ge  Ge6  1  0.220129  0.779871  0.000000  1
  Ge  Ge7  1  0.779871  0.220129  0.000000  1
  Ge  Ge8  1  0.413096  0.586904  0.000000  1
  Ge  Ge9  1  0.586904  0.413096  0.000000  1
  Ge  Ge10  1  0.085915  0.914085  0.500000  1
  Ge  Ge11  1  0.914085  0.085915  0.500000  1
