# generated using pymatgen
data_CeNd3Cd2Ni3Au
_symmetry_space_group_name_H-M   'P 1'
_cell_length_a   7.72318379
_cell_length_b   7.72318383
_cell_length_c   3.75668600
_cell_angle_alpha   90.00000000
_cell_angle_beta   90.00000000
_cell_angle_gamma   90.02879206
_symmetry_Int_Tables_number   1
_chemical_formula_structural   CeNd3Cd2Ni3Au
_chemical_formula_sum   'Ce1 Nd3 Cd2 Ni3 Au1'
_cell_volume   224.07715596
_cell_formula_units_Z   1
loop_
 _symmetry_equiv_pos_site_id
 _symmetry_equiv_pos_as_xyz
  1  'x, y, z'
loop_
 _atom_site_type_symbol
 _atom_site_label
 _atom_site_symmetry_multiplicity
 _atom_site_fract_x
 _atom_site_fract_y
 _atom_site_fract_z
 _atom_site_occupancy
  Ce  Ce0  1  0.675264  0.175264  0.500000  1
  Nd  Nd1  1  0.341214  0.841214  0.500000  1
  Nd  Nd2  1  0.172833  0.308919  0.500000  1
  Nd  Nd3  1  0.808919  0.672833  0.500000  1
  Cd  Cd4  1  0.993577  0.000876  0.000000  1
  Cd  Cd5  1  0.500876  0.493577  0.000000  1
  Ni  Ni6  1  0.859646  0.359646  0.000000  1
  Ni  Ni7  1  0.629858  0.898985  0.000000  1
  Ni  Ni8  1  0.398985  0.129858  0.000000  1
  Au  Au9  1  0.118827  0.618827  0.000000  1
