# generated using pymatgen
data_Dy3Er7TlSb5
_symmetry_space_group_name_H-M   'P 1'
_cell_length_a   8.93488100
_cell_length_b   8.90132387
_cell_length_c   6.33440500
_cell_angle_alpha   90.00000000
_cell_angle_beta   90.00000000
_cell_angle_gamma   119.88910936
_symmetry_Int_Tables_number   1
_chemical_formula_structural   Dy3Er7TlSb5
_chemical_formula_sum   'Dy3 Er7 Tl1 Sb5'
_cell_volume   436.78129836
_cell_formula_units_Z   1
loop_
 _symmetry_equiv_pos_site_id
 _symmetry_equiv_pos_as_xyz
  1  'x, y, z'
loop_
 _atom_site_type_symbol
 _atom_site_label
 _atom_site_symmetry_multiplicity
 _atom_site_fract_x
 _atom_site_fract_y
 _atom_site_fract_z
 _atom_site_occupancy
  Dy  Dy0  1  0.004142  0.759732  0.750000  1
  Dy  Dy1  1  0.997808  0.243498  0.250000  1
  Dy  Dy2  1  0.753096  0.755295  0.250000  1
  Er  Er3  1  0.756514  0.000392  0.750000  1
  Er  Er4  1  0.246586  0.242719  0.750000  1
  Er  Er5  1  0.242723  0.999529  0.250000  1
  Er  Er6  1  0.333346  0.668226  0.498940  1
  Er  Er7  1  0.665393  0.331622  0.001372  1
  Er  Er8  1  0.665393  0.331622  0.498628  1
  Er  Er9  1  0.333346  0.668226  0.001060  1
  Tl  Tl10  1  0.394879  0.999935  0.750000  1
  Sb  Sb11  1  0.388634  0.389023  0.250000  1
  Sb  Sb12  1  0.998855  0.609810  0.250000  1
  Sb  Sb13  1  0.000889  0.390052  0.750000  1
  Sb  Sb14  1  0.610900  0.610633  0.750000  1
  Sb  Sb15  1  0.607495  0.999686  0.250000  1
