# generated using pymatgen
data_Dy7Y9Cd4NiIr3
_symmetry_space_group_name_H-M   'P 1'
_cell_length_a   9.61486178
_cell_length_b   9.65771332
_cell_length_c   9.66809891
_cell_angle_alpha   59.94604911
_cell_angle_beta   59.76707120
_cell_angle_gamma   59.83028916
_symmetry_Int_Tables_number   1
_chemical_formula_structural   Dy7Y9Cd4NiIr3
_chemical_formula_sum   'Dy7 Y9 Cd4 Ni1 Ir3'
_cell_volume   632.61372985
_cell_formula_units_Z   1
loop_
 _symmetry_equiv_pos_site_id
 _symmetry_equiv_pos_as_xyz
  1  'x, y, z'
loop_
 _atom_site_type_symbol
 _atom_site_label
 _atom_site_symmetry_multiplicity
 _atom_site_fract_x
 _atom_site_fract_y
 _atom_site_fract_z
 _atom_site_occupancy
  Dy  Dy0  1  0.601216  0.596239  0.596498  1
  Dy  Dy1  1  0.602079  0.598063  0.203773  1
  Dy  Dy2  1  0.602704  0.203117  0.598098  1
  Dy  Dy3  1  0.202967  0.599857  0.599420  1
  Dy  Dy4  1  0.058449  0.439456  0.439604  1
  Dy  Dy5  1  0.436935  0.060770  0.060415  1
  Dy  Dy6  1  0.438642  0.059933  0.440575  1
  Y  Y7  1  0.059000  0.438621  0.061178  1
  Y  Y8  1  0.438781  0.440786  0.059602  1
  Y  Y9  1  0.058900  0.061486  0.438447  1
  Y  Y10  1  0.188727  0.812487  0.812259  1
  Y  Y11  1  0.809962  0.186951  0.187153  1
  Y  Y12  1  0.810858  0.187990  0.815953  1
  Y  Y13  1  0.188679  0.811146  0.188390  1
  Y  Y14  1  0.810399  0.815749  0.188539  1
  Y  Y15  1  0.189071  0.188472  0.810630  1
  Cd  Cd16  1  0.829096  0.830421  0.830534  1
  Cd  Cd17  1  0.830004  0.831182  0.506590  1
  Cd  Cd18  1  0.829676  0.506632  0.831310  1
  Cd  Cd19  1  0.506489  0.830591  0.831000  1
  Ni  Ni20  1  0.825791  0.393044  0.391625  1
  Ir  Ir21  1  0.392842  0.391410  0.393517  1
  Ir  Ir22  1  0.394091  0.391588  0.823034  1
  Ir  Ir23  1  0.394643  0.824007  0.391850  1
