# generated using pymatgen
data_Zr16FeCo3Rh4
_symmetry_space_group_name_H-M   'P 1'
_cell_length_a   8.70153944
_cell_length_b   8.70153986
_cell_length_c   8.70153971
_cell_angle_alpha   59.94110491
_cell_angle_beta   59.94110595
_cell_angle_gamma   59.94110796
_symmetry_Int_Tables_number   1
_chemical_formula_structural   Zr16FeCo3Rh4
_chemical_formula_sum   'Zr16 Fe1 Co3 Rh4'
_cell_volume   465.25689057
_cell_formula_units_Z   1
loop_
 _symmetry_equiv_pos_site_id
 _symmetry_equiv_pos_as_xyz
  1  'x, y, z'
loop_
 _atom_site_type_symbol
 _atom_site_label
 _atom_site_symmetry_multiplicity
 _atom_site_fract_x
 _atom_site_fract_y
 _atom_site_fract_z
 _atom_site_occupancy
  Zr  Zr0  1  0.687102  0.104291  0.104291  1
  Zr  Zr1  1  0.104291  0.687102  0.104291  1
  Zr  Zr2  1  0.104291  0.104291  0.687102  1
  Zr  Zr3  1  0.104422  0.104422  0.104422  1
  Zr  Zr4  1  0.313479  0.313479  0.686483  1
  Zr  Zr5  1  0.687204  0.687204  0.312734  1
  Zr  Zr6  1  0.313479  0.686483  0.313479  1
  Zr  Zr7  1  0.687204  0.312734  0.687204  1
  Zr  Zr8  1  0.686483  0.313479  0.313479  1
  Zr  Zr9  1  0.312734  0.687204  0.687204  1
  Zr  Zr10  1  0.943285  0.943285  0.558011  1
  Zr  Zr11  1  0.556022  0.556022  0.944071  1
  Zr  Zr12  1  0.943285  0.558011  0.943285  1
  Zr  Zr13  1  0.556022  0.944071  0.556022  1
  Zr  Zr14  1  0.558011  0.943285  0.943285  1
  Zr  Zr15  1  0.944071  0.556022  0.556022  1
  Fe  Fe16  1  0.892558  0.892558  0.892558  1
  Co  Co17  1  0.322283  0.892286  0.892286  1
  Co  Co18  1  0.892286  0.322283  0.892286  1
  Co  Co19  1  0.892286  0.892286  0.322283  1
  Rh  Rh20  1  0.997531  0.333849  0.333849  1
  Rh  Rh21  1  0.333849  0.997531  0.333849  1
  Rh  Rh22  1  0.333849  0.333849  0.997531  1
  Rh  Rh23  1  0.333970  0.333970  0.333970  1
