# generated using pymatgen
data_Th6ZnCo5Sb8
_symmetry_space_group_name_H-M   'P 1'
_cell_length_a   8.36664817
_cell_length_b   8.36664901
_cell_length_c   8.36664850
_cell_angle_alpha   109.20685437
_cell_angle_beta   109.20685966
_cell_angle_gamma   110.00125085
_symmetry_Int_Tables_number   1
_chemical_formula_structural   Th6ZnCo5Sb8
_chemical_formula_sum   'Th6 Zn1 Co5 Sb8'
_cell_volume   450.82167562
_cell_formula_units_Z   1
loop_
 _symmetry_equiv_pos_site_id
 _symmetry_equiv_pos_as_xyz
  1  'x, y, z'
loop_
 _atom_site_type_symbol
 _atom_site_label
 _atom_site_symmetry_multiplicity
 _atom_site_fract_x
 _atom_site_fract_y
 _atom_site_fract_z
 _atom_site_occupancy
  Th  Th0  1  0.381406  0.262618  0.637620  1
  Th  Th1  1  0.737382  0.875002  0.118788  1
  Th  Th2  1  0.256214  0.618594  0.381212  1
  Th  Th3  1  0.625000  0.375000  0.250000  1
  Th  Th4  1  0.875000  0.125000  0.750000  1
  Th  Th5  1  0.124998  0.743786  0.862380  1
  Zn  Zn6  1  0.125000  0.875000  0.250000  1
  Co  Co7  1  0.622545  0.749166  0.371940  1
  Co  Co8  1  0.877226  0.250605  0.128060  1
  Co  Co9  1  0.250834  0.122774  0.873379  1
  Co  Co10  1  0.749395  0.377455  0.626621  1
  Co  Co11  1  0.375000  0.625000  0.750000  1
  Sb  Sb12  1  0.998877  0.335458  0.498726  1
  Sb  Sb13  1  0.832943  0.489124  0.992950  1
  Sb  Sb14  1  0.499848  0.001123  0.836581  1
  Sb  Sb15  1  0.664542  0.663268  0.663419  1
  Sb  Sb16  1  0.160006  0.167057  0.156181  1
  Sb  Sb17  1  0.336732  0.500152  0.001274  1
  Sb  Sb18  1  0.510876  0.003825  0.343819  1
  Sb  Sb19  1  0.996175  0.839994  0.507050  1
