# generated using pymatgen
data_La3ZnPt3Rh5
_symmetry_space_group_name_H-M   'P 1'
_cell_length_a   5.48321200
_cell_length_b   5.47595071
_cell_length_c   17.49365400
_cell_angle_alpha   90.00000000
_cell_angle_beta   90.00000000
_cell_angle_gamma   120.04386240
_symmetry_Int_Tables_number   1
_chemical_formula_structural   La3ZnPt3Rh5
_chemical_formula_sum   'La6 Zn2 Pt6 Rh10'
_cell_volume   454.68812327
_cell_formula_units_Z   2
loop_
 _symmetry_equiv_pos_site_id
 _symmetry_equiv_pos_as_xyz
  1  'x, y, z'
loop_
 _atom_site_type_symbol
 _atom_site_label
 _atom_site_symmetry_multiplicity
 _atom_site_fract_x
 _atom_site_fract_y
 _atom_site_fract_z
 _atom_site_occupancy
  La  La0  1  0.333616  0.667232  0.541167  1
  La  La1  1  0.666384  0.332768  0.041167  1
  La  La2  1  0.666885  0.333769  0.457428  1
  La  La3  1  0.333115  0.666231  0.957428  1
  La  La4  1  0.333336  0.666673  0.750597  1
  La  La5  1  0.666664  0.333327  0.250597  1
  Zn  Zn6  1  0.998357  0.996714  0.250674  1
  Zn  Zn7  1  0.001643  0.003286  0.750674  1
  Pt  Pt8  1  0.167500  0.334999  0.126813  1
  Pt  Pt9  1  0.832500  0.665001  0.626813  1
  Pt  Pt10  1  0.333840  0.667682  0.250725  1
  Pt  Pt11  1  0.666160  0.332318  0.750725  1
  Pt  Pt12  1  0.998928  0.997856  0.999157  1
  Pt  Pt13  1  0.001072  0.002144  0.499157  1
  Rh  Rh14  1  0.665972  0.833669  0.126973  1
  Rh  Rh15  1  0.167698  0.833669  0.126973  1
  Rh  Rh16  1  0.832302  0.166331  0.626973  1
  Rh  Rh17  1  0.334028  0.166331  0.626973  1
  Rh  Rh18  1  0.833027  0.666054  0.873329  1
  Rh  Rh19  1  0.831612  0.166237  0.873081  1
  Rh  Rh20  1  0.334623  0.166237  0.873081  1
  Rh  Rh21  1  0.665377  0.833763  0.373081  1
  Rh  Rh22  1  0.168388  0.833763  0.373081  1
  Rh  Rh23  1  0.166973  0.333946  0.373329  1
