# generated using pymatgen
data_CaCe3(WN3)4
_symmetry_space_group_name_H-M   'P 1'
_cell_length_a   5.53013171
_cell_length_b   5.63005398
_cell_length_c   7.89288500
_cell_angle_alpha   90.00000000
_cell_angle_beta   90.00000000
_cell_angle_gamma   89.81839926
_symmetry_Int_Tables_number   1
_chemical_formula_structural   CaCe3(WN3)4
_chemical_formula_sum   'Ca1 Ce3 W4 N12'
_cell_volume   245.74326706
_cell_formula_units_Z   1
loop_
 _symmetry_equiv_pos_site_id
 _symmetry_equiv_pos_as_xyz
  1  'x, y, z'
loop_
 _atom_site_type_symbol
 _atom_site_label
 _atom_site_symmetry_multiplicity
 _atom_site_fract_x
 _atom_site_fract_y
 _atom_site_fract_z
 _atom_site_occupancy
  Ca  Ca0  1  0.994890  0.042502  0.750000  1
  Ce  Ce1  1  0.496902  0.451013  0.250000  1
  Ce  Ce2  1  0.006809  0.953012  0.250000  1
  Ce  Ce3  1  0.501859  0.547259  0.750000  1
  W  W4  1  0.506937  0.999675  0.503393  1
  W  W5  1  0.001994  0.496742  0.998830  1
  W  W6  1  0.001994  0.496742  0.501170  1
  W  W7  1  0.506937  0.999675  0.996607  1
  N  N8  1  0.695975  0.303180  0.535652  1
  N  N9  1  0.297864  0.701394  0.038884  1
  N  N10  1  0.201192  0.204072  0.048041  1
  N  N11  1  0.428766  0.987667  0.750000  1
  N  N12  1  0.920593  0.519693  0.250000  1
  N  N13  1  0.297864  0.701394  0.461116  1
  N  N14  1  0.793180  0.794222  0.963833  1
  N  N15  1  0.695975  0.303180  0.964348  1
  N  N16  1  0.793180  0.794222  0.536167  1
  N  N17  1  0.075195  0.480232  0.750000  1
  N  N18  1  0.201192  0.204072  0.451959  1
  N  N19  1  0.580702  0.020050  0.250000  1
