# generated using pymatgen
data_YbThB6Os
_symmetry_space_group_name_H-M   'P 1'
_cell_length_a   3.75058800
_cell_length_b   9.22217000
_cell_length_c   11.57470200
_cell_angle_alpha   90.00000000
_cell_angle_beta   90.00000000
_cell_angle_gamma   90.00000000
_symmetry_Int_Tables_number   1
_chemical_formula_structural   YbThB6Os
_chemical_formula_sum   'Yb4 Th4 B24 Os4'
_cell_volume   400.35227618
_cell_formula_units_Z   4
loop_
 _symmetry_equiv_pos_site_id
 _symmetry_equiv_pos_as_xyz
  1  'x, y, z'
loop_
 _atom_site_type_symbol
 _atom_site_label
 _atom_site_symmetry_multiplicity
 _atom_site_fract_x
 _atom_site_fract_y
 _atom_site_fract_z
 _atom_site_occupancy
  Yb  Yb0  1  0.000000  0.945815  0.375862  1
  Yb  Yb1  1  0.000000  0.054185  0.624138  1
  Yb  Yb2  1  0.000000  0.445815  0.124138  1
  Yb  Yb3  1  0.000000  0.554185  0.875862  1
  Th  Th4  1  0.000000  0.321359  0.412981  1
  Th  Th5  1  0.000000  0.678641  0.587019  1
  Th  Th6  1  0.000000  0.821359  0.087019  1
  Th  Th7  1  0.000000  0.178641  0.912981  1
  B  B8  1  0.500000  0.556672  0.429310  1
  B  B9  1  0.500000  0.443328  0.570690  1
  B  B10  1  0.500000  0.056672  0.070690  1
  B  B11  1  0.500000  0.943328  0.929310  1
  B  B12  1  0.500000  0.750842  0.418861  1
  B  B13  1  0.500000  0.249158  0.581139  1
  B  B14  1  0.500000  0.250842  0.081139  1
  B  B15  1  0.500000  0.749158  0.918861  1
  B  B16  1  0.500000  0.790754  0.268347  1
  B  B17  1  0.500000  0.209246  0.731653  1
  B  B18  1  0.500000  0.290754  0.231653  1
  B  B19  1  0.500000  0.709246  0.768347  1
  B  B20  1  0.500000  0.630840  0.184895  1
  B  B21  1  0.500000  0.369160  0.815105  1
  B  B22  1  0.500000  0.130840  0.315105  1
  B  B23  1  0.500000  0.869160  0.684895  1
  B  B24  1  0.500000  0.986105  0.215346  1
  B  B25  1  0.500000  0.013895  0.784654  1
  B  B26  1  0.500000  0.486105  0.284654  1
  B  B27  1  0.500000  0.513895  0.715346  1
  B  B28  1  0.500000  0.607051  0.029561  1
  B  B29  1  0.500000  0.392949  0.970439  1
  B  B30  1  0.500000  0.107051  0.470439  1
  B  B31  1  0.500000  0.892949  0.529561  1
  Os  Os32  1  0.000000  0.639489  0.320273  1
  Os  Os33  1  0.000000  0.360511  0.679727  1
  Os  Os34  1  0.000000  0.139489  0.179727  1
  Os  Os35  1  0.000000  0.860511  0.820273  1
