# generated using pymatgen
data_Sr2Ca6Ta3NbO18
_symmetry_space_group_name_H-M   'P 1'
_cell_length_a   5.74508000
_cell_length_b   5.74508057
_cell_length_c   15.25690200
_cell_angle_alpha   90.00001995
_cell_angle_beta   90.00001995
_cell_angle_gamma   120.00005429
_symmetry_Int_Tables_number   1
_chemical_formula_structural   Sr2Ca6Ta3NbO18
_chemical_formula_sum   'Sr2 Ca6 Ta3 Nb1 O18'
_cell_volume   436.10288041
_cell_formula_units_Z   1
loop_
 _symmetry_equiv_pos_site_id
 _symmetry_equiv_pos_as_xyz
  1  'x, y, z'
loop_
 _atom_site_type_symbol
 _atom_site_label
 _atom_site_symmetry_multiplicity
 _atom_site_fract_x
 _atom_site_fract_y
 _atom_site_fract_z
 _atom_site_occupancy
  Sr  Sr0  1  0.999999  0.999999  0.251118  1
  Sr  Sr1  1  0.000001  0.000001  0.749548  1
  Ca  Ca2  1  0.666665  0.333333  0.142666  1
  Ca  Ca3  1  0.333334  0.666667  0.642650  1
  Ca  Ca4  1  0.333335  0.666667  0.859071  1
  Ca  Ca5  1  0.666666  0.333333  0.357498  1
  Ca  Ca6  1  0.000000  0.000000  0.999114  1
  Ca  Ca7  1  0.000000  0.000000  0.499476  1
  Ta  Ta8  1  0.666667  0.333334  0.651021  1
  Ta  Ta9  1  0.666668  0.333334  0.850539  1
  Ta  Ta10  1  0.333333  0.666666  0.348168  1
  Nb  Nb11  1  0.333332  0.666666  0.147590  1
  O  O12  1  0.057310  0.343779  0.096539  1
  O  O13  1  0.344651  0.284883  0.598784  1
  O  O14  1  0.654949  0.715371  0.401407  1
  O  O15  1  0.447805  0.030637  0.750957  1
  O  O16  1  0.418098  0.446648  0.249593  1
  O  O17  1  0.345878  0.286597  0.903233  1
  O  O18  1  0.286468  0.942688  0.096539  1
  O  O19  1  0.582832  0.552197  0.750957  1
  O  O20  1  0.940719  0.654123  0.903233  1
  O  O21  1  0.969361  0.417168  0.750957  1
  O  O22  1  0.028552  0.581902  0.249593  1
  O  O23  1  0.553350  0.971450  0.249593  1
  O  O24  1  0.284628  0.939577  0.401407  1
  O  O25  1  0.060421  0.345051  0.401407  1
  O  O26  1  0.715118  0.059769  0.598784  1
  O  O27  1  0.713405  0.059283  0.903233  1
  O  O28  1  0.940233  0.655349  0.598784  1
  O  O29  1  0.656220  0.713530  0.096539  1
