# generated using pymatgen
data_TbNd8LuPb6
_symmetry_space_group_name_H-M   'P 1'
_cell_length_a   9.31342000
_cell_length_b   9.31341973
_cell_length_c   6.83352700
_cell_angle_alpha   90.00000000
_cell_angle_beta   90.00000000
_cell_angle_gamma   120.00000097
_symmetry_Int_Tables_number   1
_chemical_formula_structural   TbNd8LuPb6
_chemical_formula_sum   'Tb1 Nd8 Lu1 Pb6'
_cell_volume   513.32676164
_cell_formula_units_Z   1
loop_
 _symmetry_equiv_pos_site_id
 _symmetry_equiv_pos_as_xyz
  1  'x, y, z'
loop_
 _atom_site_type_symbol
 _atom_site_label
 _atom_site_symmetry_multiplicity
 _atom_site_fract_x
 _atom_site_fract_y
 _atom_site_fract_z
 _atom_site_occupancy
  Tb  Tb0  1  0.666667  0.333333  0.000000  1
  Nd  Nd1  1  0.333333  0.666667  0.500000  1
  Nd  Nd2  1  0.666667  0.333333  0.500000  1
  Nd  Nd3  1  0.759453  0.759702  0.751759  1
  Nd  Nd4  1  0.240298  0.999752  0.751759  1
  Nd  Nd5  1  0.000248  0.240547  0.751759  1
  Nd  Nd6  1  0.240298  0.240547  0.248241  1
  Nd  Nd7  1  0.759453  0.999752  0.248241  1
  Nd  Nd8  1  0.000248  0.759702  0.248241  1
  Lu  Lu9  1  0.333333  0.666667  0.000000  1
  Pb  Pb10  1  0.395671  0.396453  0.756598  1
  Pb  Pb11  1  0.603547  0.999218  0.756598  1
  Pb  Pb12  1  0.000782  0.604329  0.756598  1
  Pb  Pb13  1  0.603547  0.604329  0.243402  1
  Pb  Pb14  1  0.395671  0.999218  0.243402  1
  Pb  Pb15  1  0.000782  0.396453  0.243402  1
