# generated using pymatgen
data_Rb6TlS4Br
_symmetry_space_group_name_H-M   'P 1'
_cell_length_a   10.87095500
_cell_length_b   10.87095558
_cell_length_c   8.10534000
_cell_angle_alpha   90.00000000
_cell_angle_beta   90.00000000
_cell_angle_gamma   120.00000736
_symmetry_Int_Tables_number   1
_chemical_formula_structural   Rb6TlS4Br
_chemical_formula_sum   'Rb12 Tl2 S8 Br2'
_cell_volume   829.53985415
_cell_formula_units_Z   2
loop_
 _symmetry_equiv_pos_site_id
 _symmetry_equiv_pos_as_xyz
  1  'x, y, z'
loop_
 _atom_site_type_symbol
 _atom_site_label
 _atom_site_symmetry_multiplicity
 _atom_site_fract_x
 _atom_site_fract_y
 _atom_site_fract_z
 _atom_site_occupancy
  Rb  Rb0  1  0.139447  0.860553  0.509812  1
  Rb  Rb1  1  0.721105  0.860553  0.509812  1
  Rb  Rb2  1  0.939532  0.469766  0.321276  1
  Rb  Rb3  1  0.530234  0.469766  0.321276  1
  Rb  Rb4  1  0.860553  0.721105  0.009812  1
  Rb  Rb5  1  0.278895  0.139447  0.009812  1
  Rb  Rb6  1  0.530234  0.060468  0.321276  1
  Rb  Rb7  1  0.139447  0.278895  0.509812  1
  Rb  Rb8  1  0.860553  0.139447  0.009812  1
  Rb  Rb9  1  0.060468  0.530234  0.821276  1
  Rb  Rb10  1  0.469766  0.939532  0.821276  1
  Rb  Rb11  1  0.469766  0.530234  0.821276  1
  Tl  Tl12  1  0.666667  0.333333  0.712845  1
  Tl  Tl13  1  0.333333  0.666667  0.212845  1
  S  S14  1  0.407976  0.203989  0.609413  1
  S  S15  1  0.592024  0.796011  0.109413  1
  S  S16  1  0.666667  0.333333  0.038200  1
  S  S17  1  0.796011  0.592024  0.609413  1
  S  S18  1  0.203989  0.407976  0.109413  1
  S  S19  1  0.333333  0.666667  0.538200  1
  S  S20  1  0.203989  0.796011  0.109413  1
  S  S21  1  0.796011  0.203989  0.609413  1
  Br  Br22  1  0.000000  0.000000  0.268053  1
  Br  Br23  1  0.000000  0.000000  0.768053  1
