# generated using pymatgen
data_Ca3In(BRh3)2
_symmetry_space_group_name_H-M   'P 1'
_cell_length_a   7.89417992
_cell_length_b   7.89418001
_cell_length_c   7.89418100
_cell_angle_alpha   41.31058125
_cell_angle_beta   41.31058051
_cell_angle_gamma   41.31057804
_symmetry_Int_Tables_number   1
_chemical_formula_structural   Ca3In(BRh3)2
_chemical_formula_sum   'Ca3 In1 B2 Rh6'
_cell_volume   193.66031820
_cell_formula_units_Z   1
loop_
 _symmetry_equiv_pos_site_id
 _symmetry_equiv_pos_as_xyz
  1  'x, y, z'
loop_
 _atom_site_type_symbol
 _atom_site_label
 _atom_site_symmetry_multiplicity
 _atom_site_fract_x
 _atom_site_fract_y
 _atom_site_fract_z
 _atom_site_occupancy
  Ca  Ca0  1  0.358664  0.358664  0.358664  1
  Ca  Ca1  1  0.500000  0.500000  0.500000  1
  Ca  Ca2  1  0.641336  0.641336  0.641336  1
  In  In3  1  0.000000  0.000000  0.000000  1
  B  B4  1  0.165649  0.165649  0.165649  1
  B  B5  1  0.834351  0.834351  0.834351  1
  Rh  Rh6  1  0.562023  0.067679  0.067679  1
  Rh  Rh7  1  0.067679  0.562023  0.067679  1
  Rh  Rh8  1  0.932321  0.932321  0.437976  1
  Rh  Rh9  1  0.067679  0.067679  0.562024  1
  Rh  Rh10  1  0.932321  0.437977  0.932321  1
  Rh  Rh11  1  0.437977  0.932321  0.932321  1
