# generated using pymatgen
data_Hf4Bi2Mo
_symmetry_space_group_name_H-M   'P 1'
_cell_length_a   8.36322855
_cell_length_b   8.36322719
_cell_length_c   8.36322886
_cell_angle_alpha   96.17756849
_cell_angle_beta   96.17756973
_cell_angle_gamma   141.70031583
_symmetry_Int_Tables_number   1
_chemical_formula_structural   Hf4Bi2Mo
_chemical_formula_sum   'Hf8 Bi4 Mo2'
_cell_volume   342.47824699
_cell_formula_units_Z   2
loop_
 _symmetry_equiv_pos_site_id
 _symmetry_equiv_pos_as_xyz
  1  'x, y, z'
loop_
 _atom_site_type_symbol
 _atom_site_label
 _atom_site_symmetry_multiplicity
 _atom_site_fract_x
 _atom_site_fract_y
 _atom_site_fract_z
 _atom_site_occupancy
  Hf  Hf0  1  0.084778  0.201330  0.286107  1
  Hf  Hf1  1  0.915222  0.798670  0.713893  1
  Hf  Hf2  1  0.798670  0.084778  0.883448  1
  Hf  Hf3  1  0.415222  0.701330  0.116552  1
  Hf  Hf4  1  0.201330  0.915222  0.116552  1
  Hf  Hf5  1  0.584778  0.298670  0.883448  1
  Hf  Hf6  1  0.701330  0.584778  0.286107  1
  Hf  Hf7  1  0.298670  0.415222  0.713893  1
  Bi  Bi8  1  0.138072  0.638072  0.776143  1
  Bi  Bi9  1  0.861928  0.361928  0.223857  1
  Bi  Bi10  1  0.361928  0.138072  0.500000  1
  Bi  Bi11  1  0.638072  0.861928  0.500000  1
  Mo  Mo12  1  0.250000  0.250000  0.000000  1
  Mo  Mo13  1  0.750000  0.750000  0.000000  1
