# generated using pymatgen
data_Ce2NiB8Os
_symmetry_space_group_name_H-M   'P 1'
_cell_length_a   6.96902740
_cell_length_b   6.96876100
_cell_length_c   6.96902756
_cell_angle_alpha   110.92455409
_cell_angle_beta   113.55498111
_cell_angle_gamma   104.07876110
_symmetry_Int_Tables_number   1
_chemical_formula_structural   Ce2NiB8Os
_chemical_formula_sum   'Ce4 Ni2 B16 Os2'
_cell_volume   258.67724426
_cell_formula_units_Z   2
loop_
 _symmetry_equiv_pos_site_id
 _symmetry_equiv_pos_as_xyz
  1  'x, y, z'
loop_
 _atom_site_type_symbol
 _atom_site_label
 _atom_site_symmetry_multiplicity
 _atom_site_fract_x
 _atom_site_fract_y
 _atom_site_fract_z
 _atom_site_occupancy
  Ce  Ce0  1  0.793632  0.793624  0.999992  1
  Ce  Ce1  1  0.206368  0.206376  0.000008  1
  Ce  Ce2  1  0.760083  0.260087  0.500004  1
  Ce  Ce3  1  0.239917  0.739913  0.499996  1
  Ni  Ni4  1  0.499761  0.746453  0.246693  1
  Ni  Ni5  1  0.500239  0.253547  0.753307  1
  B  B6  1  0.271046  0.107426  0.378472  1
  B  B7  1  0.728954  0.892574  0.621528  1
  B  B8  1  0.271046  0.892574  0.163620  1
  B  B9  1  0.728954  0.107426  0.836380  1
  B  B10  1  0.111696  0.730189  0.841862  1
  B  B11  1  0.888304  0.269811  0.158138  1
  B  B12  1  0.111673  0.269811  0.381506  1
  B  B13  1  0.888327  0.730189  0.618494  1
  B  B14  1  0.116046  0.110114  0.529641  1
  B  B15  1  0.580454  0.586403  0.470357  1
  B  B16  1  0.116047  0.586403  0.005949  1
  B  B17  1  0.580472  0.110114  0.994068  1
  B  B18  1  0.883954  0.889886  0.470359  1
  B  B19  1  0.419546  0.413597  0.529643  1
  B  B20  1  0.883953  0.413597  0.994051  1
  B  B21  1  0.419528  0.889886  0.005932  1
  Os  Os22  1  0.282240  0.500000  0.782240  1
  Os  Os23  1  0.717760  0.500000  0.217760  1
