# generated using pymatgen
data_Sc16Ga6NiOs
_symmetry_space_group_name_H-M   'P 1'
_cell_length_a   9.30085500
_cell_length_b   9.30285704
_cell_length_c   6.47483200
_cell_angle_alpha   90.00437285
_cell_angle_beta   90.00115197
_cell_angle_gamma   120.00484652
_symmetry_Int_Tables_number   1
_chemical_formula_structural   Sc16Ga6NiOs
_chemical_formula_sum   'Sc16 Ga6 Ni1 Os1'
_cell_volume   485.15123708
_cell_formula_units_Z   1
loop_
 _symmetry_equiv_pos_site_id
 _symmetry_equiv_pos_as_xyz
  1  'x, y, z'
loop_
 _atom_site_type_symbol
 _atom_site_label
 _atom_site_symmetry_multiplicity
 _atom_site_fract_x
 _atom_site_fract_y
 _atom_site_fract_z
 _atom_site_occupancy
  Sc  Sc0  1  0.174150  0.825815  0.502110  1
  Sc  Sc1  1  0.651581  0.825792  0.502259  1
  Sc  Sc2  1  0.174031  0.348108  0.502124  1
  Sc  Sc3  1  0.829666  0.170386  0.003735  1
  Sc  Sc4  1  0.340772  0.170395  0.003884  1
  Sc  Sc5  1  0.829695  0.659349  0.003756  1
  Sc  Sc6  1  0.333274  0.666595  0.837216  1
  Sc  Sc7  1  0.666676  0.333352  0.352129  1
  Sc  Sc8  1  0.471728  0.528218  0.207212  1
  Sc  Sc9  1  0.056425  0.528164  0.207163  1
  Sc  Sc10  1  0.471712  0.943379  0.207191  1
  Sc  Sc11  1  0.529274  0.470687  0.710762  1
  Sc  Sc12  1  0.941428  0.470725  0.710684  1
  Sc  Sc13  1  0.529302  0.058664  0.710815  1
  Sc  Sc14  1  0.999923  0.999969  0.234491  1
  Sc  Sc15  1  0.000004  0.999960  0.724646  1
  Ga  Ga16  1  0.166174  0.833971  0.958742  1
  Ga  Ga17  1  0.667833  0.833942  0.958787  1
  Ga  Ga18  1  0.166132  0.332172  0.958801  1
  Ga  Ga19  1  0.837158  0.162542  0.463545  1
  Ga  Ga20  1  0.325366  0.162609  0.463592  1
  Ga  Ga21  1  0.837292  0.674726  0.463561  1
  Ni  Ni22  1  0.333611  0.667003  0.441688  1
  Os  Os23  1  0.666791  0.333475  0.945951  1
