# generated using pymatgen
data_YErSc2(B6Ir)2
_symmetry_space_group_name_H-M   'P 1'
_cell_length_a   3.54371700
_cell_length_b   9.00213700
_cell_length_c   11.36824100
_cell_angle_alpha   90.00059650
_cell_angle_beta   90.00000000
_cell_angle_gamma   90.00000000
_symmetry_Int_Tables_number   1
_chemical_formula_structural   YErSc2(B6Ir)2
_chemical_formula_sum   'Y2 Er2 Sc4 B24 Ir4'
_cell_volume   362.65855083
_cell_formula_units_Z   2
loop_
 _symmetry_equiv_pos_site_id
 _symmetry_equiv_pos_as_xyz
  1  'x, y, z'
loop_
 _atom_site_type_symbol
 _atom_site_label
 _atom_site_symmetry_multiplicity
 _atom_site_fract_x
 _atom_site_fract_y
 _atom_site_fract_z
 _atom_site_occupancy
  Y  Y0  1  0.500000  0.319874  0.414123  1
  Y  Y1  1  0.500000  0.680126  0.585877  1
  Er  Er2  1  0.500000  0.180305  0.914219  1
  Er  Er3  1  0.500000  0.819695  0.085781  1
  Sc  Sc4  1  0.500000  0.445076  0.124070  1
  Sc  Sc5  1  0.500000  0.554924  0.875930  1
  Sc  Sc6  1  0.500000  0.054981  0.624489  1
  Sc  Sc7  1  0.500000  0.945019  0.375511  1
  B  B8  1  0.000000  0.099939  0.473000  1
  B  B9  1  0.000000  0.900061  0.527000  1
  B  B10  1  0.000000  0.399085  0.972762  1
  B  B11  1  0.000000  0.600915  0.027238  1
  B  B12  1  0.000000  0.129559  0.318156  1
  B  B13  1  0.000000  0.870441  0.681844  1
  B  B14  1  0.000000  0.369697  0.818921  1
  B  B15  1  0.000000  0.630303  0.181079  1
  B  B16  1  0.000000  0.054587  0.065244  1
  B  B17  1  0.000000  0.945413  0.934756  1
  B  B18  1  0.000000  0.445133  0.565980  1
  B  B19  1  0.000000  0.554867  0.434020  1
  B  B20  1  0.000000  0.481926  0.284683  1
  B  B21  1  0.000000  0.518074  0.715317  1
  B  B22  1  0.000000  0.018654  0.785483  1
  B  B23  1  0.000000  0.981346  0.214517  1
  B  B24  1  0.000000  0.253685  0.079792  1
  B  B25  1  0.000000  0.746315  0.920208  1
  B  B26  1  0.000000  0.245869  0.580702  1
  B  B27  1  0.000000  0.754131  0.419298  1
  B  B28  1  0.000000  0.295547  0.235039  1
  B  B29  1  0.000000  0.704453  0.764961  1
  B  B30  1  0.000000  0.204056  0.736133  1
  B  B31  1  0.000000  0.795944  0.263867  1
  Ir  Ir32  1  0.500000  0.140680  0.180732  1
  Ir  Ir33  1  0.500000  0.859320  0.819268  1
  Ir  Ir34  1  0.500000  0.357945  0.682365  1
  Ir  Ir35  1  0.500000  0.642055  0.317635  1
