# generated using pymatgen
data_Er4As6Ru4Rh3
_symmetry_space_group_name_H-M   'P 1'
_cell_length_a   7.21707070
_cell_length_b   7.21763632
_cell_length_c   7.21707053
_cell_angle_alpha   109.41501003
_cell_angle_beta   109.23537620
_cell_angle_gamma   109.76051485
_symmetry_Int_Tables_number   1
_chemical_formula_structural   Er4As6Ru4Rh3
_chemical_formula_sum   'Er4 As6 Ru4 Rh3'
_cell_volume   289.40280628
_cell_formula_units_Z   1
loop_
 _symmetry_equiv_pos_site_id
 _symmetry_equiv_pos_as_xyz
  1  'x, y, z'
loop_
 _atom_site_type_symbol
 _atom_site_label
 _atom_site_symmetry_multiplicity
 _atom_site_fract_x
 _atom_site_fract_y
 _atom_site_fract_z
 _atom_site_occupancy
  Er  Er0  1  0.499965  0.500151  0.499738  1
  Er  Er1  1  0.000412  0.500151  0.000186  1
  Er  Er2  1  0.500042  0.999803  0.000196  1
  Er  Er3  1  0.999607  0.999803  0.499761  1
  As  As4  1  0.681634  0.997125  0.678760  1
  As  As5  1  0.683690  0.685763  0.002074  1
  As  As6  1  0.316323  0.318556  0.002233  1
  As  As7  1  0.999925  0.682715  0.682790  1
  As  As8  1  0.000068  0.317115  0.317047  1
  As  As9  1  0.318365  0.997125  0.315491  1
  Ru  Ru10  1  0.500021  0.748583  0.248561  1
  Ru  Ru11  1  0.750372  0.250200  0.499828  1
  Ru  Ru12  1  0.249613  0.749486  0.499873  1
  Ru  Ru13  1  0.000012  0.999035  0.999024  1
  Rh  Rh14  1  0.250078  0.501622  0.751727  1
  Rh  Rh15  1  0.499976  0.251145  0.751169  1
  Rh  Rh16  1  0.749896  0.501622  0.251544  1
