# generated using pymatgen
data_Ho2(ZrSn)3
_symmetry_space_group_name_H-M   'P 1'
_cell_length_a   8.70032108
_cell_length_b   8.77771236
_cell_length_c   6.01355800
_cell_angle_alpha   90.00000000
_cell_angle_beta   90.00000000
_cell_angle_gamma   120.29469351
_symmetry_Int_Tables_number   1
_chemical_formula_structural   Ho2(ZrSn)3
_chemical_formula_sum   'Ho4 Zr6 Sn6'
_cell_volume   396.53491919
_cell_formula_units_Z   2
loop_
 _symmetry_equiv_pos_site_id
 _symmetry_equiv_pos_as_xyz
  1  'x, y, z'
loop_
 _atom_site_type_symbol
 _atom_site_label
 _atom_site_symmetry_multiplicity
 _atom_site_fract_x
 _atom_site_fract_y
 _atom_site_fract_z
 _atom_site_occupancy
  Ho  Ho0  1  0.761452  0.760907  0.250000  1
  Ho  Ho1  1  0.761452  0.000545  0.750000  1
  Ho  Ho2  1  0.238548  0.239093  0.750000  1
  Ho  Ho3  1  0.238548  0.999455  0.250000  1
  Zr  Zr4  1  0.000000  0.746669  0.750000  1
  Zr  Zr5  1  0.000000  0.253331  0.250000  1
  Zr  Zr6  1  0.332969  0.666485  0.500000  1
  Zr  Zr7  1  0.667031  0.333515  0.000000  1
  Zr  Zr8  1  0.667031  0.333515  0.500000  1
  Zr  Zr9  1  0.332969  0.666485  0.000000  1
  Sn  Sn10  1  0.392888  0.996063  0.750000  1
  Sn  Sn11  1  0.392888  0.396826  0.250000  1
  Sn  Sn12  1  0.000000  0.600278  0.250000  1
  Sn  Sn13  1  0.000000  0.399722  0.750000  1
  Sn  Sn14  1  0.607112  0.603174  0.750000  1
  Sn  Sn15  1  0.607112  0.003937  0.250000  1
