# generated using pymatgen
data_Ho8Ti9Nb(Si8Mo)2
_symmetry_space_group_name_H-M   'P 1'
_cell_length_a   7.01083745
_cell_length_b   7.01083740
_cell_length_c   12.89001161
_cell_angle_alpha   89.99360926
_cell_angle_beta   90.00638904
_cell_angle_gamma   89.99647572
_symmetry_Int_Tables_number   1
_chemical_formula_structural   Ho8Ti9Nb(Si8Mo)2
_chemical_formula_sum   'Ho8 Ti9 Nb1 Si16 Mo2'
_cell_volume   633.56779769
_cell_formula_units_Z   1
loop_
 _symmetry_equiv_pos_site_id
 _symmetry_equiv_pos_as_xyz
  1  'x, y, z'
loop_
 _atom_site_type_symbol
 _atom_site_label
 _atom_site_symmetry_multiplicity
 _atom_site_fract_x
 _atom_site_fract_y
 _atom_site_fract_z
 _atom_site_occupancy
  Ho  Ho0  1  0.340324  0.001848  0.466281  1
  Ho  Ho1  1  0.498772  0.841638  0.717443  1
  Ho  Ho2  1  0.500989  0.157876  0.217405  1
  Ho  Ho3  1  0.841638  0.498772  0.282557  1
  Ho  Ho4  1  0.157876  0.500989  0.782595  1
  Ho  Ho5  1  0.659632  0.998798  0.966412  1
  Ho  Ho6  1  0.001848  0.340324  0.533719  1
  Ho  Ho7  1  0.998798  0.659632  0.033588  1
  Ti  Ti8  1  0.673207  0.673207  0.500000  1
  Ti  Ti9  1  0.152045  0.008742  0.875579  1
  Ti  Ti10  1  0.491725  0.652067  0.125651  1
  Ti  Ti11  1  0.508139  0.346941  0.626065  1
  Ti  Ti12  1  0.652067  0.491725  0.874349  1
  Ti  Ti13  1  0.346941  0.508139  0.373935  1
  Ti  Ti14  1  0.848749  0.991985  0.374930  1
  Ti  Ti15  1  0.008742  0.152045  0.124421  1
  Ti  Ti16  1  0.991985  0.848749  0.625070  1
  Nb  Nb17  1  0.326613  0.326613  0.000000  1
  Si  Si18  1  0.201950  0.130096  0.684071  1
  Si  Si19  1  0.369001  0.703902  0.933759  1
  Si  Si20  1  0.630905  0.297250  0.434042  1
  Si  Si21  1  0.703902  0.369001  0.066241  1
  Si  Si22  1  0.297250  0.630905  0.565958  1
  Si  Si23  1  0.798399  0.869736  0.184597  1
  Si  Si24  1  0.130096  0.201950  0.315929  1
  Si  Si25  1  0.869736  0.798399  0.815403  1
  Si  Si26  1  0.291782  0.950894  0.065650  1
  Si  Si27  1  0.546659  0.791045  0.314660  1
  Si  Si28  1  0.454147  0.207916  0.813348  1
  Si  Si29  1  0.791045  0.546659  0.685340  1
  Si  Si30  1  0.207916  0.454147  0.186652  1
  Si  Si31  1  0.708222  0.047899  0.565679  1
  Si  Si32  1  0.950894  0.291782  0.934350  1
  Si  Si33  1  0.047899  0.708222  0.434321  1
  Mo  Mo34  1  0.173627  0.826478  0.250157  1
  Mo  Mo35  1  0.826478  0.173627  0.749843  1
