# generated using pymatgen
data_K6HoScF12
_symmetry_space_group_name_H-M   'P 1'
_cell_length_a   6.55027558
_cell_length_b   6.31995199
_cell_length_c   10.99686795
_cell_angle_alpha   55.33940658
_cell_angle_beta   89.78219994
_cell_angle_gamma   90.01182400
_symmetry_Int_Tables_number   1
_chemical_formula_structural   K6HoScF12
_chemical_formula_sum   'K6 Ho1 Sc1 F12'
_cell_volume   374.44842829
_cell_formula_units_Z   1
loop_
 _symmetry_equiv_pos_site_id
 _symmetry_equiv_pos_as_xyz
  1  'x, y, z'
loop_
 _atom_site_type_symbol
 _atom_site_label
 _atom_site_symmetry_multiplicity
 _atom_site_fract_x
 _atom_site_fract_y
 _atom_site_fract_z
 _atom_site_occupancy
  K  K0  1  0.500000  0.500000  0.000000  1
  K  K1  1  0.000000  0.500000  0.500000  1
  K  K2  1  0.052276  0.738608  0.748003  1
  K  K3  1  0.947724  0.261392  0.251997  1
  K  K4  1  0.549136  0.272770  0.740639  1
  K  K5  1  0.450864  0.727230  0.259361  1
  Ho  Ho6  1  0.000000  0.000000  0.000000  1
  Sc  Sc7  1  0.500000  0.000000  0.500000  1
  F  F8  1  0.758809  0.777606  0.561964  1
  F  F9  1  0.241191  0.222394  0.438036  1
  F  F10  1  0.275244  0.235827  0.931855  1
  F  F11  1  0.724756  0.764173  0.068145  1
  F  F12  1  0.451083  0.890016  0.712388  1
  F  F13  1  0.548917  0.109984  0.287612  1
  F  F14  1  0.947200  0.117409  0.774024  1
  F  F15  1  0.052800  0.882591  0.225976  1
  F  F16  1  0.330418  0.690605  0.545002  1
  F  F17  1  0.669582  0.309395  0.454998  1
  F  F18  1  0.824978  0.331553  0.950341  1
  F  F19  1  0.175022  0.668447  0.049659  1
