# generated using pymatgen
data_Ho2Al9Pd2Ru
_symmetry_space_group_name_H-M   'P 1'
_cell_length_a   7.60065503
_cell_length_b   7.60065417
_cell_length_c   9.48182500
_cell_angle_alpha   90.00000000
_cell_angle_beta   90.00000000
_cell_angle_gamma   119.33701433
_symmetry_Int_Tables_number   1
_chemical_formula_structural   Ho2Al9Pd2Ru
_chemical_formula_sum   'Ho4 Al18 Pd4 Ru2'
_cell_volume   477.51536435
_cell_formula_units_Z   2
loop_
 _symmetry_equiv_pos_site_id
 _symmetry_equiv_pos_as_xyz
  1  'x, y, z'
loop_
 _atom_site_type_symbol
 _atom_site_label
 _atom_site_symmetry_multiplicity
 _atom_site_fract_x
 _atom_site_fract_y
 _atom_site_fract_z
 _atom_site_occupancy
  Ho  Ho0  1  0.995564  0.670680  0.250000  1
  Ho  Ho1  1  0.004436  0.329320  0.750000  1
  Ho  Ho2  1  0.670680  0.995564  0.250000  1
  Ho  Ho3  1  0.329320  0.004436  0.750000  1
  Al  Al4  1  0.124270  0.124270  0.250000  1
  Al  Al5  1  0.875730  0.875730  0.750000  1
  Al  Al6  1  0.000284  0.329881  0.076483  1
  Al  Al7  1  0.999716  0.670119  0.923517  1
  Al  Al8  1  0.999716  0.670119  0.576483  1
  Al  Al9  1  0.329881  0.000284  0.423517  1
  Al  Al10  1  0.000284  0.329881  0.423517  1
  Al  Al11  1  0.670119  0.999716  0.576483  1
  Al  Al12  1  0.670119  0.999716  0.923517  1
  Al  Al13  1  0.329881  0.000284  0.076483  1
  Al  Al14  1  0.328075  0.328075  0.554927  1
  Al  Al15  1  0.671925  0.671926  0.445073  1
  Al  Al16  1  0.671925  0.671926  0.054927  1
  Al  Al17  1  0.328075  0.328075  0.945073  1
  Al  Al18  1  0.342020  0.547597  0.250000  1
  Al  Al19  1  0.657980  0.452403  0.750000  1
  Al  Al20  1  0.547597  0.342020  0.250000  1
  Al  Al21  1  0.452403  0.657980  0.750000  1
  Pd  Pd22  1  0.671821  0.328179  0.000000  1
  Pd  Pd23  1  0.328179  0.671821  0.000000  1
  Pd  Pd24  1  0.328179  0.671821  0.500000  1
  Pd  Pd25  1  0.671821  0.328179  0.500000  1
  Ru  Ru26  1  0.000000  0.000000  0.000000  1
  Ru  Ru27  1  0.000000  0.000000  0.500000  1
