# generated using pymatgen
data_Tb9Lu(Tl3Se)2
_symmetry_space_group_name_H-M   'P 1'
_cell_length_a   9.29431800
_cell_length_b   9.29431757
_cell_length_c   6.82076500
_cell_angle_alpha   90.00000000
_cell_angle_beta   90.00000000
_cell_angle_gamma   120.00000154
_symmetry_Int_Tables_number   1
_chemical_formula_structural   Tb9Lu(Tl3Se)2
_chemical_formula_sum   'Tb9 Lu1 Tl6 Se2'
_cell_volume   510.26848524
_cell_formula_units_Z   1
loop_
 _symmetry_equiv_pos_site_id
 _symmetry_equiv_pos_as_xyz
  1  'x, y, z'
loop_
 _atom_site_type_symbol
 _atom_site_label
 _atom_site_symmetry_multiplicity
 _atom_site_fract_x
 _atom_site_fract_y
 _atom_site_fract_z
 _atom_site_occupancy
  Tb  Tb0  1  0.666667  0.333333  0.000000  1
  Tb  Tb1  1  0.333333  0.666667  0.000000  1
  Tb  Tb2  1  0.333333  0.666667  0.500000  1
  Tb  Tb3  1  0.750258  0.749739  0.749373  1
  Tb  Tb4  1  0.250261  0.000519  0.749373  1
  Tb  Tb5  1  0.999481  0.249742  0.749373  1
  Tb  Tb6  1  0.250261  0.249742  0.250627  1
  Tb  Tb7  1  0.750258  0.000519  0.250627  1
  Tb  Tb8  1  0.999481  0.749739  0.250627  1
  Lu  Lu9  1  0.666667  0.333333  0.500000  1
  Tl  Tl10  1  0.402567  0.401583  0.748449  1
  Tl  Tl11  1  0.598417  0.000984  0.748449  1
  Tl  Tl12  1  0.999016  0.597433  0.748449  1
  Tl  Tl13  1  0.598417  0.597433  0.251551  1
  Tl  Tl14  1  0.402567  0.000984  0.251551  1
  Tl  Tl15  1  0.999016  0.401583  0.251551  1
  Se  Se16  1  0.000000  0.000000  0.000000  1
  Se  Se17  1  0.000000  0.000000  0.500000  1
