# generated using pymatgen
data_Dy3Er7IrRu3
_symmetry_space_group_name_H-M   'P 1'
_cell_length_a   6.31245122
_cell_length_b   7.28922894
_cell_length_c   8.40971455
_cell_angle_alpha   96.81448296
_cell_angle_beta   111.93585117
_cell_angle_gamma   90.14605497
_symmetry_Int_Tables_number   1
_chemical_formula_structural   Dy3Er7IrRu3
_chemical_formula_sum   'Dy3 Er7 Ir1 Ru3'
_cell_volume   355.94326328
_cell_formula_units_Z   1
loop_
 _symmetry_equiv_pos_site_id
 _symmetry_equiv_pos_as_xyz
  1  'x, y, z'
loop_
 _atom_site_type_symbol
 _atom_site_label
 _atom_site_symmetry_multiplicity
 _atom_site_fract_x
 _atom_site_fract_y
 _atom_site_fract_z
 _atom_site_occupancy
  Dy  Dy0  1  0.792272  0.582045  0.813977  1
  Dy  Dy1  1  0.978533  0.915141  0.187386  1
  Dy  Dy2  1  0.208778  0.415461  0.186436  1
  Er  Er3  1  0.024063  0.085541  0.814416  1
  Er  Er4  1  0.204812  0.683989  0.564651  1
  Er  Er5  1  0.642228  0.816088  0.434551  1
  Er  Er6  1  0.793882  0.314722  0.434768  1
  Er  Er7  1  0.356814  0.185559  0.564128  1
  Er  Er8  1  0.420094  0.749987  0.000273  1
  Er  Er9  1  0.579666  0.251064  0.000592  1
  Ir  Ir10  1  0.600928  0.923886  0.778402  1
  Ru  Ru11  1  0.823528  0.576645  0.220337  1
  Ru  Ru12  1  0.396600  0.075796  0.220685  1
  Ru  Ru13  1  0.177800  0.424075  0.779397  1
