# generated using pymatgen
data_Tb7Dy(Sc3Si4)4
_symmetry_space_group_name_H-M   'P 1'
_cell_length_a   7.12064703
_cell_length_b   7.40896506
_cell_length_c   14.04678411
_cell_angle_alpha   89.98728394
_cell_angle_beta   90.00693554
_cell_angle_gamma   90.00798180
_symmetry_Int_Tables_number   1
_chemical_formula_structural   Tb7Dy(Sc3Si4)4
_chemical_formula_sum   'Tb7 Dy1 Sc12 Si16'
_cell_volume   741.06089209
_cell_formula_units_Z   1
loop_
 _symmetry_equiv_pos_site_id
 _symmetry_equiv_pos_as_xyz
  1  'x, y, z'
loop_
 _atom_site_type_symbol
 _atom_site_label
 _atom_site_symmetry_multiplicity
 _atom_site_fract_x
 _atom_site_fract_y
 _atom_site_fract_z
 _atom_site_occupancy
  Tb  Tb0  1  0.011976  0.174709  0.097096  1
  Tb  Tb1  1  0.988025  0.825289  0.902886  1
  Tb  Tb2  1  0.488012  0.674711  0.902937  1
  Tb  Tb3  1  0.987992  0.825241  0.597103  1
  Tb  Tb4  1  0.511988  0.325304  0.097091  1
  Tb  Tb5  1  0.011999  0.174694  0.402928  1
  Tb  Tb6  1  0.511964  0.325321  0.402949  1
  Dy  Dy7  1  0.487982  0.674829  0.597174  1
  Sc  Sc8  1  0.160626  0.502339  0.749965  1
  Sc  Sc9  1  0.839424  0.497630  0.250032  1
  Sc  Sc10  1  0.339401  0.002328  0.250032  1
  Sc  Sc11  1  0.660535  0.997668  0.749957  1
  Sc  Sc12  1  0.330498  0.176595  0.625035  1
  Sc  Sc13  1  0.669479  0.823408  0.374952  1
  Sc  Sc14  1  0.169611  0.676589  0.374964  1
  Sc  Sc15  1  0.669535  0.823475  0.125060  1
  Sc  Sc16  1  0.830398  0.323493  0.625042  1
  Sc  Sc17  1  0.330455  0.176539  0.874911  1
  Sc  Sc18  1  0.830439  0.323418  0.874911  1
  Sc  Sc19  1  0.169590  0.676578  0.125060  1
  Si  Si20  1  0.033406  0.118625  0.750000  1
  Si  Si21  1  0.966569  0.881395  0.250011  1
  Si  Si22  1  0.466587  0.618607  0.250010  1
  Si  Si23  1  0.533392  0.381529  0.749943  1
  Si  Si24  1  0.285733  0.874606  0.749908  1
  Si  Si25  1  0.714410  0.125221  0.249995  1
  Si  Si26  1  0.214406  0.374756  0.249999  1
  Si  Si27  1  0.785425  0.625298  0.749899  1
  Si  Si28  1  0.157398  0.464641  0.539454  1
  Si  Si29  1  0.842766  0.535521  0.460612  1
  Si  Si30  1  0.342939  0.964342  0.460641  1
  Si  Si31  1  0.842884  0.535488  0.039404  1
  Si  Si32  1  0.657050  0.035301  0.539453  1
  Si  Si33  1  0.157092  0.464503  0.960588  1
  Si  Si34  1  0.657140  0.035488  0.960589  1
  Si  Si35  1  0.342871  0.964518  0.039410  1
