# generated using pymatgen
data_Sc3In2Os
_symmetry_space_group_name_H-M   'P 1'
_cell_length_a   3.40797000
_cell_length_b   3.40797000
_cell_length_c   10.30717100
_cell_angle_alpha   90.00000000
_cell_angle_beta   90.00000000
_cell_angle_gamma   90.00000000
_symmetry_Int_Tables_number   1
_chemical_formula_structural   Sc3In2Os
_chemical_formula_sum   'Sc3 In2 Os1'
_cell_volume   119.71015892
_cell_formula_units_Z   1
loop_
 _symmetry_equiv_pos_site_id
 _symmetry_equiv_pos_as_xyz
  1  'x, y, z'
loop_
 _atom_site_type_symbol
 _atom_site_label
 _atom_site_symmetry_multiplicity
 _atom_site_fract_x
 _atom_site_fract_y
 _atom_site_fract_z
 _atom_site_occupancy
  Sc  Sc0  1  0.000000  0.000000  0.000000  1
  Sc  Sc1  1  0.000000  0.000000  0.358199  1
  Sc  Sc2  1  0.000000  0.000000  0.641800  1
  In  In3  1  0.500000  0.500000  0.179903  1
  In  In4  1  0.500000  0.500000  0.820097  1
  Os  Os5  1  0.500000  0.500000  0.500000  1
