# generated using pymatgen
data_Na4CuAs2Au
_symmetry_space_group_name_H-M   'P 1'
_cell_length_a   5.74052926
_cell_length_b   5.74052840
_cell_length_c   5.54940628
_cell_angle_alpha   90.73430440
_cell_angle_beta   90.73430238
_cell_angle_gamma   102.50278756
_symmetry_Int_Tables_number   1
_chemical_formula_structural   Na4CuAs2Au
_chemical_formula_sum   'Na4 Cu1 As2 Au1'
_cell_volume   178.49912771
_cell_formula_units_Z   1
loop_
 _symmetry_equiv_pos_site_id
 _symmetry_equiv_pos_as_xyz
  1  'x, y, z'
loop_
 _atom_site_type_symbol
 _atom_site_label
 _atom_site_symmetry_multiplicity
 _atom_site_fract_x
 _atom_site_fract_y
 _atom_site_fract_z
 _atom_site_occupancy
  Na  Na0  1  0.026390  0.670075  0.249127  1
  Na  Na1  1  0.973610  0.329925  0.750873  1
  Na  Na2  1  0.670075  0.026390  0.249127  1
  Na  Na3  1  0.329925  0.973610  0.750873  1
  Cu  Cu4  1  0.500000  0.500000  0.500000  1
  As  As5  1  0.780785  0.780785  0.730669  1
  As  As6  1  0.219215  0.219215  0.269331  1
  Au  Au7  1  0.500000  0.500000  0.000000  1
