# generated using pymatgen
data_Cd3Hg2Pd6Au
_symmetry_space_group_name_H-M   'P 1'
_cell_length_a   4.39430500
_cell_length_b   7.52359700
_cell_length_c   12.82544300
_cell_angle_alpha   90.00095595
_cell_angle_beta   89.99995165
_cell_angle_gamma   90.00004673
_symmetry_Int_Tables_number   1
_chemical_formula_structural   Cd3Hg2Pd6Au
_chemical_formula_sum   'Cd6 Hg4 Pd12 Au2'
_cell_volume   424.02171345
_cell_formula_units_Z   2
loop_
 _symmetry_equiv_pos_site_id
 _symmetry_equiv_pos_as_xyz
  1  'x, y, z'
loop_
 _atom_site_type_symbol
 _atom_site_label
 _atom_site_symmetry_multiplicity
 _atom_site_fract_x
 _atom_site_fract_y
 _atom_site_fract_z
 _atom_site_occupancy
  Cd  Cd0  1  0.000000  0.999992  0.993513  1
  Cd  Cd1  1  0.500000  0.500003  0.165599  1
  Cd  Cd2  1  0.999999  0.999997  0.334401  1
  Cd  Cd3  1  0.500003  0.500009  0.506488  1
  Cd  Cd4  1  0.000002  0.999977  0.671950  1
  Cd  Cd5  1  0.499998  0.500022  0.828050  1
  Hg  Hg6  1  0.000000  0.500036  0.998908  1
  Hg  Hg7  1  0.500001  0.999997  0.165961  1
  Hg  Hg8  1  0.999998  0.500003  0.334038  1
  Hg  Hg9  1  0.500001  0.999964  0.501091  1
  Pd  Pd10  1  0.500000  0.250255  0.998687  1
  Pd  Pd11  1  0.499998  0.749746  0.998679  1
  Pd  Pd12  1  0.000000  0.247701  0.165940  1
  Pd  Pd13  1  0.000000  0.752300  0.165941  1
  Pd  Pd14  1  0.499997  0.252300  0.334060  1
  Pd  Pd15  1  0.499997  0.747700  0.334059  1
  Pd  Pd16  1  0.000001  0.249746  0.501313  1
  Pd  Pd17  1  0.000002  0.750253  0.501322  1
  Pd  Pd18  1  0.500002  0.246781  0.667248  1
  Pd  Pd19  1  0.500005  0.753226  0.667257  1
  Pd  Pd20  1  0.999999  0.253217  0.832753  1
  Pd  Pd21  1  0.999999  0.746776  0.832743  1
  Au  Au22  1  0.000000  0.500094  0.666654  1
  Au  Au23  1  0.499999  0.999905  0.833344  1
