# generated using pymatgen
data_Li2SnRh4W
_symmetry_space_group_name_H-M   'P 1'
_cell_length_a   4.35092100
_cell_length_b   6.12887800
_cell_length_c   13.05397200
_cell_angle_alpha   89.99998187
_cell_angle_beta   89.99878404
_cell_angle_gamma   89.99997748
_symmetry_Int_Tables_number   1
_chemical_formula_structural   Li2SnRh4W
_chemical_formula_sum   'Li6 Sn3 Rh12 W3'
_cell_volume   348.10066366
_cell_formula_units_Z   3
loop_
 _symmetry_equiv_pos_site_id
 _symmetry_equiv_pos_as_xyz
  1  'x, y, z'
loop_
 _atom_site_type_symbol
 _atom_site_label
 _atom_site_symmetry_multiplicity
 _atom_site_fract_x
 _atom_site_fract_y
 _atom_site_fract_z
 _atom_site_occupancy
  Li  Li0  1  0.999998  0.499998  0.002589  1
  Li  Li1  1  0.499851  0.000000  0.166550  1
  Li  Li2  1  0.999856  0.500002  0.330707  1
  Li  Li3  1  0.499987  0.999999  0.498358  1
  Li  Li4  1  0.000168  0.500000  0.666552  1
  Li  Li5  1  0.500121  0.000000  0.834969  1
  Sn  Sn6  1  0.499993  0.499999  0.500028  1
  Sn  Sn7  1  0.000064  0.999998  0.666872  1
  Sn  Sn8  1  0.500097  0.500000  0.833359  1
  Rh  Rh9  1  0.500002  0.247626  0.006811  1
  Rh  Rh10  1  0.500001  0.752374  0.006811  1
  Rh  Rh11  1  0.999924  0.250142  0.166658  1
  Rh  Rh12  1  0.999923  0.749857  0.166658  1
  Rh  Rh13  1  0.499917  0.247660  0.326532  1
  Rh  Rh14  1  0.499916  0.752342  0.326532  1
  Rh  Rh15  1  0.999990  0.242772  0.490072  1
  Rh  Rh16  1  0.999987  0.757227  0.490073  1
  Rh  Rh17  1  0.500118  0.249431  0.666688  1
  Rh  Rh18  1  0.500116  0.750567  0.666689  1
  Rh  Rh19  1  0.000087  0.242883  0.843280  1
  Rh  Rh20  1  0.000084  0.757115  0.843281  1
  W  W21  1  0.000005  0.000000  0.999901  1
  W  W22  1  0.499895  0.500001  0.166643  1
  W  W23  1  0.999899  0.000000  0.333387  1
