# generated using pymatgen
data_Er2TmLu(Ga3Rh)6
_symmetry_space_group_name_H-M   'P 1'
_cell_length_a   7.54656800
_cell_length_b   7.54787102
_cell_length_c   9.48739000
_cell_angle_alpha   90.00000000
_cell_angle_beta   90.00000000
_cell_angle_gamma   119.81170998
_symmetry_Int_Tables_number   1
_chemical_formula_structural   Er2TmLu(Ga3Rh)6
_chemical_formula_sum   'Er2 Tm1 Lu1 Ga18 Rh6'
_cell_volume   468.89135362
_cell_formula_units_Z   1
loop_
 _symmetry_equiv_pos_site_id
 _symmetry_equiv_pos_as_xyz
  1  'x, y, z'
loop_
 _atom_site_type_symbol
 _atom_site_label
 _atom_site_symmetry_multiplicity
 _atom_site_fract_x
 _atom_site_fract_y
 _atom_site_fract_z
 _atom_site_occupancy
  Er  Er0  1  0.997861  0.669524  0.250000  1
  Er  Er1  1  0.002206  0.330513  0.750000  1
  Tm  Tm2  1  0.669502  0.997877  0.250000  1
  Lu  Lu3  1  0.330490  0.002176  0.750000  1
  Ga  Ga4  1  0.339065  0.549557  0.250000  1
  Ga  Ga5  1  0.660856  0.450407  0.750000  1
  Ga  Ga6  1  0.549512  0.339025  0.250000  1
  Ga  Ga7  1  0.450532  0.661081  0.750000  1
  Ga  Ga8  1  0.000097  0.335003  0.080967  1
  Ga  Ga9  1  0.000095  0.665165  0.918939  1
  Ga  Ga10  1  0.000095  0.665165  0.581061  1
  Ga  Ga11  1  0.335051  0.000097  0.419158  1
  Ga  Ga12  1  0.000097  0.335003  0.419033  1
  Ga  Ga13  1  0.664657  0.999874  0.581059  1
  Ga  Ga14  1  0.664657  0.999874  0.918941  1
  Ga  Ga15  1  0.335051  0.000097  0.080842  1
  Ga  Ga16  1  0.332220  0.332002  0.566590  1
  Ga  Ga17  1  0.667808  0.667811  0.433617  1
  Ga  Ga18  1  0.667808  0.667811  0.066383  1
  Ga  Ga19  1  0.332220  0.332002  0.933410  1
  Ga  Ga20  1  0.125832  0.125843  0.250000  1
  Ga  Ga21  1  0.874288  0.874165  0.750000  1
  Rh  Rh22  1  0.671734  0.328110  0.999976  1
  Rh  Rh23  1  0.328141  0.671801  0.999974  1
  Rh  Rh24  1  0.328141  0.671801  0.500026  1
  Rh  Rh25  1  0.671734  0.328110  0.500024  1
  Rh  Rh26  1  0.000124  0.000053  0.999930  1
  Rh  Rh27  1  0.000124  0.000053  0.500070  1
