# generated using pymatgen
data_Y3Ho7In3Tc
_symmetry_space_group_name_H-M   'P 1'
_cell_length_a   9.53359000
_cell_length_b   9.53358989
_cell_length_c   9.92547100
_cell_angle_alpha   90.00000000
_cell_angle_beta   90.00000000
_cell_angle_gamma   120.00000039
_symmetry_Int_Tables_number   1
_chemical_formula_structural   Y3Ho7In3Tc
_chemical_formula_sum   'Y6 Ho14 In6 Tc2'
_cell_volume   781.25838456
_cell_formula_units_Z   2
loop_
 _symmetry_equiv_pos_site_id
 _symmetry_equiv_pos_as_xyz
  1  'x, y, z'
loop_
 _atom_site_type_symbol
 _atom_site_label
 _atom_site_symmetry_multiplicity
 _atom_site_fract_x
 _atom_site_fract_y
 _atom_site_fract_z
 _atom_site_occupancy
  Y  Y0  1  0.538520  0.461480  0.250000  1
  Y  Y1  1  0.538520  0.077039  0.250000  1
  Y  Y2  1  0.922961  0.461480  0.250000  1
  Y  Y3  1  0.461480  0.538520  0.750000  1
  Y  Y4  1  0.461480  0.922961  0.750000  1
  Y  Y5  1  0.077039  0.538520  0.750000  1
  Ho  Ho6  1  0.000000  0.000000  0.500000  1
  Ho  Ho7  1  0.000000  0.000000  0.000000  1
  Ho  Ho8  1  0.209693  0.790307  0.440027  1
  Ho  Ho9  1  0.209693  0.419386  0.440027  1
  Ho  Ho10  1  0.580614  0.790307  0.440027  1
  Ho  Ho11  1  0.790307  0.209693  0.559973  1
  Ho  Ho12  1  0.790307  0.580614  0.559973  1
  Ho  Ho13  1  0.419386  0.209693  0.559973  1
  Ho  Ho14  1  0.790307  0.209693  0.940027  1
  Ho  Ho15  1  0.790307  0.580614  0.940027  1
  Ho  Ho16  1  0.419386  0.209693  0.940027  1
  Ho  Ho17  1  0.209693  0.790307  0.059973  1
  Ho  Ho18  1  0.209693  0.419386  0.059973  1
  Ho  Ho19  1  0.580614  0.790307  0.059973  1
  In  In20  1  0.885927  0.114073  0.250000  1
  In  In21  1  0.885927  0.771856  0.250000  1
  In  In22  1  0.228144  0.114073  0.250000  1
  In  In23  1  0.114073  0.885927  0.750000  1
  In  In24  1  0.114073  0.228144  0.750000  1
  In  In25  1  0.771856  0.885927  0.750000  1
  Tc  Tc26  1  0.333333  0.666667  0.250000  1
  Tc  Tc27  1  0.666667  0.333333  0.750000  1
