# generated using pymatgen
data_Y9Zr(Pb3Se)2
_symmetry_space_group_name_H-M   'P 1'
_cell_length_a   9.15772700
_cell_length_b   9.15772730
_cell_length_c   6.74557700
_cell_angle_alpha   90.00000000
_cell_angle_beta   90.00000000
_cell_angle_gamma   120.00907683
_symmetry_Int_Tables_number   1
_chemical_formula_structural   Y9Zr(Pb3Se)2
_chemical_formula_sum   'Y9 Zr1 Pb6 Se2'
_cell_volume   489.87514595
_cell_formula_units_Z   1
loop_
 _symmetry_equiv_pos_site_id
 _symmetry_equiv_pos_as_xyz
  1  'x, y, z'
loop_
 _atom_site_type_symbol
 _atom_site_label
 _atom_site_symmetry_multiplicity
 _atom_site_fract_x
 _atom_site_fract_y
 _atom_site_fract_z
 _atom_site_occupancy
  Y  Y0  1  0.252180  0.000302  0.750000  1
  Y  Y1  1  0.000302  0.252180  0.750000  1
  Y  Y2  1  0.249269  0.249269  0.250000  1
  Y  Y3  1  0.747505  0.999440  0.250000  1
  Y  Y4  1  0.999440  0.747505  0.250000  1
  Y  Y5  1  0.667871  0.336091  0.998275  1
  Y  Y6  1  0.336091  0.667871  0.998275  1
  Y  Y7  1  0.336091  0.667871  0.501725  1
  Y  Y8  1  0.667871  0.336091  0.501725  1
  Zr  Zr9  1  0.750272  0.750272  0.750000  1
  Pb  Pb10  1  0.401421  0.401421  0.750000  1
  Pb  Pb11  1  0.605977  0.996549  0.750000  1
  Pb  Pb12  1  0.996549  0.605977  0.750000  1
  Pb  Pb13  1  0.603837  0.603837  0.250000  1
  Pb  Pb14  1  0.396903  0.000360  0.250000  1
  Pb  Pb15  1  0.000360  0.396903  0.250000  1
  Se  Se16  1  0.994031  0.994031  0.995600  1
  Se  Se17  1  0.994031  0.994031  0.504400  1
