# generated using pymatgen
data_Tm4MnAl2FeB16
_symmetry_space_group_name_H-M   'P 1'
_cell_length_a   3.43831800
_cell_length_b   5.88637156
_cell_length_c   11.36441669
_cell_angle_alpha   90.03391781
_cell_angle_beta   90.00000000
_cell_angle_gamma   90.00000000
_symmetry_Int_Tables_number   1
_chemical_formula_structural   Tm4MnAl2FeB16
_chemical_formula_sum   'Tm4 Mn1 Al2 Fe1 B16'
_cell_volume   230.00685837
_cell_formula_units_Z   1
loop_
 _symmetry_equiv_pos_site_id
 _symmetry_equiv_pos_as_xyz
  1  'x, y, z'
loop_
 _atom_site_type_symbol
 _atom_site_label
 _atom_site_symmetry_multiplicity
 _atom_site_fract_x
 _atom_site_fract_y
 _atom_site_fract_z
 _atom_site_occupancy
  Tm  Tm0  1  0.500000  0.374986  0.152751  1
  Tm  Tm1  1  0.500000  0.627603  0.852950  1
  Tm  Tm2  1  0.500000  0.123670  0.647916  1
  Tm  Tm3  1  0.500000  0.875106  0.345741  1
  Mn  Mn4  1  0.500000  0.872193  0.086498  1
  Al  Al5  1  0.500000  0.632352  0.584557  1
  Al  Al6  1  0.500000  0.132493  0.916546  1
  Fe  Fe7  1  0.500000  0.372497  0.414031  1
  B  B8  1  0.000000  0.111179  0.050471  1
  B  B9  1  0.000000  0.882394  0.955993  1
  B  B10  1  0.000000  0.382125  0.544176  1
  B  B11  1  0.000000  0.610494  0.449447  1
  B  B12  1  0.000000  0.137251  0.466416  1
  B  B13  1  0.000000  0.865600  0.529528  1
  B  B14  1  0.000000  0.365836  0.969070  1
  B  B15  1  0.000000  0.637263  0.033467  1
  B  B16  1  0.000000  0.021052  0.192122  1
  B  B17  1  0.000000  0.974272  0.806554  1
  B  B18  1  0.000000  0.472591  0.692856  1
  B  B19  1  0.000000  0.520978  0.308230  1
  B  B20  1  0.000000  0.216571  0.316373  1
  B  B21  1  0.000000  0.788527  0.687377  1
  B  B22  1  0.000000  0.287016  0.812850  1
  B  B23  1  0.000000  0.715950  0.184080  1
