# generated using pymatgen
data_Yb4Ho5LuRu4
_symmetry_space_group_name_H-M   'P 1'
_cell_length_a   6.40687464
_cell_length_b   7.22927254
_cell_length_c   8.50257263
_cell_angle_alpha   97.25928901
_cell_angle_beta   112.13319580
_cell_angle_gamma   89.99998964
_symmetry_Int_Tables_number   1
_chemical_formula_structural   Yb4Ho5LuRu4
_chemical_formula_sum   'Yb4 Ho5 Lu1 Ru4'
_cell_volume   361.38404557
_cell_formula_units_Z   1
loop_
 _symmetry_equiv_pos_site_id
 _symmetry_equiv_pos_as_xyz
  1  'x, y, z'
loop_
 _atom_site_type_symbol
 _atom_site_label
 _atom_site_symmetry_multiplicity
 _atom_site_fract_x
 _atom_site_fract_y
 _atom_site_fract_z
 _atom_site_occupancy
  Yb  Yb0  1  0.522756  0.078950  0.816673  1
  Yb  Yb1  1  0.477381  0.919751  0.183304  1
  Yb  Yb2  1  0.706083  0.421050  0.183327  1
  Yb  Yb3  1  0.294077  0.580249  0.816696  1
  Ho  Ho4  1  0.303144  0.315237  0.433587  1
  Ho  Ho5  1  0.697515  0.685111  0.567618  1
  Ho  Ho6  1  0.869558  0.184763  0.566413  1
  Ho  Ho7  1  0.129896  0.814889  0.432382  1
  Ho  Ho8  1  0.070075  0.250000  0.000000  1
  Lu  Lu9  1  0.931169  0.750000  0.000000  1
  Ru  Ru10  1  0.313299  0.576059  0.229834  1
  Ru  Ru11  1  0.685997  0.426180  0.770414  1
  Ru  Ru12  1  0.083466  0.923941  0.770166  1
  Ru  Ru13  1  0.915582  0.073820  0.229586  1
