# generated using pymatgen
data_YBeAlSi
_symmetry_space_group_name_H-M   'P 1'
_cell_length_a   8.70587777
_cell_length_b   8.70587822
_cell_length_c   3.93970400
_cell_angle_alpha   90.00000000
_cell_angle_beta   90.00000000
_cell_angle_gamma   153.22611410
_symmetry_Int_Tables_number   1
_chemical_formula_structural   YBeAlSi
_chemical_formula_sum   'Y2 Be2 Al2 Si2'
_cell_volume   134.51021588
_cell_formula_units_Z   2
loop_
 _symmetry_equiv_pos_site_id
 _symmetry_equiv_pos_as_xyz
  1  'x, y, z'
loop_
 _atom_site_type_symbol
 _atom_site_label
 _atom_site_symmetry_multiplicity
 _atom_site_fract_x
 _atom_site_fract_y
 _atom_site_fract_z
 _atom_site_occupancy
  Y  Y0  1  0.900258  0.099742  0.750000  1
  Y  Y1  1  0.099742  0.900258  0.250000  1
  Be  Be2  1  0.666588  0.333412  0.750000  1
  Be  Be3  1  0.333412  0.666588  0.250000  1
  Al  Al4  1  0.249762  0.750238  0.750000  1
  Al  Al5  1  0.750238  0.249762  0.250000  1
  Si  Si6  1  0.537849  0.462151  0.750000  1
  Si  Si7  1  0.462151  0.537849  0.250000  1
