# generated using pymatgen
data_Rb3P7
_symmetry_space_group_name_H-M   'P 1'
_cell_length_a   9.24907400
_cell_length_b   9.24907400
_cell_length_c   16.96335800
_cell_angle_alpha   90.00000000
_cell_angle_beta   90.00000000
_cell_angle_gamma   90.00000000
_symmetry_Int_Tables_number   1
_chemical_formula_structural   Rb3P7
_chemical_formula_sum   'Rb12 P28'
_cell_volume   1451.13673413
_cell_formula_units_Z   4
loop_
 _symmetry_equiv_pos_site_id
 _symmetry_equiv_pos_as_xyz
  1  'x, y, z'
loop_
 _atom_site_type_symbol
 _atom_site_label
 _atom_site_symmetry_multiplicity
 _atom_site_fract_x
 _atom_site_fract_y
 _atom_site_fract_z
 _atom_site_occupancy
  Rb  Rb0  1  0.753695  0.371284  0.997096  1
  Rb  Rb1  1  0.628716  0.753695  0.247096  1
  Rb  Rb2  1  0.371284  0.246305  0.747096  1
  Rb  Rb3  1  0.246305  0.628716  0.497096  1
  Rb  Rb4  1  0.419391  0.745231  0.842946  1
  Rb  Rb5  1  0.254769  0.419391  0.092946  1
  Rb  Rb6  1  0.745231  0.580609  0.592946  1
  Rb  Rb7  1  0.580609  0.254769  0.342946  1
  Rb  Rb8  1  0.020074  0.823246  0.000091  1
  Rb  Rb9  1  0.176754  0.020074  0.250091  1
  Rb  Rb10  1  0.823246  0.979926  0.750091  1
  Rb  Rb11  1  0.979926  0.176754  0.500091  1
  P  P12  1  0.787445  0.600597  0.809785  1
  P  P13  1  0.399403  0.787445  0.059785  1
  P  P14  1  0.600597  0.212555  0.559785  1
  P  P15  1  0.212555  0.399403  0.309785  1
  P  P16  1  0.444741  0.092086  0.943633  1
  P  P17  1  0.907914  0.444741  0.193633  1
  P  P18  1  0.092086  0.555259  0.693633  1
  P  P19  1  0.555259  0.907914  0.443633  1
  P  P20  1  0.105168  0.479362  0.890003  1
  P  P21  1  0.520638  0.105168  0.140003  1
  P  P22  1  0.479362  0.894832  0.640003  1
  P  P23  1  0.894832  0.520638  0.390003  1
  P  P24  1  0.355317  0.022269  0.058024  1
  P  P25  1  0.977731  0.355317  0.308024  1
  P  P26  1  0.022269  0.644683  0.808024  1
  P  P27  1  0.644683  0.977731  0.558024  1
  P  P28  1  0.624994  0.794589  0.031461  1
  P  P29  1  0.205411  0.624994  0.281461  1
  P  P30  1  0.794589  0.375006  0.781461  1
  P  P31  1  0.375006  0.205411  0.531461  1
  P  P32  1  0.996287  0.345099  0.704442  1
  P  P33  1  0.654901  0.996287  0.954442  1
  P  P34  1  0.345099  0.003713  0.454442  1
  P  P35  1  0.003713  0.654901  0.204442  1
  P  P36  1  0.006620  0.292260  0.837718  1
  P  P37  1  0.707740  0.006620  0.087718  1
  P  P38  1  0.292260  0.993380  0.587718  1
  P  P39  1  0.993380  0.707740  0.337718  1
