# generated using pymatgen
data_TaNb3Co4Si7
_symmetry_space_group_name_H-M   'P 1'
_cell_length_a   9.23415277
_cell_length_b   9.23415220
_cell_length_c   9.23415184
_cell_angle_alpha   94.22924082
_cell_angle_beta   94.19814073
_cell_angle_gamma   148.54464230
_symmetry_Int_Tables_number   1
_chemical_formula_structural   TaNb3Co4Si7
_chemical_formula_sum   'Ta2 Nb6 Co8 Si14'
_cell_volume   395.50476722
_cell_formula_units_Z   2
loop_
 _symmetry_equiv_pos_site_id
 _symmetry_equiv_pos_as_xyz
  1  'x, y, z'
loop_
 _atom_site_type_symbol
 _atom_site_label
 _atom_site_symmetry_multiplicity
 _atom_site_fract_x
 _atom_site_fract_y
 _atom_site_fract_z
 _atom_site_occupancy
  Ta  Ta0  1  0.691088  0.500000  0.191088  1
  Ta  Ta1  1  0.308912  0.500000  0.808912  1
  Nb  Nb2  1  0.133598  0.133521  0.267119  1
  Nb  Nb3  1  0.866402  0.866479  0.732881  1
  Nb  Nb4  1  0.866402  0.133521  0.999923  1
  Nb  Nb5  1  0.133598  0.866479  0.000077  1
  Nb  Nb6  1  0.500000  0.309400  0.809400  1
  Nb  Nb7  1  0.500000  0.690600  0.190600  1
  Co  Co8  1  0.398979  0.898362  0.797690  1
  Co  Co9  1  0.100672  0.601289  0.202310  1
  Co  Co10  1  0.100672  0.898362  0.499383  1
  Co  Co11  1  0.398979  0.601289  0.500617  1
  Co  Co12  1  0.601021  0.398711  0.499383  1
  Co  Co13  1  0.899328  0.101638  0.500617  1
  Co  Co14  1  0.899328  0.398711  0.797690  1
  Co  Co15  1  0.601021  0.101638  0.202310  1
  Si  Si16  1  0.500000  0.093682  0.593682  1
  Si  Si17  1  0.500000  0.906318  0.406318  1
  Si  Si18  1  0.906525  0.500000  0.406525  1
  Si  Si19  1  0.093475  0.500000  0.593475  1
  Si  Si20  1  0.750395  0.750395  0.000000  1
  Si  Si21  1  0.249605  0.249605  0.000000  1
  Si  Si22  1  0.291744  0.291380  0.583124  1
  Si  Si23  1  0.708256  0.708620  0.416876  1
  Si  Si24  1  0.708256  0.291380  0.999636  1
  Si  Si25  1  0.291744  0.708620  0.000364  1
  Si  Si26  1  0.000000  0.297084  0.297084  1
  Si  Si27  1  0.000000  0.702916  0.702916  1
  Si  Si28  1  0.703367  0.000000  0.703367  1
  Si  Si29  1  0.296633  0.000000  0.296633  1
