# generated using pymatgen
data_LaTh(AlRh)2
_symmetry_space_group_name_H-M   'P 1'
_cell_length_a   4.26868100
_cell_length_b   7.22836500
_cell_length_c   16.32952200
_cell_angle_alpha   90.00000000
_cell_angle_beta   90.00000000
_cell_angle_gamma   90.00000000
_symmetry_Int_Tables_number   1
_chemical_formula_structural   LaTh(AlRh)2
_chemical_formula_sum   'La4 Th4 Al8 Rh8'
_cell_volume   503.85694325
_cell_formula_units_Z   4
loop_
 _symmetry_equiv_pos_site_id
 _symmetry_equiv_pos_as_xyz
  1  'x, y, z'
loop_
 _atom_site_type_symbol
 _atom_site_label
 _atom_site_symmetry_multiplicity
 _atom_site_fract_x
 _atom_site_fract_y
 _atom_site_fract_z
 _atom_site_occupancy
  La  La0  1  0.250000  0.654151  0.558838  1
  La  La1  1  0.750000  0.345849  0.441162  1
  La  La2  1  0.750000  0.845849  0.058838  1
  La  La3  1  0.250000  0.154151  0.941162  1
  Th  Th4  1  0.250000  0.520481  0.779325  1
  Th  Th5  1  0.750000  0.479519  0.220675  1
  Th  Th6  1  0.750000  0.979519  0.279325  1
  Th  Th7  1  0.250000  0.020481  0.720675  1
  Al  Al8  1  0.250000  0.656636  0.351108  1
  Al  Al9  1  0.750000  0.343364  0.648892  1
  Al  Al10  1  0.750000  0.843364  0.851108  1
  Al  Al11  1  0.250000  0.156636  0.148892  1
  Al  Al12  1  0.250000  0.507673  0.061164  1
  Al  Al13  1  0.750000  0.492327  0.938836  1
  Al  Al14  1  0.750000  0.992327  0.561164  1
  Al  Al15  1  0.250000  0.007673  0.438836  1
  Rh  Rh16  1  0.250000  0.761303  0.187048  1
  Rh  Rh17  1  0.750000  0.238697  0.812952  1
  Rh  Rh18  1  0.750000  0.738697  0.687048  1
  Rh  Rh19  1  0.250000  0.261303  0.312952  1
  Rh  Rh20  1  0.250000  0.709643  0.924462  1
  Rh  Rh21  1  0.750000  0.290357  0.075538  1
  Rh  Rh22  1  0.750000  0.790357  0.424462  1
  Rh  Rh23  1  0.250000  0.209643  0.575538  1
