# generated using pymatgen
data_Yb(PaRh2)5
_symmetry_space_group_name_H-M   'P 1'
_cell_length_a   5.82464645
_cell_length_b   5.82464611
_cell_length_c   9.27641300
_cell_angle_alpha   87.05328306
_cell_angle_beta   87.05329308
_cell_angle_gamma   104.59217507
_symmetry_Int_Tables_number   1
_chemical_formula_structural   Yb(PaRh2)5
_chemical_formula_sum   'Yb1 Pa5 Rh10'
_cell_volume   303.48679886
_cell_formula_units_Z   1
loop_
 _symmetry_equiv_pos_site_id
 _symmetry_equiv_pos_as_xyz
  1  'x, y, z'
loop_
 _atom_site_type_symbol
 _atom_site_label
 _atom_site_symmetry_multiplicity
 _atom_site_fract_x
 _atom_site_fract_y
 _atom_site_fract_z
 _atom_site_occupancy
  Yb  Yb0  1  0.801507  0.198493  0.500000  1
  Pa  Pa1  1  0.612290  0.609710  0.727926  1
  Pa  Pa2  1  0.390290  0.387710  0.272074  1
  Pa  Pa3  1  0.209560  0.790440  0.000000  1
  Pa  Pa4  1  0.188506  0.811494  0.500000  1
  Pa  Pa5  1  0.790746  0.209254  0.000000  1
  Rh  Rh6  1  0.698445  0.701690  0.017060  1
  Rh  Rh7  1  0.692905  0.686098  0.437038  1
  Rh  Rh8  1  0.298310  0.301555  0.982940  1
  Rh  Rh9  1  0.313902  0.307095  0.562962  1
  Rh  Rh10  1  0.498776  0.032163  0.771230  1
  Rh  Rh11  1  0.490497  0.954115  0.241735  1
  Rh  Rh12  1  0.999442  0.998898  0.232850  1
  Rh  Rh13  1  0.001102  0.000558  0.767150  1
  Rh  Rh14  1  0.045885  0.509503  0.758265  1
  Rh  Rh15  1  0.967837  0.501224  0.228770  1
