# generated using pymatgen
data_LiPr9(Si2Sn)2
_symmetry_space_group_name_H-M   'P 1'
_cell_length_a   7.89574300
_cell_length_b   9.22147586
_cell_length_c   7.89574300
_cell_angle_alpha   115.34812578
_cell_angle_beta   90.00000000
_cell_angle_gamma   115.34812578
_symmetry_Int_Tables_number   1
_chemical_formula_structural   LiPr9(Si2Sn)2
_chemical_formula_sum   'Li1 Pr9 Si4 Sn2'
_cell_volume   457.54758692
_cell_formula_units_Z   1
loop_
 _symmetry_equiv_pos_site_id
 _symmetry_equiv_pos_as_xyz
  1  'x, y, z'
loop_
 _atom_site_type_symbol
 _atom_site_label
 _atom_site_symmetry_multiplicity
 _atom_site_fract_x
 _atom_site_fract_y
 _atom_site_fract_z
 _atom_site_occupancy
  Li  Li0  1  0.000000  0.000000  0.000000  1
  Pr  Pr1  1  0.500000  0.000000  0.500000  1
  Pr  Pr2  1  0.546338  0.724727  0.692227  1
  Pr  Pr3  1  0.178391  0.724727  0.032502  1
  Pr  Pr4  1  0.692227  0.724727  0.178391  1
  Pr  Pr5  1  0.032502  0.724727  0.546338  1
  Pr  Pr6  1  0.453662  0.275273  0.307773  1
  Pr  Pr7  1  0.821609  0.275273  0.967498  1
  Pr  Pr8  1  0.307773  0.275273  0.821609  1
  Pr  Pr9  1  0.967498  0.275273  0.453662  1
  Si  Si10  1  0.883868  0.000000  0.609907  1
  Si  Si11  1  0.116132  0.000000  0.390093  1
  Si  Si12  1  0.609907  0.000000  0.116132  1
  Si  Si13  1  0.390093  0.000000  0.883868  1
  Sn  Sn14  1  0.739874  0.479747  0.739874  1
  Sn  Sn15  1  0.260126  0.520253  0.260126  1
