# generated using pymatgen
data_La2Zn20CuPd
_symmetry_space_group_name_H-M   'P 1'
_cell_length_a   8.28010508
_cell_length_b   8.33154230
_cell_length_c   8.33154231
_cell_angle_alpha   99.95721969
_cell_angle_beta   99.91181216
_cell_angle_gamma   131.30694461
_symmetry_Int_Tables_number   1
_chemical_formula_structural   La2Zn20CuPd
_chemical_formula_sum   'La2 Zn20 Cu1 Pd1'
_cell_volume   392.12607038
_cell_formula_units_Z   1
loop_
 _symmetry_equiv_pos_site_id
 _symmetry_equiv_pos_as_xyz
  1  'x, y, z'
loop_
 _atom_site_type_symbol
 _atom_site_label
 _atom_site_symmetry_multiplicity
 _atom_site_fract_x
 _atom_site_fract_y
 _atom_site_fract_z
 _atom_site_occupancy
  La  La0  1  0.254059  0.751280  0.502779  1
  La  La1  1  0.995941  0.998720  0.997221  1
  Zn  Zn2  1  0.903607  0.574744  0.086284  1
  Zn  Zn3  1  0.625000  0.875000  0.250000  1
  Zn  Zn4  1  0.423788  0.508922  0.327701  1
  Zn  Zn5  1  0.485257  0.572109  0.672768  1
  Zn  Zn6  1  0.423788  0.096089  0.914867  1
  Zn  Zn7  1  0.764743  0.177891  0.827232  1
  Zn  Zn8  1  0.485257  0.812489  0.913149  1
  Zn  Zn9  1  0.491947  0.491841  0.000106  1
  Zn  Zn10  1  0.764743  0.937511  0.586851  1
  Zn  Zn11  1  0.758053  0.258159  0.499894  1
  Zn  Zn12  1  0.066240  0.644908  0.826278  1
  Zn  Zn13  1  0.346393  0.175256  0.413716  1
  Zn  Zn14  1  0.826212  0.653911  0.585133  1
  Zn  Zn15  1  0.903607  0.817323  0.328863  1
  Zn  Zn16  1  0.183760  0.105092  0.673722  1
  Zn  Zn17  1  0.066240  0.239962  0.421332  1
  Zn  Zn18  1  0.346393  0.932677  0.171137  1
  Zn  Zn19  1  0.826212  0.241078  0.172299  1
  Zn  Zn20  1  0.183760  0.510038  0.078668  1
  Zn  Zn21  1  0.625000  0.375000  0.750000  1
  Cu  Cu22  1  0.125000  0.375000  0.750000  1
  Pd  Pd23  1  0.625000  0.375000  0.250000  1
