# generated using pymatgen
data_La4SmDyOsI10
_symmetry_space_group_name_H-M   'P 1'
_cell_length_a   8.12378155
_cell_length_b   10.07704575
_cell_length_c   10.02504423
_cell_angle_alpha   106.73207527
_cell_angle_beta   96.83789667
_cell_angle_gamma   106.09629146
_symmetry_Int_Tables_number   1
_chemical_formula_structural   La4SmDyOsI10
_chemical_formula_sum   'La4 Sm1 Dy1 Os1 I10'
_cell_volume   737.27892472
_cell_formula_units_Z   1
loop_
 _symmetry_equiv_pos_site_id
 _symmetry_equiv_pos_as_xyz
  1  'x, y, z'
loop_
 _atom_site_type_symbol
 _atom_site_label
 _atom_site_symmetry_multiplicity
 _atom_site_fract_x
 _atom_site_fract_y
 _atom_site_fract_z
 _atom_site_occupancy
  La  La0  1  0.861526  0.136881  0.677994  1
  La  La1  1  0.139133  0.866114  0.322266  1
  La  La2  1  0.385315  0.955134  0.726666  1
  La  La3  1  0.615393  0.045256  0.274216  1
  Sm  Sm4  1  0.530602  0.707686  0.413322  1
  Dy  Dy5  1  0.470243  0.287105  0.585716  1
  Os  Os6  1  0.500161  0.000355  0.500540  1
  I  I7  1  0.417468  0.622377  0.673778  1
  I  I8  1  0.580291  0.373572  0.329771  1
  I  I9  1  0.301408  0.266523  0.843488  1
  I  I10  1  0.702035  0.735641  0.152754  1
  I  I11  1  0.839933  0.459046  0.769403  1
  I  I12  1  0.152471  0.541151  0.228168  1
  I  I13  1  0.053851  0.186487  0.412921  1
  I  I14  1  0.241770  0.914136  0.037214  1
  I  I15  1  0.759306  0.086623  0.962853  1
  I  I16  1  0.949094  0.815912  0.588930  1
