# generated using pymatgen
data_Ac2PrHo(ZnSn)4
_symmetry_space_group_name_H-M   'P 1'
_cell_length_a   4.61139500
_cell_length_b   4.61139420
_cell_length_c   17.25534600
_cell_angle_alpha   90.00000000
_cell_angle_beta   90.00000000
_cell_angle_gamma   120.00001294
_symmetry_Int_Tables_number   1
_chemical_formula_structural   Ac2PrHo(ZnSn)4
_chemical_formula_sum   'Ac2 Pr1 Ho1 Zn4 Sn4'
_cell_volume   317.77433615
_cell_formula_units_Z   1
loop_
 _symmetry_equiv_pos_site_id
 _symmetry_equiv_pos_as_xyz
  1  'x, y, z'
loop_
 _atom_site_type_symbol
 _atom_site_label
 _atom_site_symmetry_multiplicity
 _atom_site_fract_x
 _atom_site_fract_y
 _atom_site_fract_z
 _atom_site_occupancy
  Ac  Ac0  1  0.000000  0.000000  0.497006  1
  Ac  Ac1  1  0.000000  0.000000  0.002994  1
  Pr  Pr2  1  0.000000  0.000000  0.750000  1
  Ho  Ho3  1  0.000000  0.000000  0.250000  1
  Zn  Zn4  1  0.333333  0.666667  0.331020  1
  Zn  Zn5  1  0.666667  0.333333  0.662449  1
  Zn  Zn6  1  0.666667  0.333333  0.837551  1
  Zn  Zn7  1  0.333333  0.666667  0.168980  1
  Sn  Sn8  1  0.333333  0.666667  0.878587  1
  Sn  Sn9  1  0.666667  0.333333  0.125838  1
  Sn  Sn10  1  0.666667  0.333333  0.374162  1
  Sn  Sn11  1  0.333333  0.666667  0.621413  1
