# generated using pymatgen
data_Ba3NbVS8
_symmetry_space_group_name_H-M   'P 1'
_cell_length_a   11.26885081
_cell_length_b   11.26885050
_cell_length_c   11.26885119
_cell_angle_alpha   51.56216631
_cell_angle_beta   51.56216674
_cell_angle_gamma   51.56216876
_symmetry_Int_Tables_number   1
_chemical_formula_structural   Ba3NbVS8
_chemical_formula_sum   'Ba6 Nb2 V2 S16'
_cell_volume   810.88987153
_cell_formula_units_Z   2
loop_
 _symmetry_equiv_pos_site_id
 _symmetry_equiv_pos_as_xyz
  1  'x, y, z'
loop_
 _atom_site_type_symbol
 _atom_site_label
 _atom_site_symmetry_multiplicity
 _atom_site_fract_x
 _atom_site_fract_y
 _atom_site_fract_z
 _atom_site_occupancy
  Ba  Ba0  1  0.750000  0.436592  0.063407  1
  Ba  Ba1  1  0.575538  0.924461  0.250000  1
  Ba  Ba2  1  0.063407  0.750000  0.436593  1
  Ba  Ba3  1  0.924462  0.250000  0.575538  1
  Ba  Ba4  1  0.436593  0.063408  0.749999  1
  Ba  Ba5  1  0.250000  0.575538  0.924462  1
  Nb  Nb6  1  0.160356  0.160356  0.160356  1
  Nb  Nb7  1  0.339644  0.339644  0.339644  1
  V  V8  1  0.660652  0.660652  0.660652  1
  V  V9  1  0.839348  0.839348  0.839348  1
  S  S10  1  0.620195  0.790932  0.031700  1
  S  S11  1  0.081469  0.081469  0.081469  1
  S  S12  1  0.545161  0.284335  0.109420  1
  S  S13  1  0.954840  0.390579  0.215666  1
  S  S14  1  0.109420  0.545160  0.284335  1
  S  S15  1  0.215665  0.954841  0.390579  1
  S  S16  1  0.418530  0.418530  0.418530  1
  S  S17  1  0.709068  0.879806  0.468299  1
  S  S18  1  0.284335  0.109420  0.545161  1
  S  S19  1  0.586234  0.586234  0.586234  1
  S  S20  1  0.790932  0.031700  0.620195  1
  S  S21  1  0.879806  0.468300  0.709068  1
  S  S22  1  0.031700  0.620195  0.790932  1
  S  S23  1  0.468300  0.709068  0.879806  1
  S  S24  1  0.913766  0.913766  0.913766  1
  S  S25  1  0.390580  0.215665  0.954840  1
