# generated using pymatgen
data_SmDyP7Ru12
_symmetry_space_group_name_H-M   'P 1'
_cell_length_a   9.42959000
_cell_length_b   9.42958908
_cell_length_c   3.96349600
_cell_angle_alpha   90.00000000
_cell_angle_beta   90.00000000
_cell_angle_gamma   119.99999622
_symmetry_Int_Tables_number   1
_chemical_formula_structural   SmDyP7Ru12
_chemical_formula_sum   'Sm1 Dy1 P7 Ru12'
_cell_volume   305.20711236
_cell_formula_units_Z   1
loop_
 _symmetry_equiv_pos_site_id
 _symmetry_equiv_pos_as_xyz
  1  'x, y, z'
loop_
 _atom_site_type_symbol
 _atom_site_label
 _atom_site_symmetry_multiplicity
 _atom_site_fract_x
 _atom_site_fract_y
 _atom_site_fract_z
 _atom_site_occupancy
  Sm  Sm0  1  0.333333  0.666667  0.000000  1
  Dy  Dy1  1  0.666667  0.333333  0.500000  1
  P  P2  1  0.602804  0.718555  0.500000  1
  P  P3  1  0.000000  0.000000  0.000000  1
  P  P4  1  0.281445  0.884248  0.500000  1
  P  P5  1  0.115752  0.397196  0.500000  1
  P  P6  1  0.885930  0.572685  0.000000  1
  P  P7  1  0.427315  0.313246  0.000000  1
  P  P8  1  0.686754  0.114070  0.000000  1
  Ru  Ru9  1  0.558036  0.952268  0.500000  1
  Ru  Ru10  1  0.394232  0.441964  0.500000  1
  Ru  Ru11  1  0.914778  0.120618  0.500000  1
  Ru  Ru12  1  0.205840  0.085222  0.500000  1
  Ru  Ru13  1  0.879382  0.794160  0.500000  1
  Ru  Ru14  1  0.728584  0.892823  0.000000  1
  Ru  Ru15  1  0.107177  0.835760  0.000000  1
  Ru  Ru16  1  0.164240  0.271416  0.000000  1
  Ru  Ru17  1  0.422652  0.067617  0.000000  1
  Ru  Ru18  1  0.932383  0.355035  0.000000  1
  Ru  Ru19  1  0.644965  0.577348  0.000000  1
  Ru  Ru20  1  0.047732  0.605768  0.500000  1
