# generated using pymatgen
data_Zr5Co16(MoAs4)3
_symmetry_space_group_name_H-M   'P 1'
_cell_length_a   12.37850500
_cell_length_b   12.37850580
_cell_length_c   3.78379800
_cell_angle_alpha   90.00000000
_cell_angle_beta   90.00000000
_cell_angle_gamma   119.99999520
_symmetry_Int_Tables_number   1
_chemical_formula_structural   Zr5Co16(MoAs4)3
_chemical_formula_sum   'Zr5 Co16 Mo3 As12'
_cell_volume   502.10554421
_cell_formula_units_Z   1
loop_
 _symmetry_equiv_pos_site_id
 _symmetry_equiv_pos_as_xyz
  1  'x, y, z'
loop_
 _atom_site_type_symbol
 _atom_site_label
 _atom_site_symmetry_multiplicity
 _atom_site_fract_x
 _atom_site_fract_y
 _atom_site_fract_z
 _atom_site_occupancy
  Zr  Zr0  1  0.666667  0.333333  0.000000  1
  Zr  Zr1  1  0.333333  0.666667  0.000000  1
  Zr  Zr2  1  0.820423  0.820423  0.500000  1
  Zr  Zr3  1  0.179577  0.000000  0.500000  1
  Zr  Zr4  1  0.000000  0.179577  0.500000  1
  Co  Co5  1  0.196237  0.374594  0.000000  1
  Co  Co6  1  0.178357  0.803763  0.000000  1
  Co  Co7  1  0.821643  0.625406  0.000000  1
  Co  Co8  1  0.803763  0.178357  0.000000  1
  Co  Co9  1  0.374594  0.196237  0.000000  1
  Co  Co10  1  0.126299  0.482128  0.500000  1
  Co  Co11  1  0.355828  0.873701  0.500000  1
  Co  Co12  1  0.517872  0.644172  0.500000  1
  Co  Co13  1  0.644172  0.517872  0.500000  1
  Co  Co14  1  0.873701  0.355828  0.500000  1
  Co  Co15  1  0.482128  0.126299  0.500000  1
  Co  Co16  1  0.000000  0.000000  0.000000  1
  Co  Co17  1  0.718616  0.000000  0.500000  1
  Co  Co18  1  0.000000  0.718616  0.500000  1
  Co  Co19  1  0.625406  0.821643  0.000000  1
  Co  Co20  1  0.281384  0.281384  0.500000  1
  Mo  Mo21  1  0.445721  0.445721  0.000000  1
  Mo  Mo22  1  0.554279  0.000000  0.000000  1
  Mo  Mo23  1  0.000000  0.554279  0.000000  1
  As  As24  1  0.643978  0.643978  0.000000  1
  As  As25  1  0.356022  0.000000  0.000000  1
  As  As26  1  0.000000  0.356022  0.000000  1
  As  As27  1  0.483374  0.314633  0.500000  1
  As  As28  1  0.685367  0.168741  0.500000  1
  As  As29  1  0.831259  0.516626  0.500000  1
  As  As30  1  0.516626  0.831259  0.500000  1
  As  As31  1  0.168741  0.685367  0.500000  1
  As  As32  1  0.823471  0.000000  0.000000  1
  As  As33  1  0.000000  0.823471  0.000000  1
  As  As34  1  0.314633  0.483374  0.500000  1
  As  As35  1  0.176529  0.176529  0.000000  1
