# generated using pymatgen
data_La6Ga6Si5Ge
_symmetry_space_group_name_H-M   'P 1'
_cell_length_a   4.24179200
_cell_length_b   4.24179059
_cell_length_c   26.31952400
_cell_angle_alpha   90.00000000
_cell_angle_beta   90.00000000
_cell_angle_gamma   120.00001101
_symmetry_Int_Tables_number   1
_chemical_formula_structural   La6Ga6Si5Ge
_chemical_formula_sum   'La6 Ga6 Si5 Ge1'
_cell_volume   410.11646662
_cell_formula_units_Z   1
loop_
 _symmetry_equiv_pos_site_id
 _symmetry_equiv_pos_as_xyz
  1  'x, y, z'
loop_
 _atom_site_type_symbol
 _atom_site_label
 _atom_site_symmetry_multiplicity
 _atom_site_fract_x
 _atom_site_fract_y
 _atom_site_fract_z
 _atom_site_occupancy
  La  La0  1  0.000000  0.000000  0.331631  1
  La  La1  1  0.000000  0.000000  0.834476  1
  La  La2  1  0.000000  0.000000  0.166539  1
  La  La3  1  0.000000  0.000000  0.000509  1
  La  La4  1  0.000000  0.000000  0.669051  1
  La  La5  1  0.000000  0.000000  0.496548  1
  Ga  Ga6  1  0.333333  0.666667  0.411757  1
  Ga  Ga7  1  0.333333  0.666667  0.252223  1
  Ga  Ga8  1  0.333333  0.666667  0.088856  1
  Ga  Ga9  1  0.666667  0.333333  0.912959  1
  Ga  Ga10  1  0.666667  0.333333  0.749226  1
  Ga  Ga11  1  0.666667  0.333333  0.593805  1
  Si  Si12  1  0.333333  0.666667  0.921757  1
  Si  Si13  1  0.333333  0.666667  0.753478  1
  Si  Si14  1  0.666667  0.333333  0.246949  1
  Si  Si15  1  0.666667  0.333333  0.079411  1
  Si  Si16  1  0.666667  0.333333  0.417094  1
  Ge  Ge17  1  0.333333  0.666667  0.573731  1
