# generated using pymatgen
data_V2Zn(SeO3)4
_symmetry_space_group_name_H-M   'P 1'
_cell_length_a   8.19646901
_cell_length_b   8.21220987
_cell_length_c   8.34752696
_cell_angle_alpha   87.21896040
_cell_angle_beta   89.99756668
_cell_angle_gamma   89.99565494
_symmetry_Int_Tables_number   1
_chemical_formula_structural   V2Zn(SeO3)4
_chemical_formula_sum   'V4 Zn2 Se8 O24'
_cell_volume   561.21966058
_cell_formula_units_Z   2
loop_
 _symmetry_equiv_pos_site_id
 _symmetry_equiv_pos_as_xyz
  1  'x, y, z'
loop_
 _atom_site_type_symbol
 _atom_site_label
 _atom_site_symmetry_multiplicity
 _atom_site_fract_x
 _atom_site_fract_y
 _atom_site_fract_z
 _atom_site_occupancy
  V  V0  1  0.759823  0.749986  0.000744  1
  V  V1  1  0.738036  0.245770  0.507556  1
  V  V2  1  0.240232  0.249967  0.000678  1
  V  V3  1  0.261957  0.745741  0.507601  1
  Zn  Zn4  1  0.604060  0.340332  0.162610  1
  Zn  Zn5  1  0.395934  0.840435  0.162691  1
  Se  Se6  1  0.093408  0.551347  0.188554  1
  Se  Se7  1  0.906640  0.051463  0.188455  1
  Se  Se8  1  0.571987  0.450666  0.821395  1
  Se  Se9  1  0.321501  0.166028  0.413288  1
  Se  Se10  1  0.055356  0.419649  0.682445  1
  Se  Se11  1  0.428080  0.950597  0.821403  1
  Se  Se12  1  0.678500  0.666017  0.413239  1
  Se  Se13  1  0.944607  0.919714  0.682482  1
  O  O14  1  0.965321  0.706869  0.118699  1
  O  O15  1  0.309543  0.004361  0.988385  1
  O  O16  1  0.166947  0.258536  0.777406  1
  O  O17  1  0.669371  0.457216  0.368321  1
  O  O18  1  0.751960  0.173749  0.269009  1
  O  O19  1  0.188615  0.496814  0.017154  1
  O  O20  1  0.215057  0.516060  0.578795  1
  O  O21  1  0.626133  0.755521  0.224726  1
  O  O22  1  0.717815  0.347455  0.722855  1
  O  O23  1  0.330596  0.957203  0.368377  1
  O  O24  1  0.975563  0.314439  0.524657  1
  O  O25  1  0.480092  0.292353  0.937821  1
  O  O26  1  0.833123  0.758508  0.777595  1
  O  O27  1  0.507457  0.693559  0.521343  1
  O  O28  1  0.282225  0.847480  0.722904  1
  O  O29  1  0.247998  0.673755  0.268993  1
  O  O30  1  0.373884  0.255437  0.224715  1
  O  O31  1  0.034504  0.207139  0.118584  1
  O  O32  1  0.024392  0.814433  0.524770  1
  O  O33  1  0.519837  0.792227  0.937879  1
  O  O34  1  0.690504  0.504235  0.988352  1
  O  O35  1  0.784905  0.016001  0.578857  1
  O  O36  1  0.492546  0.193495  0.521369  1
  O  O37  1  0.811491  0.996841  0.017091  1
