# generated using pymatgen
data_DyY9Cd3Fe
_symmetry_space_group_name_H-M   'P 1'
_cell_length_a   9.61336838
_cell_length_b   9.61486532
_cell_length_c   9.79977183
_cell_angle_alpha   89.99999913
_cell_angle_beta   89.93940953
_cell_angle_gamma   120.00514625
_symmetry_Int_Tables_number   1
_chemical_formula_structural   DyY9Cd3Fe
_chemical_formula_sum   'Dy2 Y18 Cd6 Fe2'
_cell_volume   784.40894611
_cell_formula_units_Z   2
loop_
 _symmetry_equiv_pos_site_id
 _symmetry_equiv_pos_as_xyz
  1  'x, y, z'
loop_
 _atom_site_type_symbol
 _atom_site_label
 _atom_site_symmetry_multiplicity
 _atom_site_fract_x
 _atom_site_fract_y
 _atom_site_fract_z
 _atom_site_occupancy
  Dy  Dy0  1  0.212467  0.787352  0.435449  1
  Dy  Dy1  1  0.212467  0.425116  0.435449  1
  Y  Y2  1  0.000300  0.000150  0.499726  1
  Y  Y3  1  0.000005  0.000003  0.000135  1
  Y  Y4  1  0.541548  0.458308  0.250118  1
  Y  Y5  1  0.541548  0.083240  0.250118  1
  Y  Y6  1  0.916943  0.458472  0.250242  1
  Y  Y7  1  0.458175  0.541742  0.749856  1
  Y  Y8  1  0.458175  0.916433  0.749856  1
  Y  Y9  1  0.083655  0.541827  0.749707  1
  Y  Y10  1  0.575812  0.787907  0.436215  1
  Y  Y11  1  0.788088  0.212163  0.563884  1
  Y  Y12  1  0.788088  0.575923  0.563884  1
  Y  Y13  1  0.424048  0.212023  0.563780  1
  Y  Y14  1  0.787942  0.212104  0.936051  1
  Y  Y15  1  0.787942  0.575836  0.936051  1
  Y  Y16  1  0.424124  0.212061  0.936105  1
  Y  Y17  1  0.212052  0.788008  0.064094  1
  Y  Y18  1  0.212052  0.424047  0.064094  1
  Y  Y19  1  0.575706  0.787854  0.064022  1
  Cd  Cd20  1  0.885304  0.114688  0.249973  1
  Cd  Cd21  1  0.885304  0.770615  0.249973  1
  Cd  Cd22  1  0.229395  0.114697  0.249897  1
  Cd  Cd23  1  0.114639  0.885324  0.750117  1
  Cd  Cd24  1  0.114639  0.229315  0.750117  1
  Cd  Cd25  1  0.770616  0.885308  0.750025  1
  Fe  Fe26  1  0.332306  0.666154  0.251230  1
  Fe  Fe27  1  0.666659  0.333329  0.749832  1
