# generated using pymatgen
data_Sc4Be8FeRu9
_symmetry_space_group_name_H-M   'P 1'
_cell_length_a   3.21470400
_cell_length_b   8.65017178
_cell_length_c   10.06429880
_cell_angle_alpha   91.08762723
_cell_angle_beta   90.00000000
_cell_angle_gamma   90.00000000
_symmetry_Int_Tables_number   1
_chemical_formula_structural   Sc4Be8FeRu9
_chemical_formula_sum   'Sc4 Be8 Fe1 Ru9'
_cell_volume   279.81500030
_cell_formula_units_Z   1
loop_
 _symmetry_equiv_pos_site_id
 _symmetry_equiv_pos_as_xyz
  1  'x, y, z'
loop_
 _atom_site_type_symbol
 _atom_site_label
 _atom_site_symmetry_multiplicity
 _atom_site_fract_x
 _atom_site_fract_y
 _atom_site_fract_z
 _atom_site_occupancy
  Sc  Sc0  1  0.500000  0.830255  0.189217  1
  Sc  Sc1  1  0.500000  0.169745  0.810783  1
  Sc  Sc2  1  0.500000  0.663247  0.684460  1
  Sc  Sc3  1  0.500000  0.336753  0.315540  1
  Be  Be4  1  0.500000  0.965206  0.596205  1
  Be  Be5  1  0.500000  0.034794  0.403795  1
  Be  Be6  1  0.500000  0.839628  0.908676  1
  Be  Be7  1  0.500000  0.160372  0.091324  1
  Be  Be8  1  0.500000  0.657794  0.407777  1
  Be  Be9  1  0.500000  0.342206  0.592223  1
  Be  Be10  1  0.500000  0.468326  0.903945  1
  Be  Be11  1  0.500000  0.531674  0.096055  1
  Fe  Fe12  1  0.000000  0.000000  0.000000  1
  Ru  Ru13  1  0.000000  0.661518  0.960265  1
  Ru  Ru14  1  0.000000  0.338482  0.039735  1
  Ru  Ru15  1  0.000000  0.841274  0.455049  1
  Ru  Ru16  1  0.000000  0.158726  0.544951  1
  Ru  Ru17  1  0.000000  0.409642  0.754342  1
  Ru  Ru18  1  0.000000  0.590358  0.245658  1
  Ru  Ru19  1  0.000000  0.500000  0.500000  1
  Ru  Ru20  1  0.000000  0.915514  0.755482  1
  Ru  Ru21  1  0.000000  0.084486  0.244518  1
