# generated using pymatgen
data_Sr2NiRh
_symmetry_space_group_name_H-M   'P 1'
_cell_length_a   4.21673000
_cell_length_b   4.21672924
_cell_length_c   15.79638100
_cell_angle_alpha   90.00000000
_cell_angle_beta   90.00000000
_cell_angle_gamma   119.99999028
_symmetry_Int_Tables_number   1
_chemical_formula_structural   Sr2NiRh
_chemical_formula_sum   'Sr4 Ni2 Rh2'
_cell_volume   243.24268212
_cell_formula_units_Z   2
loop_
 _symmetry_equiv_pos_site_id
 _symmetry_equiv_pos_as_xyz
  1  'x, y, z'
loop_
 _atom_site_type_symbol
 _atom_site_label
 _atom_site_symmetry_multiplicity
 _atom_site_fract_x
 _atom_site_fract_y
 _atom_site_fract_z
 _atom_site_occupancy
  Sr  Sr0  1  0.333333  0.666666  0.126037  1
  Sr  Sr1  1  0.333333  0.666666  0.373963  1
  Sr  Sr2  1  0.666666  0.333333  0.626036  1
  Sr  Sr3  1  0.666666  0.333333  0.873964  1
  Ni  Ni4  1  0.000000  0.000000  0.250000  1
  Ni  Ni5  1  0.000000  0.000000  0.750000  1
  Rh  Rh6  1  0.666666  0.333333  0.250000  1
  Rh  Rh7  1  0.333333  0.666666  0.750000  1
