# generated using pymatgen
data_Th3Sc13(CdCo)4
_symmetry_space_group_name_H-M   'P 1'
_cell_length_a   9.08571767
_cell_length_b   9.10415338
_cell_length_c   9.10415300
_cell_angle_alpha   59.99999776
_cell_angle_beta   59.93285337
_cell_angle_gamma   59.93285342
_symmetry_Int_Tables_number   1
_chemical_formula_structural   Th3Sc13(CdCo)4
_chemical_formula_sum   'Th3 Sc13 Cd4 Co4'
_cell_volume   531.96348826
_cell_formula_units_Z   1
loop_
 _symmetry_equiv_pos_site_id
 _symmetry_equiv_pos_as_xyz
  1  'x, y, z'
loop_
 _atom_site_type_symbol
 _atom_site_label
 _atom_site_symmetry_multiplicity
 _atom_site_fract_x
 _atom_site_fract_y
 _atom_site_fract_z
 _atom_site_occupancy
  Th  Th0  1  0.342761  0.349056  0.349056  1
  Th  Th1  1  0.342761  0.349056  0.959125  1
  Th  Th2  1  0.342761  0.959125  0.349056  1
  Sc  Sc3  1  0.947410  0.350863  0.350863  1
  Sc  Sc4  1  0.817064  0.185591  0.185591  1
  Sc  Sc5  1  0.184956  0.816274  0.816274  1
  Sc  Sc6  1  0.184956  0.816274  0.182496  1
  Sc  Sc7  1  0.817064  0.185591  0.811755  1
  Sc  Sc8  1  0.184956  0.182496  0.816274  1
  Sc  Sc9  1  0.817064  0.811755  0.185591  1
  Sc  Sc10  1  0.934331  0.565097  0.565097  1
  Sc  Sc11  1  0.566703  0.932667  0.932667  1
  Sc  Sc12  1  0.566703  0.932667  0.567965  1
  Sc  Sc13  1  0.934331  0.565097  0.935475  1
  Sc  Sc14  1  0.566703  0.567965  0.932667  1
  Sc  Sc15  1  0.934331  0.935475  0.565097  1
  Cd  Cd16  1  0.591061  0.581444  0.581444  1
  Cd  Cd17  1  0.591061  0.581444  0.246050  1
  Cd  Cd18  1  0.591061  0.246050  0.581444  1
  Cd  Cd19  1  0.244886  0.585038  0.585038  1
  Co  Co20  1  0.139950  0.141062  0.141062  1
  Co  Co21  1  0.139950  0.141062  0.577927  1
  Co  Co22  1  0.139950  0.577927  0.141062  1
  Co  Co23  1  0.577222  0.140926  0.140926  1
