# generated using pymatgen
data_Ta5Si2Ge
_symmetry_space_group_name_H-M   'P 1'
_cell_length_a   7.57501390
_cell_length_b   7.57501358
_cell_length_c   7.57501514
_cell_angle_alpha   128.27911295
_cell_angle_beta   128.27911442
_cell_angle_gamma   76.17331252
_symmetry_Int_Tables_number   1
_chemical_formula_structural   Ta5Si2Ge
_chemical_formula_sum   'Ta10 Si4 Ge2'
_cell_volume   260.35220694
_cell_formula_units_Z   2
loop_
 _symmetry_equiv_pos_site_id
 _symmetry_equiv_pos_as_xyz
  1  'x, y, z'
loop_
 _atom_site_type_symbol
 _atom_site_label
 _atom_site_symmetry_multiplicity
 _atom_site_fract_x
 _atom_site_fract_y
 _atom_site_fract_z
 _atom_site_occupancy
  Ta  Ta0  1  0.013883  0.187624  0.500000  1
  Ta  Ta1  1  0.513883  0.013883  0.826260  1
  Ta  Ta2  1  0.187624  0.687624  0.173740  1
  Ta  Ta3  1  0.486117  0.986117  0.173740  1
  Ta  Ta4  1  0.687624  0.513883  0.500000  1
  Ta  Ta5  1  0.986117  0.812376  0.500000  1
  Ta  Ta6  1  0.312376  0.486117  0.500000  1
  Ta  Ta7  1  0.812376  0.312376  0.826260  1
  Ta  Ta8  1  0.500000  0.500000  0.000000  1
  Ta  Ta9  1  0.000000  0.000000  0.000000  1
  Si  Si10  1  0.131203  0.631203  0.762407  1
  Si  Si11  1  0.631203  0.868797  0.500000  1
  Si  Si12  1  0.368797  0.131203  0.500000  1
  Si  Si13  1  0.868797  0.368797  0.237593  1
  Ge  Ge14  1  0.750000  0.750000  0.000000  1
  Ge  Ge15  1  0.250000  0.250000  0.000000  1
