# generated using pymatgen
data_CaHo(AgO2)4
_symmetry_space_group_name_H-M   'P 1'
_cell_length_a   6.62546815
_cell_length_b   6.62546816
_cell_length_c   6.62546837
_cell_angle_alpha   126.19312563
_cell_angle_beta   126.19312406
_cell_angle_gamma   79.57095393
_symmetry_Int_Tables_number   1
_chemical_formula_structural   CaHo(AgO2)4
_chemical_formula_sum   'Ca1 Ho1 Ag4 O8'
_cell_volume   183.03640376
_cell_formula_units_Z   1
loop_
 _symmetry_equiv_pos_site_id
 _symmetry_equiv_pos_as_xyz
  1  'x, y, z'
loop_
 _atom_site_type_symbol
 _atom_site_label
 _atom_site_symmetry_multiplicity
 _atom_site_fract_x
 _atom_site_fract_y
 _atom_site_fract_z
 _atom_site_occupancy
  Ca  Ca0  1  0.000000  0.000000  0.000000  1
  Ho  Ho1  1  0.750000  0.250000  0.500000  1
  Ag  Ag2  1  0.370394  0.126304  0.745728  1
  Ag  Ag3  1  0.380575  0.624666  0.254272  1
  Ag  Ag4  1  0.873696  0.619425  0.244091  1
  Ag  Ag5  1  0.375334  0.629606  0.755909  1
  O  O6  1  0.031577  0.003299  0.639790  1
  O  O7  1  0.608214  0.968423  0.971722  1
  O  O8  1  0.996701  0.636491  0.028278  1
  O  O9  1  0.410401  0.867268  0.164792  1
  O  O10  1  0.754391  0.589599  0.456867  1
  O  O11  1  0.132732  0.297524  0.543133  1
  O  O12  1  0.363509  0.391786  0.360210  1
  O  O13  1  0.702476  0.245609  0.835208  1
