# generated using pymatgen
data_Sm6DySn23Ru6
_symmetry_space_group_name_H-M   'P 1'
_cell_length_a   9.91971111
_cell_length_b   9.95318693
_cell_length_c   10.13999070
_cell_angle_alpha   90.00000142
_cell_angle_beta   89.94235721
_cell_angle_gamma   120.11168813
_symmetry_Int_Tables_number   1
_chemical_formula_structural   Sm6DySn23Ru6
_chemical_formula_sum   'Sm6 Dy1 Sn23 Ru6'
_cell_volume   866.04250009
_cell_formula_units_Z   1
loop_
 _symmetry_equiv_pos_site_id
 _symmetry_equiv_pos_as_xyz
  1  'x, y, z'
loop_
 _atom_site_type_symbol
 _atom_site_label
 _atom_site_symmetry_multiplicity
 _atom_site_fract_x
 _atom_site_fract_y
 _atom_site_fract_z
 _atom_site_occupancy
  Sm  Sm0  1  0.999587  0.999793  0.999773  1
  Sm  Sm1  1  0.483044  0.516576  0.304163  1
  Sm  Sm2  1  0.516674  0.483292  0.695988  1
  Sm  Sm3  1  0.483044  0.966468  0.304163  1
  Sm  Sm4  1  0.516674  0.033382  0.695988  1
  Sm  Sm5  1  0.034407  0.517203  0.304841  1
  Dy  Dy6  1  0.968418  0.484209  0.696089  1
  Sn  Sn7  1  0.348101  0.000216  0.999659  1
  Sn  Sn8  1  0.651511  0.999528  0.999975  1
  Sn  Sn9  1  0.999666  0.347930  0.999790  1
  Sn  Sn10  1  0.999666  0.651736  0.999790  1
  Sn  Sn11  1  0.651511  0.651983  0.999975  1
  Sn  Sn12  1  0.348101  0.347885  0.999659  1
  Sn  Sn13  1  0.332629  0.666315  0.820236  1
  Sn  Sn14  1  0.666926  0.333463  0.179264  1
  Sn  Sn15  1  0.999689  0.999845  0.500280  1
  Sn  Sn16  1  0.781646  0.221886  0.462770  1
  Sn  Sn17  1  0.217748  0.777628  0.538870  1
  Sn  Sn18  1  0.781646  0.559760  0.462770  1
  Sn  Sn19  1  0.217748  0.440119  0.538870  1
  Sn  Sn20  1  0.439706  0.219853  0.461897  1
  Sn  Sn21  1  0.559959  0.779979  0.538136  1
  Sn  Sn22  1  0.333368  0.666684  0.121704  1
  Sn  Sn23  1  0.670045  0.335022  0.876400  1
  Sn  Sn24  1  0.116059  0.883072  0.274626  1
  Sn  Sn25  1  0.883811  0.118085  0.725207  1
  Sn  Sn26  1  0.116059  0.232986  0.274626  1
  Sn  Sn27  1  0.883811  0.765728  0.725207  1
  Sn  Sn28  1  0.766698  0.883348  0.272204  1
  Sn  Sn29  1  0.233036  0.116519  0.727831  1
  Ru  Ru30  1  0.829799  0.169034  0.202084  1
  Ru  Ru31  1  0.169467  0.829615  0.797732  1
  Ru  Ru32  1  0.829799  0.660765  0.202084  1
  Ru  Ru33  1  0.169467  0.339853  0.797732  1
  Ru  Ru34  1  0.338599  0.169299  0.201529  1
  Ru  Ru35  1  0.661884  0.830942  0.798090  1
