# generated using pymatgen
data_Ho12Al3Tc2
_symmetry_space_group_name_H-M   'P 1'
_cell_length_a   8.39068146
_cell_length_b   8.39068125
_cell_length_c   8.39068191
_cell_angle_alpha   110.22395932
_cell_angle_beta   110.22394087
_cell_angle_gamma   107.97603178
_symmetry_Int_Tables_number   1
_chemical_formula_structural   Ho12Al3Tc2
_chemical_formula_sum   'Ho12 Al3 Tc2'
_cell_volume   454.51544293
_cell_formula_units_Z   1
loop_
 _symmetry_equiv_pos_site_id
 _symmetry_equiv_pos_as_xyz
  1  'x, y, z'
loop_
 _atom_site_type_symbol
 _atom_site_label
 _atom_site_symmetry_multiplicity
 _atom_site_fract_x
 _atom_site_fract_y
 _atom_site_fract_z
 _atom_site_occupancy
  Ho  Ho0  1  0.317665  0.317665  0.635330  1
  Ho  Ho1  1  0.682335  0.682335  0.364670  1
  Ho  Ho2  1  0.317665  0.682335  0.000000  1
  Ho  Ho3  1  0.682335  0.317665  0.000000  1
  Ho  Ho4  1  0.447084  0.193009  0.254075  1
  Ho  Ho5  1  0.552916  0.806991  0.745925  1
  Ho  Ho6  1  0.938934  0.193009  0.745925  1
  Ho  Ho7  1  0.193009  0.938934  0.745925  1
  Ho  Ho8  1  0.061066  0.806991  0.254075  1
  Ho  Ho9  1  0.806991  0.061066  0.254075  1
  Ho  Ho10  1  0.193009  0.447084  0.254075  1
  Ho  Ho11  1  0.806991  0.552916  0.745925  1
  Al  Al12  1  0.000000  0.000000  0.000000  1
  Al  Al13  1  0.500000  0.000000  0.500000  1
  Al  Al14  1  0.000000  0.500000  0.500000  1
  Tc  Tc15  1  0.335729  0.335729  0.000000  1
  Tc  Tc16  1  0.664271  0.664271  0.000000  1
