# generated using pymatgen
data_Tb3Pr3Y2(CdPt)2
_symmetry_space_group_name_H-M   'P 1'
_cell_length_a   9.82341170
_cell_length_b   9.85164144
_cell_length_c   9.85164033
_cell_angle_alpha   59.81050361
_cell_angle_beta   60.09474239
_cell_angle_gamma   60.09473878
_symmetry_Int_Tables_number   1
_chemical_formula_structural   Tb3Pr3Y2(CdPt)2
_chemical_formula_sum   'Tb6 Pr6 Y4 Cd4 Pt4'
_cell_volume   674.15122952
_cell_formula_units_Z   2
loop_
 _symmetry_equiv_pos_site_id
 _symmetry_equiv_pos_as_xyz
  1  'x, y, z'
loop_
 _atom_site_type_symbol
 _atom_site_label
 _atom_site_symmetry_multiplicity
 _atom_site_fract_x
 _atom_site_fract_y
 _atom_site_fract_z
 _atom_site_occupancy
  Tb  Tb0  1  0.349572  0.350634  0.350634  1
  Tb  Tb1  1  0.350634  0.349572  0.949161  1
  Tb  Tb2  1  0.350634  0.949161  0.349572  1
  Tb  Tb3  1  0.949161  0.350634  0.350634  1
  Tb  Tb4  1  0.811686  0.188314  0.188314  1
  Tb  Tb5  1  0.188314  0.811686  0.811686  1
  Pr  Pr6  1  0.938191  0.561809  0.561809  1
  Pr  Pr7  1  0.561809  0.938191  0.938191  1
  Pr  Pr8  1  0.561322  0.938678  0.561322  1
  Pr  Pr9  1  0.938678  0.561322  0.938678  1
  Pr  Pr10  1  0.561322  0.561322  0.938678  1
  Pr  Pr11  1  0.938678  0.938678  0.561322  1
  Y  Y12  1  0.188863  0.811137  0.188863  1
  Y  Y13  1  0.811137  0.188863  0.811137  1
  Y  Y14  1  0.188863  0.188863  0.811137  1
  Y  Y15  1  0.811137  0.811137  0.188863  1
  Cd  Cd16  1  0.580126  0.579286  0.579286  1
  Cd  Cd17  1  0.579286  0.580126  0.261299  1
  Cd  Cd18  1  0.579286  0.261299  0.580126  1
  Cd  Cd19  1  0.261299  0.579286  0.579286  1
  Pt  Pt20  1  0.142470  0.143322  0.143322  1
  Pt  Pt21  1  0.143322  0.142470  0.570885  1
  Pt  Pt22  1  0.143322  0.570885  0.142470  1
  Pt  Pt23  1  0.570885  0.143322  0.143322  1
