# generated using pymatgen
data_DyEr15(In3Ni)2
_symmetry_space_group_name_H-M   'P 1'
_cell_length_a   10.36591000
_cell_length_b   10.35611735
_cell_length_c   6.90377602
_cell_angle_alpha   89.99220360
_cell_angle_beta   90.00000000
_cell_angle_gamma   120.03128484
_symmetry_Int_Tables_number   1
_chemical_formula_structural   DyEr15(In3Ni)2
_chemical_formula_sum   'Dy1 Er15 In6 Ni2'
_cell_volume   641.63008608
_cell_formula_units_Z   1
loop_
 _symmetry_equiv_pos_site_id
 _symmetry_equiv_pos_as_xyz
  1  'x, y, z'
loop_
 _atom_site_type_symbol
 _atom_site_label
 _atom_site_symmetry_multiplicity
 _atom_site_fract_x
 _atom_site_fract_y
 _atom_site_fract_z
 _atom_site_occupancy
  Dy  Dy0  1  0.532538  0.065075  0.524211  1
  Er  Er1  1  0.934744  0.467495  0.524640  1
  Er  Er2  1  0.532751  0.467495  0.524640  1
  Er  Er3  1  0.467288  0.934575  0.024378  1
  Er  Er4  1  0.065280  0.532559  0.024617  1
  Er  Er5  1  0.467278  0.532559  0.024617  1
  Er  Er6  1  0.177503  0.355007  0.730673  1
  Er  Er7  1  0.645150  0.822313  0.730796  1
  Er  Er8  1  0.177162  0.822313  0.730796  1
  Er  Er9  1  0.822422  0.644844  0.230590  1
  Er  Er10  1  0.354783  0.177544  0.230317  1
  Er  Er11  1  0.822761  0.177544  0.230317  1
  Er  Er12  1  0.666834  0.333668  0.908579  1
  Er  Er13  1  0.333178  0.666357  0.408165  1
  Er  Er14  1  0.999975  0.999951  0.506775  1
  Er  Er15  1  0.999997  0.999994  0.006954  1
  In  In16  1  0.837062  0.674122  0.766966  1
  In  In17  1  0.325590  0.162979  0.767164  1
  In  In18  1  0.837390  0.162979  0.767164  1
  In  In19  1  0.162921  0.325842  0.266955  1
  In  In20  1  0.674189  0.837122  0.266861  1
  In  In21  1  0.162932  0.837122  0.266861  1
  Ni  Ni22  1  0.666891  0.333780  0.296156  1
  Ni  Ni23  1  0.333381  0.666762  0.796489  1
