# generated using pymatgen
data_Rb5HfBi3
_symmetry_space_group_name_H-M   'P 1'
_cell_length_a   9.41118900
_cell_length_b   10.25147697
_cell_length_c   19.87135093
_cell_angle_alpha   59.55773002
_cell_angle_beta   90.00000000
_cell_angle_gamma   90.00000000
_symmetry_Int_Tables_number   1
_chemical_formula_structural   Rb5HfBi3
_chemical_formula_sum   'Rb20 Hf4 Bi12'
_cell_volume   1652.86041347
_cell_formula_units_Z   4
loop_
 _symmetry_equiv_pos_site_id
 _symmetry_equiv_pos_as_xyz
  1  'x, y, z'
loop_
 _atom_site_type_symbol
 _atom_site_label
 _atom_site_symmetry_multiplicity
 _atom_site_fract_x
 _atom_site_fract_y
 _atom_site_fract_z
 _atom_site_occupancy
  Rb  Rb0  1  0.168022  0.158179  0.260902  1
  Rb  Rb1  1  0.668022  0.841821  0.239098  1
  Rb  Rb2  1  0.831978  0.841821  0.739098  1
  Rb  Rb3  1  0.331978  0.158179  0.760902  1
  Rb  Rb4  1  0.168914  0.840626  0.579756  1
  Rb  Rb5  1  0.668914  0.159374  0.920244  1
  Rb  Rb6  1  0.831086  0.159374  0.420244  1
  Rb  Rb7  1  0.331086  0.840626  0.079756  1
  Rb  Rb8  1  0.003357  0.909681  0.907144  1
  Rb  Rb9  1  0.503357  0.090319  0.592856  1
  Rb  Rb10  1  0.996643  0.090319  0.092856  1
  Rb  Rb11  1  0.496643  0.909681  0.407144  1
  Rb  Rb12  1  0.515815  0.736843  0.923179  1
  Rb  Rb13  1  0.015815  0.263157  0.576821  1
  Rb  Rb14  1  0.484185  0.263157  0.076821  1
  Rb  Rb15  1  0.984185  0.736843  0.423179  1
  Rb  Rb16  1  0.989899  0.456028  0.742881  1
  Rb  Rb17  1  0.489899  0.543972  0.757119  1
  Rb  Rb18  1  0.010101  0.543972  0.257119  1
  Rb  Rb19  1  0.510101  0.456028  0.242881  1
  Hf  Hf20  1  0.368323  0.507694  0.419755  1
  Hf  Hf21  1  0.868323  0.492306  0.080245  1
  Hf  Hf22  1  0.631677  0.492306  0.580245  1
  Hf  Hf23  1  0.131677  0.507694  0.919755  1
  Bi  Bi24  1  0.250251  0.244478  0.921639  1
  Bi  Bi25  1  0.750251  0.755522  0.578361  1
  Bi  Bi26  1  0.749749  0.755522  0.078361  1
  Bi  Bi27  1  0.249749  0.244478  0.421639  1
  Bi  Bi28  1  0.180627  0.514825  0.064490  1
  Bi  Bi29  1  0.680627  0.485175  0.435510  1
  Bi  Bi30  1  0.819373  0.485175  0.935510  1
  Bi  Bi31  1  0.319373  0.514825  0.564490  1
  Bi  Bi32  1  0.280827  0.785735  0.281065  1
  Bi  Bi33  1  0.780827  0.214265  0.218935  1
  Bi  Bi34  1  0.719173  0.214265  0.718935  1
  Bi  Bi35  1  0.219173  0.785735  0.781065  1
