# generated using pymatgen
data_Ca4Ge3SbPd8
_symmetry_space_group_name_H-M   'P 1'
_cell_length_a   5.75560831
_cell_length_b   7.14877400
_cell_length_c   7.63735763
_cell_angle_alpha   90.00000000
_cell_angle_beta   90.46685714
_cell_angle_gamma   90.00000000
_symmetry_Int_Tables_number   1
_chemical_formula_structural   Ca4Ge3SbPd8
_chemical_formula_sum   'Ca4 Ge3 Sb1 Pd8'
_cell_volume   314.23279527
_cell_formula_units_Z   1
loop_
 _symmetry_equiv_pos_site_id
 _symmetry_equiv_pos_as_xyz
  1  'x, y, z'
loop_
 _atom_site_type_symbol
 _atom_site_label
 _atom_site_symmetry_multiplicity
 _atom_site_fract_x
 _atom_site_fract_y
 _atom_site_fract_z
 _atom_site_occupancy
  Ca  Ca0  1  0.146535  0.750000  0.033242  1
  Ca  Ca1  1  0.636022  0.250000  0.477559  1
  Ca  Ca2  1  0.361103  0.750000  0.519188  1
  Ca  Ca3  1  0.857233  0.250000  0.971643  1
  Ge  Ge4  1  0.357949  0.250000  0.126295  1
  Ge  Ge5  1  0.864263  0.750000  0.373821  1
  Ge  Ge6  1  0.137704  0.250000  0.620955  1
  Sb  Sb7  1  0.648313  0.750000  0.875317  1
  Pd  Pd8  1  0.589386  0.548989  0.184301  1
  Pd  Pd9  1  0.589386  0.951010  0.184301  1
  Pd  Pd10  1  0.096569  0.052644  0.325051  1
  Pd  Pd11  1  0.096569  0.447357  0.325051  1
  Pd  Pd12  1  0.917828  0.551581  0.660338  1
  Pd  Pd13  1  0.917828  0.948418  0.660338  1
  Pd  Pd14  1  0.391660  0.058775  0.831296  1
  Pd  Pd15  1  0.391660  0.441226  0.831296  1
