# generated using pymatgen
data_Li4ErSc3Pt4
_symmetry_space_group_name_H-M   'P 1'
_cell_length_a   3.88131000
_cell_length_b   6.78873473
_cell_length_c   8.17373700
_cell_angle_alpha   89.94860986
_cell_angle_beta   90.00000000
_cell_angle_gamma   90.00000000
_symmetry_Int_Tables_number   1
_chemical_formula_structural   Li4ErSc3Pt4
_chemical_formula_sum   'Li4 Er1 Sc3 Pt4'
_cell_volume   215.37121353
_cell_formula_units_Z   1
loop_
 _symmetry_equiv_pos_site_id
 _symmetry_equiv_pos_as_xyz
  1  'x, y, z'
loop_
 _atom_site_type_symbol
 _atom_site_label
 _atom_site_symmetry_multiplicity
 _atom_site_fract_x
 _atom_site_fract_y
 _atom_site_fract_z
 _atom_site_occupancy
  Li  Li0  1  0.250000  0.627995  0.555874  1
  Li  Li1  1  0.250000  0.122544  0.943664  1
  Li  Li2  1  0.750000  0.373834  0.439586  1
  Li  Li3  1  0.750000  0.876177  0.059839  1
  Er  Er4  1  0.750000  0.450596  0.823955  1
  Sc  Sc5  1  0.250000  0.047112  0.324445  1
  Sc  Sc6  1  0.250000  0.549472  0.178783  1
  Sc  Sc7  1  0.750000  0.949966  0.671584  1
  Pt  Pt8  1  0.250000  0.228936  0.625143  1
  Pt  Pt9  1  0.250000  0.749166  0.871993  1
  Pt  Pt10  1  0.750000  0.763090  0.368968  1
  Pt  Pt11  1  0.750000  0.261116  0.136165  1
