# generated using pymatgen
data_HoIn(SbO4)2
_symmetry_space_group_name_H-M   'P 1'
_cell_length_a   5.35250967
_cell_length_b   7.54364523
_cell_length_c   7.61935978
_cell_angle_alpha   80.37706938
_cell_angle_beta   92.06116555
_cell_angle_gamma   88.20468456
_symmetry_Int_Tables_number   1
_chemical_formula_structural   HoIn(SbO4)2
_chemical_formula_sum   'Ho2 In2 Sb4 O16'
_cell_volume   302.90729910
_cell_formula_units_Z   2
loop_
 _symmetry_equiv_pos_site_id
 _symmetry_equiv_pos_as_xyz
  1  'x, y, z'
loop_
 _atom_site_type_symbol
 _atom_site_label
 _atom_site_symmetry_multiplicity
 _atom_site_fract_x
 _atom_site_fract_y
 _atom_site_fract_z
 _atom_site_occupancy
  Ho  Ho0  1  0.257930  0.620238  0.132945  1
  Ho  Ho1  1  0.742070  0.379762  0.867055  1
  In  In2  1  0.772020  0.868085  0.831507  1
  In  In3  1  0.227980  0.131915  0.168493  1
  Sb  Sb4  1  0.748881  0.811907  0.325750  1
  Sb  Sb5  1  0.251119  0.188093  0.674250  1
  Sb  Sb6  1  0.269814  0.689743  0.658453  1
  Sb  Sb7  1  0.730186  0.310257  0.341547  1
  O  O8  1  0.433617  0.888047  0.187774  1
  O  O9  1  0.566383  0.111953  0.812226  1
  O  O10  1  0.998091  0.613599  0.821108  1
  O  O11  1  0.001909  0.386401  0.178892  1
  O  O12  1  0.924158  0.809789  0.099938  1
  O  O13  1  0.075842  0.190211  0.900062  1
  O  O14  1  0.483336  0.672041  0.885845  1
  O  O15  1  0.516664  0.327959  0.114155  1
  O  O16  1  0.600650  0.565173  0.327989  1
  O  O17  1  0.399350  0.434827  0.672011  1
  O  O18  1  0.119578  0.939082  0.679608  1
  O  O19  1  0.880422  0.060918  0.320392  1
  O  O20  1  0.589073  0.808101  0.562560  1
  O  O21  1  0.410927  0.191899  0.437440  1
  O  O22  1  0.082005  0.691593  0.427313  1
  O  O23  1  0.917995  0.308407  0.572687  1
