# generated using pymatgen
data_Th3AlIn2CuIr2
_symmetry_space_group_name_H-M   'P 1'
_cell_length_a   7.56215731
_cell_length_b   7.56215607
_cell_length_c   4.08382300
_cell_angle_alpha   90.00000000
_cell_angle_beta   90.00000000
_cell_angle_gamma   120.74613721
_symmetry_Int_Tables_number   1
_chemical_formula_structural   Th3AlIn2CuIr2
_chemical_formula_sum   'Th3 Al1 In2 Cu1 Ir2'
_cell_volume   200.71242664
_cell_formula_units_Z   1
loop_
 _symmetry_equiv_pos_site_id
 _symmetry_equiv_pos_as_xyz
  1  'x, y, z'
loop_
 _atom_site_type_symbol
 _atom_site_label
 _atom_site_symmetry_multiplicity
 _atom_site_fract_x
 _atom_site_fract_y
 _atom_site_fract_z
 _atom_site_occupancy
  Th  Th0  1  0.419995  0.004786  0.500000  1
  Th  Th1  1  0.004786  0.419995  0.500000  1
  Th  Th2  1  0.572063  0.572063  0.500000  1
  Al  Al3  1  0.242616  0.242616  0.000000  1
  In  In4  1  0.762480  0.001601  0.000000  1
  In  In5  1  0.001601  0.762480  0.000000  1
  Cu  Cu6  1  0.025190  0.025190  0.500000  1
  Ir  Ir7  1  0.326709  0.644560  0.000000  1
  Ir  Ir8  1  0.644560  0.326709  0.000000  1
