# generated using pymatgen
data_Hf10Al2GaBi3
_symmetry_space_group_name_H-M   'P 1'
_cell_length_a   5.56699930
_cell_length_b   8.36060571
_cell_length_c   8.31373776
_cell_angle_alpha   83.60008342
_cell_angle_beta   70.43917542
_cell_angle_gamma   70.55326664
_symmetry_Int_Tables_number   1
_chemical_formula_structural   Hf10Al2GaBi3
_chemical_formula_sum   'Hf10 Al2 Ga1 Bi3'
_cell_volume   343.81716951
_cell_formula_units_Z   1
loop_
 _symmetry_equiv_pos_site_id
 _symmetry_equiv_pos_as_xyz
  1  'x, y, z'
loop_
 _atom_site_type_symbol
 _atom_site_label
 _atom_site_symmetry_multiplicity
 _atom_site_fract_x
 _atom_site_fract_y
 _atom_site_fract_z
 _atom_site_occupancy
  Hf  Hf0  1  0.072435  0.136357  0.718772  1
  Hf  Hf1  1  0.932789  0.844796  0.289625  1
  Hf  Hf2  1  0.784853  0.293854  0.136440  1
  Hf  Hf3  1  0.417523  0.290112  0.874843  1
  Hf  Hf4  1  0.207635  0.709888  0.874843  1
  Hf  Hf5  1  0.578707  0.706146  0.136440  1
  Hf  Hf6  1  0.708792  0.863643  0.718772  1
  Hf  Hf7  1  0.277585  0.155204  0.289625  1
  Hf  Hf8  1  0.256751  0.500000  0.478545  1
  Hf  Hf9  1  0.764705  0.500000  0.478545  1
  Al  Al10  1  0.246696  0.000000  0.006608  1
  Al  Al11  1  0.746696  0.000000  0.006608  1
  Ga  Ga12  1  0.166394  0.500000  0.167212  1
  Bi  Bi13  1  0.839812  0.500000  0.820376  1
  Bi  Bi14  1  0.333116  0.832395  0.501373  1
  Bi  Bi15  1  0.665511  0.167605  0.501373  1
