# generated using pymatgen
data_Ho2V2Fe5Co5P7
_symmetry_space_group_name_H-M   'P 1'
_cell_length_a   9.03313409
_cell_length_b   9.02800734
_cell_length_c   3.62205800
_cell_angle_alpha   90.00000000
_cell_angle_beta   90.00000000
_cell_angle_gamma   120.27114439
_symmetry_Int_Tables_number   1
_chemical_formula_structural   Ho2V2Fe5Co5P7
_chemical_formula_sum   'Ho2 V2 Fe5 Co5 P7'
_cell_volume   255.10754528
_cell_formula_units_Z   1
loop_
 _symmetry_equiv_pos_site_id
 _symmetry_equiv_pos_as_xyz
  1  'x, y, z'
loop_
 _atom_site_type_symbol
 _atom_site_label
 _atom_site_symmetry_multiplicity
 _atom_site_fract_x
 _atom_site_fract_y
 _atom_site_fract_z
 _atom_site_occupancy
  Ho  Ho0  1  0.000787  0.001717  0.000000  1
  Ho  Ho1  1  0.332343  0.666116  0.500000  1
  V  V2  1  0.554210  0.116490  0.500000  1
  V  V3  1  0.565840  0.448897  0.500000  1
  Fe  Fe4  1  0.092781  0.390198  0.000000  1
  Fe  Fe5  1  0.786021  0.178675  0.000000  1
  Fe  Fe6  1  0.391561  0.215422  0.000000  1
  Fe  Fe7  1  0.825339  0.611098  0.000000  1
  Fe  Fe8  1  0.883222  0.428964  0.500000  1
  Co  Co9  1  0.293860  0.899767  0.000000  1
  Co  Co10  1  0.607079  0.705707  0.000000  1
  Co  Co11  1  0.720055  0.949736  0.500000  1
  Co  Co12  1  0.228657  0.282468  0.500000  1
  Co  Co13  1  0.052172  0.768115  0.500000  1
  P  P14  1  0.554473  0.921181  0.000000  1
  P  P15  1  0.365173  0.445382  0.000000  1
  P  P16  1  0.073712  0.626061  0.000000  1
  P  P17  1  0.955063  0.223222  0.500000  1
  P  P18  1  0.261439  0.043916  0.500000  1
  P  P19  1  0.785118  0.740487  0.500000  1
  P  P20  1  0.671097  0.336382  0.000000  1
