# generated using pymatgen
data_Rb3CuSe13
_symmetry_space_group_name_H-M   'P 1'
_cell_length_a   5.32853400
_cell_length_b   13.77176210
_cell_length_c   15.21362197
_cell_angle_alpha   86.16189000
_cell_angle_beta   90.00000000
_cell_angle_gamma   90.00000000
_symmetry_Int_Tables_number   1
_chemical_formula_structural   Rb3CuSe13
_chemical_formula_sum   'Rb6 Cu2 Se26'
_cell_volume   1113.92186668
_cell_formula_units_Z   2
loop_
 _symmetry_equiv_pos_site_id
 _symmetry_equiv_pos_as_xyz
  1  'x, y, z'
loop_
 _atom_site_type_symbol
 _atom_site_label
 _atom_site_symmetry_multiplicity
 _atom_site_fract_x
 _atom_site_fract_y
 _atom_site_fract_z
 _atom_site_occupancy
  Rb  Rb0  1  0.213691  0.161260  0.715671  1
  Rb  Rb1  1  0.213691  0.338740  0.284329  1
  Rb  Rb2  1  0.172583  0.250000  0.000000  1
  Rb  Rb3  1  0.827417  0.750000  0.000000  1
  Rb  Rb4  1  0.786309  0.838740  0.284329  1
  Rb  Rb5  1  0.786309  0.661260  0.715671  1
  Cu  Cu6  1  0.000000  0.500000  0.500000  1
  Cu  Cu7  1  0.000000  0.000000  0.500000  1
  Se  Se8  1  0.278369  0.547299  0.611564  1
  Se  Se9  1  0.652324  0.576501  0.273944  1
  Se  Se10  1  0.347676  0.076501  0.273944  1
  Se  Se11  1  0.347676  0.423499  0.726056  1
  Se  Se12  1  0.915746  0.535941  0.152681  1
  Se  Se13  1  0.915746  0.964059  0.847319  1
  Se  Se14  1  0.084254  0.464059  0.847319  1
  Se  Se15  1  0.084254  0.035941  0.152681  1
  Se  Se16  1  0.683199  0.419164  0.075693  1
  Se  Se17  1  0.652324  0.923499  0.726056  1
  Se  Se18  1  0.316801  0.580836  0.924307  1
  Se  Se19  1  0.316801  0.919164  0.075693  1
  Se  Se20  1  0.696413  0.264124  0.152141  1
  Se  Se21  1  0.696413  0.235876  0.847859  1
  Se  Se22  1  0.303587  0.735876  0.847859  1
  Se  Se23  1  0.303587  0.764124  0.152141  1
  Se  Se24  1  0.081077  0.649725  0.418506  1
  Se  Se25  1  0.081077  0.850275  0.581494  1
  Se  Se26  1  0.918923  0.350275  0.581494  1
  Se  Se27  1  0.918923  0.149725  0.418506  1
  Se  Se28  1  0.651051  0.250000  0.500000  1
  Se  Se29  1  0.348949  0.750000  0.500000  1
  Se  Se30  1  0.721631  0.452701  0.388436  1
  Se  Se31  1  0.721631  0.047299  0.611564  1
  Se  Se32  1  0.683199  0.080836  0.924307  1
  Se  Se33  1  0.278369  0.952701  0.388436  1
