# generated using pymatgen
data_Tb15Dy5(Bi2Ir)4
_symmetry_space_group_name_H-M   'P 1'
_cell_length_a   8.04005602
_cell_length_b   9.03896704
_cell_length_c   12.55166806
_cell_angle_alpha   90.00970800
_cell_angle_beta   89.99386081
_cell_angle_gamma   90.00508619
_symmetry_Int_Tables_number   1
_chemical_formula_structural   Tb15Dy5(Bi2Ir)4
_chemical_formula_sum   'Tb15 Dy5 Bi8 Ir4'
_cell_volume   912.17740976
_cell_formula_units_Z   1
loop_
 _symmetry_equiv_pos_site_id
 _symmetry_equiv_pos_as_xyz
  1  'x, y, z'
loop_
 _atom_site_type_symbol
 _atom_site_label
 _atom_site_symmetry_multiplicity
 _atom_site_fract_x
 _atom_site_fract_y
 _atom_site_fract_z
 _atom_site_occupancy
  Tb  Tb0  1  0.840951  0.749976  0.793047  1
  Tb  Tb1  1  0.159020  0.250016  0.206961  1
  Tb  Tb2  1  0.340945  0.250027  0.706964  1
  Tb  Tb3  1  0.659067  0.749980  0.293017  1
  Tb  Tb4  1  0.376443  0.749962  0.693241  1
  Tb  Tb5  1  0.623555  0.250039  0.306758  1
  Tb  Tb6  1  0.876436  0.250017  0.806782  1
  Tb  Tb7  1  0.123515  0.749972  0.193221  1
  Tb  Tb8  1  0.946112  0.749958  0.501301  1
  Tb  Tb9  1  0.053898  0.250037  0.498702  1
  Tb  Tb10  1  0.446127  0.250019  0.998701  1
  Tb  Tb11  1  0.553941  0.749983  0.001302  1
  Tb  Tb12  1  0.676537  0.041806  0.566202  1
  Tb  Tb13  1  0.323461  0.958206  0.433801  1
  Tb  Tb14  1  0.176467  0.958219  0.933827  1
  Dy  Dy15  1  0.323731  0.541763  0.433861  1
  Dy  Dy16  1  0.823674  0.041795  0.066162  1
  Dy  Dy17  1  0.676262  0.458218  0.566136  1
  Dy  Dy18  1  0.823743  0.458207  0.066140  1
  Dy  Dy19  1  0.176269  0.541758  0.933865  1
  Bi  Bi20  1  0.569261  0.491293  0.827428  1
  Bi  Bi21  1  0.430737  0.508707  0.172572  1
  Bi  Bi22  1  0.069260  0.508706  0.672573  1
  Bi  Bi23  1  0.430747  0.991295  0.172556  1
  Bi  Bi24  1  0.930741  0.491292  0.327431  1
  Bi  Bi25  1  0.569300  0.008719  0.827429  1
  Bi  Bi26  1  0.930676  0.008721  0.327404  1
  Bi  Bi27  1  0.069312  0.991290  0.672571  1
  Ir  Ir28  1  0.570252  0.749809  0.509057  1
  Ir  Ir29  1  0.429747  0.250191  0.490941  1
  Ir  Ir30  1  0.070131  0.250102  0.990979  1
  Ir  Ir31  1  0.929683  0.749915  0.009067  1
