# generated using pymatgen
data_Pr6SmCoBr12
_symmetry_space_group_name_H-M   'P 1'
_cell_length_a   9.57286991
_cell_length_b   9.57286906
_cell_length_c   9.57287007
_cell_angle_alpha   106.75315668
_cell_angle_beta   106.75314404
_cell_angle_gamma   106.75314209
_symmetry_Int_Tables_number   1
_chemical_formula_structural   Pr6SmCoBr12
_chemical_formula_sum   'Pr6 Sm1 Co1 Br12'
_cell_volume   735.45156149
_cell_formula_units_Z   1
loop_
 _symmetry_equiv_pos_site_id
 _symmetry_equiv_pos_as_xyz
  1  'x, y, z'
loop_
 _atom_site_type_symbol
 _atom_site_label
 _atom_site_symmetry_multiplicity
 _atom_site_fract_x
 _atom_site_fract_y
 _atom_site_fract_z
 _atom_site_occupancy
  Pr  Pr0  1  0.978744  0.899118  0.692943  1
  Pr  Pr1  1  0.021256  0.100882  0.307057  1
  Pr  Pr2  1  0.100882  0.307057  0.021256  1
  Pr  Pr3  1  0.307057  0.021256  0.100882  1
  Pr  Pr4  1  0.899118  0.692943  0.978744  1
  Pr  Pr5  1  0.692943  0.978744  0.899118  1
  Sm  Sm6  1  0.500000  0.500000  0.500000  1
  Co  Co7  1  0.000000  0.000000  0.000000  1
  Br  Br8  1  0.538061  0.615942  0.827399  1
  Br  Br9  1  0.461939  0.384058  0.172601  1
  Br  Br10  1  0.318979  0.930257  0.778953  1
  Br  Br11  1  0.384058  0.172601  0.461939  1
  Br  Br12  1  0.930257  0.778953  0.318979  1
  Br  Br13  1  0.681021  0.069743  0.221047  1
  Br  Br14  1  0.069743  0.221047  0.681021  1
  Br  Br15  1  0.778953  0.318979  0.930257  1
  Br  Br16  1  0.221047  0.681021  0.069743  1
  Br  Br17  1  0.827399  0.538061  0.615942  1
  Br  Br18  1  0.172601  0.461939  0.384058  1
  Br  Br19  1  0.615942  0.827399  0.538061  1
