# generated using pymatgen
data_Tb5SmFe2(Co4P3)4
_symmetry_space_group_name_H-M   'P 1'
_cell_length_a   3.71581800
_cell_length_b   10.56274800
_cell_length_c   12.23250600
_cell_angle_alpha   90.00000000
_cell_angle_beta   90.00000000
_cell_angle_gamma   90.00000000
_symmetry_Int_Tables_number   1
_chemical_formula_structural   Tb5SmFe2(Co4P3)4
_chemical_formula_sum   'Tb5 Sm1 Fe2 Co16 P12'
_cell_volume   480.11667570
_cell_formula_units_Z   1
loop_
 _symmetry_equiv_pos_site_id
 _symmetry_equiv_pos_as_xyz
  1  'x, y, z'
loop_
 _atom_site_type_symbol
 _atom_site_label
 _atom_site_symmetry_multiplicity
 _atom_site_fract_x
 _atom_site_fract_y
 _atom_site_fract_z
 _atom_site_occupancy
  Tb  Tb0  1  0.500000  0.000000  0.478418  1
  Tb  Tb1  1  0.500000  0.817875  0.205067  1
  Tb  Tb2  1  0.500000  0.182125  0.205067  1
  Tb  Tb3  1  0.000000  0.682399  0.795170  1
  Tb  Tb4  1  0.000000  0.317601  0.795170  1
  Sm  Sm5  1  0.000000  0.500000  0.522062  1
  Fe  Fe6  1  0.500000  0.500000  0.155907  1
  Fe  Fe7  1  0.000000  0.000000  0.843232  1
  Co  Co8  1  0.500000  0.500000  0.703574  1
  Co  Co9  1  0.000000  0.000000  0.297624  1
  Co  Co10  1  0.000000  0.500000  0.986607  1
  Co  Co11  1  0.500000  0.000000  0.013629  1
  Co  Co12  1  0.500000  0.333016  0.994513  1
  Co  Co13  1  0.500000  0.666984  0.994513  1
  Co  Co14  1  0.000000  0.166920  0.005517  1
  Co  Co15  1  0.000000  0.833080  0.005517  1
  Co  Co16  1  0.500000  0.295527  0.430244  1
  Co  Co17  1  0.500000  0.704473  0.430244  1
  Co  Co18  1  0.000000  0.202134  0.569664  1
  Co  Co19  1  0.000000  0.797866  0.569664  1
  Co  Co20  1  0.500000  0.879637  0.709688  1
  Co  Co21  1  0.500000  0.120363  0.709688  1
  Co  Co22  1  0.000000  0.620959  0.289887  1
  Co  Co23  1  0.000000  0.379041  0.289887  1
  P  P24  1  0.500000  0.500000  0.883321  1
  P  P25  1  0.000000  0.000000  0.117187  1
  P  P26  1  0.500000  0.500000  0.340274  1
  P  P27  1  0.000000  0.000000  0.657951  1
  P  P28  1  0.500000  0.308116  0.616333  1
  P  P29  1  0.500000  0.691884  0.616333  1
  P  P30  1  0.000000  0.189995  0.384136  1
  P  P31  1  0.000000  0.810005  0.384136  1
  P  P32  1  0.500000  0.847674  0.893150  1
  P  P33  1  0.500000  0.152326  0.893150  1
  P  P34  1  0.000000  0.652591  0.106738  1
  P  P35  1  0.000000  0.347409  0.106738  1
