# generated using pymatgen
data_Lu4Sb6Ru2Rh5
_symmetry_space_group_name_H-M   'P 1'
_cell_length_a   7.52610790
_cell_length_b   7.52589014
_cell_length_c   7.52588976
_cell_angle_alpha   109.26258816
_cell_angle_beta   109.57359823
_cell_angle_gamma   109.57359630
_symmetry_Int_Tables_number   1
_chemical_formula_structural   Lu4Sb6Ru2Rh5
_chemical_formula_sum   'Lu4 Sb6 Ru2 Rh5'
_cell_volume   328.15714936
_cell_formula_units_Z   1
loop_
 _symmetry_equiv_pos_site_id
 _symmetry_equiv_pos_as_xyz
  1  'x, y, z'
loop_
 _atom_site_type_symbol
 _atom_site_label
 _atom_site_symmetry_multiplicity
 _atom_site_fract_x
 _atom_site_fract_y
 _atom_site_fract_z
 _atom_site_occupancy
  Lu  Lu0  1  0.500000  0.998383  0.001617  1
  Lu  Lu1  1  0.003085  0.501467  0.001550  1
  Lu  Lu2  1  0.996915  0.998450  0.498533  1
  Lu  Lu3  1  0.500000  0.501461  0.498539  1
  Sb  Sb4  1  0.999996  0.313103  0.313198  1
  Sb  Sb5  1  0.685900  0.999294  0.685325  1
  Sb  Sb6  1  0.686248  0.686795  0.000669  1
  Sb  Sb7  1  0.000004  0.686802  0.686897  1
  Sb  Sb8  1  0.313752  0.999331  0.313205  1
  Sb  Sb9  1  0.314100  0.314675  0.000706  1
  Ru  Ru10  1  0.000000  0.000285  0.999715  1
  Ru  Ru11  1  0.500000  0.750239  0.249761  1
  Rh  Rh12  1  0.750853  0.499755  0.250582  1
  Rh  Rh13  1  0.249147  0.749418  0.500245  1
  Rh  Rh14  1  0.249504  0.499848  0.749419  1
  Rh  Rh15  1  0.500000  0.250113  0.749887  1
  Rh  Rh16  1  0.750496  0.250581  0.500152  1
