# generated using pymatgen
data_Lu3MgZn(CdGa)2
_symmetry_space_group_name_H-M   'P 1'
_cell_length_a   7.24351113
_cell_length_b   7.24351084
_cell_length_c   4.23477600
_cell_angle_alpha   90.00000000
_cell_angle_beta   90.00000000
_cell_angle_gamma   120.00331964
_symmetry_Int_Tables_number   1
_chemical_formula_structural   Lu3MgZn(CdGa)2
_chemical_formula_sum   'Lu3 Mg1 Zn1 Cd2 Ga2'
_cell_volume   192.41759958
_cell_formula_units_Z   1
loop_
 _symmetry_equiv_pos_site_id
 _symmetry_equiv_pos_as_xyz
  1  'x, y, z'
loop_
 _atom_site_type_symbol
 _atom_site_label
 _atom_site_symmetry_multiplicity
 _atom_site_fract_x
 _atom_site_fract_y
 _atom_site_fract_z
 _atom_site_occupancy
  Lu  Lu0  1  0.421924  0.421924  0.500000  1
  Lu  Lu1  1  0.575852  0.999984  0.500000  1
  Lu  Lu2  1  0.999984  0.575852  0.500000  1
  Mg  Mg3  1  0.758164  0.758164  0.000000  1
  Zn  Zn4  1  0.996796  0.996796  0.500000  1
  Cd  Cd5  1  0.246938  0.997787  0.000000  1
  Cd  Cd6  1  0.997787  0.246938  0.000000  1
  Ga  Ga7  1  0.665513  0.337044  0.000000  1
  Ga  Ga8  1  0.337044  0.665513  0.000000  1
