# generated using pymatgen
data_Sm5Zr3(Co4P3)4
_symmetry_space_group_name_H-M   'P 1'
_cell_length_a   12.39118300
_cell_length_b   12.39118352
_cell_length_c   3.74904400
_cell_angle_alpha   90.00000000
_cell_angle_beta   90.00000000
_cell_angle_gamma   120.00000661
_symmetry_Int_Tables_number   1
_chemical_formula_structural   Sm5Zr3(Co4P3)4
_chemical_formula_sum   'Sm5 Zr3 Co16 P12'
_cell_volume   498.51324374
_cell_formula_units_Z   1
loop_
 _symmetry_equiv_pos_site_id
 _symmetry_equiv_pos_as_xyz
  1  'x, y, z'
loop_
 _atom_site_type_symbol
 _atom_site_label
 _atom_site_symmetry_multiplicity
 _atom_site_fract_x
 _atom_site_fract_y
 _atom_site_fract_z
 _atom_site_occupancy
  Sm  Sm0  1  0.182543  0.182543  0.500000  1
  Sm  Sm1  1  0.817457  0.000000  0.500000  1
  Sm  Sm2  1  0.000000  0.817457  0.500000  1
  Sm  Sm3  1  0.333333  0.666667  0.000000  1
  Sm  Sm4  1  0.666667  0.333333  0.000000  1
  Zr  Zr5  1  0.559875  0.559875  0.000000  1
  Zr  Zr6  1  0.440125  0.000000  0.000000  1
  Zr  Zr7  1  0.000000  0.440125  0.000000  1
  Co  Co8  1  0.721756  0.721756  0.500000  1
  Co  Co9  1  0.278244  0.000000  0.500000  1
  Co  Co10  1  0.000000  0.278244  0.500000  1
  Co  Co11  1  0.178525  0.373618  0.000000  1
  Co  Co12  1  0.626382  0.804907  0.000000  1
  Co  Co13  1  0.195093  0.821475  0.000000  1
  Co  Co14  1  0.804907  0.626382  0.000000  1
  Co  Co15  1  0.821475  0.195093  0.000000  1
  Co  Co16  1  0.373618  0.178525  0.000000  1
  Co  Co17  1  0.354944  0.478250  0.500000  1
  Co  Co18  1  0.521750  0.876695  0.500000  1
  Co  Co19  1  0.123305  0.645056  0.500000  1
  Co  Co20  1  0.876695  0.521750  0.500000  1
  Co  Co21  1  0.645056  0.123305  0.500000  1
  Co  Co22  1  0.478250  0.354944  0.500000  1
  Co  Co23  1  0.000000  0.000000  0.000000  1
  P  P24  1  0.820052  0.820052  0.000000  1
  P  P25  1  0.179948  0.000000  0.000000  1
  P  P26  1  0.000000  0.179948  0.000000  1
  P  P27  1  0.170978  0.475788  0.500000  1
  P  P28  1  0.524212  0.695190  0.500000  1
  P  P29  1  0.304810  0.829022  0.500000  1
  P  P30  1  0.695190  0.524212  0.500000  1
  P  P31  1  0.829022  0.304810  0.500000  1
  P  P32  1  0.475788  0.170978  0.500000  1
  P  P33  1  0.353611  0.353611  0.000000  1
  P  P34  1  0.646389  0.000000  0.000000  1
  P  P35  1  0.000000  0.646389  0.000000  1
