# generated using pymatgen
data_Er4Ga(SiRh2)2
_symmetry_space_group_name_H-M   'P 1'
_cell_length_a   10.81500388
_cell_length_b   10.81500280
_cell_length_c   7.62888908
_cell_angle_alpha   71.28530822
_cell_angle_beta   71.28530984
_cell_angle_gamma   29.52962776
_symmetry_Int_Tables_number   1
_chemical_formula_structural   Er4Ga(SiRh2)2
_chemical_formula_sum   'Er8 Ga2 Si4 Rh8'
_cell_volume   414.87846190
_cell_formula_units_Z   2
loop_
 _symmetry_equiv_pos_site_id
 _symmetry_equiv_pos_as_xyz
  1  'x, y, z'
loop_
 _atom_site_type_symbol
 _atom_site_label
 _atom_site_symmetry_multiplicity
 _atom_site_fract_x
 _atom_site_fract_y
 _atom_site_fract_z
 _atom_site_occupancy
  Er  Er0  1  0.210055  0.446827  0.399451  1
  Er  Er1  1  0.553173  0.789945  0.100549  1
  Er  Er2  1  0.446827  0.210055  0.899451  1
  Er  Er3  1  0.917556  0.218480  0.336240  1
  Er  Er4  1  0.781520  0.082444  0.163760  1
  Er  Er5  1  0.082444  0.781520  0.663760  1
  Er  Er6  1  0.218480  0.917556  0.836240  1
  Er  Er7  1  0.789945  0.553173  0.600549  1
  Ga  Ga8  1  0.654978  0.345022  0.750000  1
  Ga  Ga9  1  0.345022  0.654978  0.250000  1
  Si  Si10  1  0.294367  0.051021  0.446835  1
  Si  Si11  1  0.948979  0.705633  0.053165  1
  Si  Si12  1  0.705633  0.948979  0.553165  1
  Si  Si13  1  0.051021  0.294367  0.946835  1
  Rh  Rh14  1  0.287567  0.579518  0.019163  1
  Rh  Rh15  1  0.579518  0.287567  0.519163  1
  Rh  Rh16  1  0.712433  0.420482  0.980837  1
  Rh  Rh17  1  0.066112  0.376773  0.194301  1
  Rh  Rh18  1  0.623227  0.933888  0.305699  1
  Rh  Rh19  1  0.420482  0.712433  0.480837  1
  Rh  Rh20  1  0.933888  0.623227  0.805699  1
  Rh  Rh21  1  0.376773  0.066112  0.694301  1
