# generated using pymatgen
data_YbErLu8(In2Pt)4
_symmetry_space_group_name_H-M   'P 1'
_cell_length_a   3.54481900
_cell_length_b   8.09935842
_cell_length_c   18.12074311
_cell_angle_alpha   89.88557604
_cell_angle_beta   90.00000000
_cell_angle_gamma   90.00000000
_symmetry_Int_Tables_number   1
_chemical_formula_structural   YbErLu8(In2Pt)4
_chemical_formula_sum   'Yb1 Er1 Lu8 In8 Pt4'
_cell_volume   520.25926228
_cell_formula_units_Z   1
loop_
 _symmetry_equiv_pos_site_id
 _symmetry_equiv_pos_as_xyz
  1  'x, y, z'
loop_
 _atom_site_type_symbol
 _atom_site_label
 _atom_site_symmetry_multiplicity
 _atom_site_fract_x
 _atom_site_fract_y
 _atom_site_fract_z
 _atom_site_occupancy
  Yb  Yb0  1  0.000000  0.000000  0.000000  1
  Er  Er1  1  0.000000  0.500000  0.500000  1
  Lu  Lu2  1  0.000000  0.116937  0.413934  1
  Lu  Lu3  1  0.000000  0.883063  0.586066  1
  Lu  Lu4  1  0.000000  0.381846  0.913678  1
  Lu  Lu5  1  0.000000  0.618154  0.086322  1
  Lu  Lu6  1  0.000000  0.243989  0.221207  1
  Lu  Lu7  1  0.000000  0.756011  0.778793  1
  Lu  Lu8  1  0.000000  0.255875  0.721242  1
  Lu  Lu9  1  0.000000  0.744125  0.278758  1
  In  In10  1  0.500000  0.423954  0.351976  1
  In  In11  1  0.500000  0.576046  0.648024  1
  In  In12  1  0.500000  0.074992  0.851368  1
  In  In13  1  0.500000  0.925008  0.148632  1
  In  In14  1  0.500000  0.294570  0.066596  1
  In  In15  1  0.500000  0.705430  0.933404  1
  In  In16  1  0.500000  0.206956  0.565938  1
  In  In17  1  0.500000  0.793044  0.434062  1
  Pt  Pt18  1  0.500000  0.025811  0.303521  1
  Pt  Pt19  1  0.500000  0.974189  0.696479  1
  Pt  Pt20  1  0.500000  0.475450  0.802963  1
  Pt  Pt21  1  0.500000  0.524550  0.197037  1
