# generated using pymatgen
data_Rb3Cu3Br8
_symmetry_space_group_name_H-M   'P 1'
_cell_length_a   7.43309761
_cell_length_b   7.43309746
_cell_length_c   18.70440398
_cell_angle_alpha   85.74406833
_cell_angle_beta   85.74406800
_cell_angle_gamma   62.91033408
_symmetry_Int_Tables_number   1
_chemical_formula_structural   Rb3Cu3Br8
_chemical_formula_sum   'Rb6 Cu6 Br16'
_cell_volume   916.57449096
_cell_formula_units_Z   2
loop_
 _symmetry_equiv_pos_site_id
 _symmetry_equiv_pos_as_xyz
  1  'x, y, z'
loop_
 _atom_site_type_symbol
 _atom_site_label
 _atom_site_symmetry_multiplicity
 _atom_site_fract_x
 _atom_site_fract_y
 _atom_site_fract_z
 _atom_site_occupancy
  Rb  Rb0  1  0.681274  0.677797  0.415478  1
  Rb  Rb1  1  0.318726  0.322203  0.584522  1
  Rb  Rb2  1  0.322203  0.318726  0.084522  1
  Rb  Rb3  1  0.677797  0.681274  0.915478  1
  Rb  Rb4  1  0.993051  0.006949  0.250000  1
  Rb  Rb5  1  0.006949  0.993051  0.750000  1
  Cu  Cu6  1  0.000000  0.000000  0.000000  1
  Cu  Cu7  1  0.000000  0.000000  0.500000  1
  Cu  Cu8  1  0.683386  0.632676  0.153437  1
  Cu  Cu9  1  0.316614  0.367324  0.846563  1
  Cu  Cu10  1  0.367324  0.316614  0.346563  1
  Cu  Cu11  1  0.632676  0.683386  0.653437  1
  Br  Br12  1  0.358161  0.766342  0.114291  1
  Br  Br13  1  0.641839  0.233658  0.885709  1
  Br  Br14  1  0.233658  0.641839  0.385709  1
  Br  Br15  1  0.766342  0.358161  0.614291  1
  Br  Br16  1  0.488750  0.081282  0.259000  1
  Br  Br17  1  0.511250  0.918718  0.741000  1
  Br  Br18  1  0.918718  0.511250  0.241000  1
  Br  Br19  1  0.081282  0.488750  0.759000  1
  Br  Br20  1  0.807744  0.851458  0.069726  1
  Br  Br21  1  0.192256  0.148542  0.930274  1
  Br  Br22  1  0.148542  0.192256  0.430274  1
  Br  Br23  1  0.851458  0.807744  0.569726  1
  Br  Br24  1  0.706070  0.156964  0.425092  1
  Br  Br25  1  0.293930  0.843036  0.574908  1
  Br  Br26  1  0.843036  0.293930  0.074908  1
  Br  Br27  1  0.156964  0.706070  0.925092  1
