# generated using pymatgen
data_Hf4Ta2Nb2AlP3
_symmetry_space_group_name_H-M   'P 1'
_cell_length_a   3.54388700
_cell_length_b   6.98045243
_cell_length_c   8.43933037
_cell_angle_alpha   89.28055457
_cell_angle_beta   90.00000000
_cell_angle_gamma   90.00000000
_symmetry_Int_Tables_number   1
_chemical_formula_structural   Hf4Ta2Nb2AlP3
_chemical_formula_sum   'Hf4 Ta2 Nb2 Al1 P3'
_cell_volume   208.75514453
_cell_formula_units_Z   1
loop_
 _symmetry_equiv_pos_site_id
 _symmetry_equiv_pos_as_xyz
  1  'x, y, z'
loop_
 _atom_site_type_symbol
 _atom_site_label
 _atom_site_symmetry_multiplicity
 _atom_site_fract_x
 _atom_site_fract_y
 _atom_site_fract_z
 _atom_site_occupancy
  Hf  Hf0  1  0.250000  0.038530  0.668872  1
  Hf  Hf1  1  0.250000  0.534280  0.828542  1
  Hf  Hf2  1  0.750000  0.470659  0.158844  1
  Hf  Hf3  1  0.750000  0.952393  0.330947  1
  Ta  Ta4  1  0.250000  0.640832  0.442284  1
  Ta  Ta5  1  0.250000  0.132787  0.054745  1
  Nb  Nb6  1  0.750000  0.855387  0.938821  1
  Nb  Nb7  1  0.750000  0.371487  0.569695  1
  Al  Al8  1  0.250000  0.257403  0.358915  1
  P  P9  1  0.250000  0.763157  0.146982  1
  P  P10  1  0.750000  0.746482  0.643021  1
  P  P11  1  0.750000  0.236604  0.858329  1
