# generated using pymatgen
data_HoEr7Lu8(Tl3Co)2
_symmetry_space_group_name_H-M   'P 1'
_cell_length_a   10.15968400
_cell_length_b   10.15968499
_cell_length_c   7.07151400
_cell_angle_alpha   90.00000000
_cell_angle_beta   90.00000000
_cell_angle_gamma   120.00000330
_symmetry_Int_Tables_number   1
_chemical_formula_structural   HoEr7Lu8(Tl3Co)2
_chemical_formula_sum   'Ho1 Er7 Lu8 Tl6 Co2'
_cell_volume   632.12572572
_cell_formula_units_Z   1
loop_
 _symmetry_equiv_pos_site_id
 _symmetry_equiv_pos_as_xyz
  1  'x, y, z'
loop_
 _atom_site_type_symbol
 _atom_site_label
 _atom_site_symmetry_multiplicity
 _atom_site_fract_x
 _atom_site_fract_y
 _atom_site_fract_z
 _atom_site_occupancy
  Ho  Ho0  1  0.000000  0.000000  0.728534  1
  Er  Er1  1  0.462608  0.537392  0.211039  1
  Er  Er2  1  0.074785  0.537392  0.211039  1
  Er  Er3  1  0.462608  0.925215  0.211039  1
  Er  Er4  1  0.537575  0.462425  0.711251  1
  Er  Er5  1  0.924849  0.462425  0.711251  1
  Er  Er6  1  0.537575  0.075151  0.711251  1
  Er  Er7  1  0.000000  0.000000  0.228329  1
  Lu  Lu8  1  0.179404  0.820596  0.512015  1
  Lu  Lu9  1  0.641191  0.820596  0.512015  1
  Lu  Lu10  1  0.179404  0.358809  0.512015  1
  Lu  Lu11  1  0.820584  0.179416  0.012386  1
  Lu  Lu12  1  0.358832  0.179416  0.012386  1
  Lu  Lu13  1  0.820584  0.641168  0.012386  1
  Lu  Lu14  1  0.333333  0.666667  0.817984  1
  Lu  Lu15  1  0.666667  0.333333  0.317762  1
  Tl  Tl16  1  0.163168  0.836832  0.959629  1
  Tl  Tl17  1  0.673661  0.836832  0.959629  1
  Tl  Tl18  1  0.163168  0.326339  0.959629  1
  Tl  Tl19  1  0.836883  0.163117  0.459167  1
  Tl  Tl20  1  0.326234  0.163117  0.459167  1
  Tl  Tl21  1  0.836883  0.673766  0.459167  1
  Co  Co22  1  0.333333  0.666667  0.442550  1
  Co  Co23  1  0.666667  0.333333  0.942418  1
