# generated using pymatgen
data_Ho4Ga4Ir3Pt
_symmetry_space_group_name_H-M   'P 1'
_cell_length_a   4.36411700
_cell_length_b   6.79789744
_cell_length_c   7.75374475
_cell_angle_alpha   90.11394867
_cell_angle_beta   90.00000000
_cell_angle_gamma   90.00000000
_symmetry_Int_Tables_number   1
_chemical_formula_structural   Ho4Ga4Ir3Pt
_chemical_formula_sum   'Ho4 Ga4 Ir3 Pt1'
_cell_volume   230.02849306
_cell_formula_units_Z   1
loop_
 _symmetry_equiv_pos_site_id
 _symmetry_equiv_pos_as_xyz
  1  'x, y, z'
loop_
 _atom_site_type_symbol
 _atom_site_label
 _atom_site_symmetry_multiplicity
 _atom_site_fract_x
 _atom_site_fract_y
 _atom_site_fract_z
 _atom_site_occupancy
  Ho  Ho0  1  0.250000  0.026309  0.809006  1
  Ho  Ho1  1  0.250000  0.521029  0.687869  1
  Ho  Ho2  1  0.750000  0.979751  0.194353  1
  Ho  Ho3  1  0.750000  0.478251  0.309991  1
  Ga  Ga4  1  0.250000  0.158426  0.429276  1
  Ga  Ga5  1  0.250000  0.656266  0.071545  1
  Ga  Ga6  1  0.750000  0.842782  0.567912  1
  Ga  Ga7  1  0.750000  0.337893  0.929604  1
  Ir  Ir8  1  0.250000  0.767539  0.391814  1
  Ir  Ir9  1  0.250000  0.267358  0.107670  1
  Ir  Ir10  1  0.750000  0.232138  0.608757  1
  Pt  Pt11  1  0.750000  0.732258  0.892204  1
