# generated using pymatgen
data_CaPr3Lu4(B6Ru)4
_symmetry_space_group_name_H-M   'P 1'
_cell_length_a   3.67532600
_cell_length_b   9.16575546
_cell_length_c   11.60856085
_cell_angle_alpha   89.93538077
_cell_angle_beta   90.00000000
_cell_angle_gamma   90.00000000
_symmetry_Int_Tables_number   1
_chemical_formula_structural   CaPr3Lu4(B6Ru)4
_chemical_formula_sum   'Ca1 Pr3 Lu4 B24 Ru4'
_cell_volume   391.05895806
_cell_formula_units_Z   1
loop_
 _symmetry_equiv_pos_site_id
 _symmetry_equiv_pos_as_xyz
  1  'x, y, z'
loop_
 _atom_site_type_symbol
 _atom_site_label
 _atom_site_symmetry_multiplicity
 _atom_site_fract_x
 _atom_site_fract_y
 _atom_site_fract_z
 _atom_site_occupancy
  Ca  Ca0  1  0.000000  0.322259  0.414741  1
  Pr  Pr1  1  0.000000  0.675278  0.583943  1
  Pr  Pr2  1  0.000000  0.823071  0.086066  1
  Pr  Pr3  1  0.000000  0.177520  0.915154  1
  Lu  Lu4  1  0.000000  0.945611  0.371565  1
  Lu  Lu5  1  0.000000  0.057546  0.627225  1
  Lu  Lu6  1  0.000000  0.443642  0.130377  1
  Lu  Lu7  1  0.000000  0.555101  0.871261  1
  B  B8  1  0.500000  0.554778  0.429361  1
  B  B9  1  0.500000  0.442019  0.568822  1
  B  B10  1  0.500000  0.057410  0.071121  1
  B  B11  1  0.500000  0.942520  0.928891  1
  B  B12  1  0.500000  0.750565  0.415801  1
  B  B13  1  0.500000  0.249434  0.581809  1
  B  B14  1  0.500000  0.251204  0.084759  1
  B  B15  1  0.500000  0.748391  0.916176  1
  B  B16  1  0.500000  0.791723  0.266652  1
  B  B17  1  0.500000  0.209038  0.732895  1
  B  B18  1  0.500000  0.292229  0.235584  1
  B  B19  1  0.500000  0.708407  0.766095  1
  B  B20  1  0.500000  0.629524  0.185838  1
  B  B21  1  0.500000  0.369977  0.815119  1
  B  B22  1  0.500000  0.131706  0.316314  1
  B  B23  1  0.500000  0.870177  0.684246  1
  B  B24  1  0.500000  0.986671  0.214900  1
  B  B25  1  0.500000  0.014465  0.784850  1
  B  B26  1  0.500000  0.483599  0.286753  1
  B  B27  1  0.500000  0.513705  0.713972  1
  B  B28  1  0.500000  0.599418  0.027062  1
  B  B29  1  0.500000  0.400468  0.973579  1
  B  B30  1  0.500000  0.101371  0.472676  1
  B  B31  1  0.500000  0.901036  0.526608  1
  Ru  Ru32  1  0.000000  0.640711  0.318104  1
  Ru  Ru33  1  0.000000  0.359236  0.681838  1
  Ru  Ru34  1  0.000000  0.140827  0.181942  1
  Ru  Ru35  1  0.000000  0.859364  0.817899  1
