# generated using pymatgen
data_Lu5Si2Ge
_symmetry_space_group_name_H-M   'P 1'
_cell_length_a   8.26275502
_cell_length_b   8.26181963
_cell_length_c   6.18740100
_cell_angle_alpha   90.00000000
_cell_angle_beta   90.00000000
_cell_angle_gamma   119.99626500
_symmetry_Int_Tables_number   1
_chemical_formula_structural   Lu5Si2Ge
_chemical_formula_sum   'Lu10 Si4 Ge2'
_cell_volume   365.81021184
_cell_formula_units_Z   2
loop_
 _symmetry_equiv_pos_site_id
 _symmetry_equiv_pos_as_xyz
  1  'x, y, z'
loop_
 _atom_site_type_symbol
 _atom_site_label
 _atom_site_symmetry_multiplicity
 _atom_site_fract_x
 _atom_site_fract_y
 _atom_site_fract_z
 _atom_site_occupancy
  Lu  Lu0  1  0.669540  0.334770  0.000000  1
  Lu  Lu1  1  0.332934  0.666467  0.500000  1
  Lu  Lu2  1  0.332934  0.666467  0.000000  1
  Lu  Lu3  1  0.669540  0.334770  0.500000  1
  Lu  Lu4  1  0.759173  0.999676  0.750000  1
  Lu  Lu5  1  0.759173  0.759497  0.250000  1
  Lu  Lu6  1  0.998182  0.241478  0.250000  1
  Lu  Lu7  1  0.998182  0.756704  0.750000  1
  Lu  Lu8  1  0.241069  0.242846  0.750000  1
  Lu  Lu9  1  0.241069  0.998223  0.250000  1
  Si  Si10  1  0.999974  0.605670  0.250000  1
  Si  Si11  1  0.999974  0.394304  0.750000  1
  Si  Si12  1  0.605654  0.605738  0.750000  1
  Si  Si13  1  0.605654  0.999916  0.250000  1
  Ge  Ge14  1  0.393474  0.000505  0.750000  1
  Ge  Ge15  1  0.393474  0.392969  0.250000  1
