# generated using pymatgen
data_DyYEr2(Al3Ir)6
_symmetry_space_group_name_H-M   'P 1'
_cell_length_a   7.54678205
_cell_length_b   7.54701566
_cell_length_c   9.46895300
_cell_angle_alpha   90.00000000
_cell_angle_beta   90.00000000
_cell_angle_gamma   119.49148735
_symmetry_Int_Tables_number   1
_chemical_formula_structural   DyYEr2(Al3Ir)6
_chemical_formula_sum   'Dy1 Y1 Er2 Al18 Ir6'
_cell_volume   469.43157272
_cell_formula_units_Z   1
loop_
 _symmetry_equiv_pos_site_id
 _symmetry_equiv_pos_as_xyz
  1  'x, y, z'
loop_
 _atom_site_type_symbol
 _atom_site_label
 _atom_site_symmetry_multiplicity
 _atom_site_fract_x
 _atom_site_fract_y
 _atom_site_fract_z
 _atom_site_occupancy
  Dy  Dy0  1  0.328595  0.005305  0.250000  1
  Y  Y1  1  0.005270  0.328515  0.250000  1
  Er  Er2  1  0.994605  0.671523  0.750000  1
  Er  Er3  1  0.671634  0.994620  0.750000  1
  Al  Al4  1  0.128781  0.128922  0.750000  1
  Al  Al5  1  0.870565  0.870427  0.250000  1
  Al  Al6  1  0.000668  0.335288  0.574855  1
  Al  Al7  1  0.998935  0.664926  0.426386  1
  Al  Al8  1  0.998935  0.664926  0.073614  1
  Al  Al9  1  0.335274  0.000721  0.925147  1
  Al  Al10  1  0.000668  0.335288  0.925145  1
  Al  Al11  1  0.664641  0.998759  0.073572  1
  Al  Al12  1  0.664641  0.998759  0.426428  1
  Al  Al13  1  0.335274  0.000721  0.574853  1
  Al  Al14  1  0.333529  0.333389  0.050830  1
  Al  Al15  1  0.666931  0.666930  0.947909  1
  Al  Al16  1  0.666931  0.666930  0.552091  1
  Al  Al17  1  0.333529  0.333389  0.449170  1
  Al  Al18  1  0.339561  0.548925  0.750000  1
  Al  Al19  1  0.660425  0.451733  0.250000  1
  Al  Al20  1  0.548969  0.339687  0.750000  1
  Al  Al21  1  0.451815  0.660575  0.250000  1
  Ir  Ir22  1  0.672017  0.328040  0.500444  1
  Ir  Ir23  1  0.328187  0.672309  0.500420  1
  Ir  Ir24  1  0.328187  0.672309  0.999580  1
  Ir  Ir25  1  0.672017  0.328040  0.999556  1
  Ir  Ir26  1  0.999708  0.999521  0.500522  1
  Ir  Ir27  1  0.999708  0.999521  0.999478  1
