# generated using pymatgen
data_HfSc5(SnRu2)6
_symmetry_space_group_name_H-M   'P 1'
_cell_length_a   4.54505400
_cell_length_b   6.43577302
_cell_length_c   13.68727603
_cell_angle_alpha   89.99188879
_cell_angle_beta   89.99971474
_cell_angle_gamma   89.99916036
_symmetry_Int_Tables_number   1
_chemical_formula_structural   HfSc5(SnRu2)6
_chemical_formula_sum   'Hf1 Sc5 Sn6 Ru12'
_cell_volume   400.36562975
_cell_formula_units_Z   1
loop_
 _symmetry_equiv_pos_site_id
 _symmetry_equiv_pos_as_xyz
  1  'x, y, z'
loop_
 _atom_site_type_symbol
 _atom_site_label
 _atom_site_symmetry_multiplicity
 _atom_site_fract_x
 _atom_site_fract_y
 _atom_site_fract_z
 _atom_site_occupancy
  Hf  Hf0  1  0.499970  0.000029  0.833306  1
  Sc  Sc1  1  0.999991  0.500097  0.000163  1
  Sc  Sc2  1  0.500035  0.999814  0.167031  1
  Sc  Sc3  1  0.000022  0.500232  0.333355  1
  Sc  Sc4  1  0.500013  0.999857  0.499638  1
  Sc  Sc5  1  0.000013  0.499983  0.666494  1
  Sn  Sn6  1  0.000037  0.000078  0.001735  1
  Sn  Sn7  1  0.499969  0.499931  0.166890  1
  Sn  Sn8  1  0.000049  0.000162  0.333640  1
  Sn  Sn9  1  0.500049  0.499864  0.499761  1
  Sn  Sn10  1  0.000007  0.999883  0.664859  1
  Sn  Sn11  1  0.500052  0.500063  0.833088  1
  Ru  Ru12  1  0.499980  0.249288  0.999129  1
  Ru  Ru13  1  0.499983  0.750729  0.999136  1
  Ru  Ru14  1  0.999943  0.250125  0.166986  1
  Ru  Ru15  1  0.999949  0.749907  0.166996  1
  Ru  Ru16  1  0.499989  0.250199  0.333301  1
  Ru  Ru17  1  0.499995  0.749847  0.333316  1
  Ru  Ru18  1  0.999999  0.250310  0.499837  1
  Ru  Ru19  1  0.999995  0.749637  0.499794  1
  Ru  Ru20  1  0.499989  0.249108  0.667455  1
  Ru  Ru21  1  0.499986  0.750840  0.667430  1
  Ru  Ru22  1  0.999992  0.246987  0.833318  1
  Ru  Ru23  1  0.999989  0.753028  0.833340  1
