# generated using pymatgen
data_YbYTm6(B6Ru)4
_symmetry_space_group_name_H-M   'P 1'
_cell_length_a   3.62674400
_cell_length_b   9.08616470
_cell_length_c   11.46983700
_cell_angle_alpha   89.92543440
_cell_angle_beta   90.00000000
_cell_angle_gamma   90.00000000
_symmetry_Int_Tables_number   1
_chemical_formula_structural   YbYTm6(B6Ru)4
_chemical_formula_sum   'Yb1 Y1 Tm6 B24 Ru4'
_cell_volume   377.96743596
_cell_formula_units_Z   1
loop_
 _symmetry_equiv_pos_site_id
 _symmetry_equiv_pos_as_xyz
  1  'x, y, z'
loop_
 _atom_site_type_symbol
 _atom_site_label
 _atom_site_symmetry_multiplicity
 _atom_site_fract_x
 _atom_site_fract_y
 _atom_site_fract_z
 _atom_site_occupancy
  Yb  Yb0  1  0.000000  0.323037  0.413668  1
  Y  Y1  1  0.000000  0.676457  0.585063  1
  Tm  Tm2  1  0.000000  0.822130  0.086184  1
  Tm  Tm3  1  0.000000  0.178436  0.914817  1
  Tm  Tm4  1  0.000000  0.944217  0.370940  1
  Tm  Tm5  1  0.000000  0.057947  0.628136  1
  Tm  Tm6  1  0.000000  0.442955  0.129080  1
  Tm  Tm7  1  0.000000  0.556088  0.872569  1
  B  B8  1  0.500000  0.553892  0.432061  1
  B  B9  1  0.500000  0.445140  0.567467  1
  B  B10  1  0.500000  0.053113  0.066041  1
  B  B11  1  0.500000  0.946275  0.933296  1
  B  B12  1  0.500000  0.749147  0.418509  1
  B  B13  1  0.500000  0.251188  0.581110  1
  B  B14  1  0.500000  0.248115  0.080090  1
  B  B15  1  0.500000  0.751259  0.920242  1
  B  B16  1  0.500000  0.792258  0.265110  1
  B  B17  1  0.500000  0.208721  0.734985  1
  B  B18  1  0.500000  0.290222  0.233608  1
  B  B19  1  0.500000  0.709129  0.766657  1
  B  B20  1  0.500000  0.631648  0.184852  1
  B  B21  1  0.500000  0.368527  0.816178  1
  B  B22  1  0.500000  0.130740  0.314228  1
  B  B23  1  0.500000  0.869545  0.685226  1
  B  B24  1  0.500000  0.982457  0.211679  1
  B  B25  1  0.500000  0.017788  0.787563  1
  B  B26  1  0.500000  0.483179  0.287115  1
  B  B27  1  0.500000  0.516440  0.713404  1
  B  B28  1  0.500000  0.606844  0.029685  1
  B  B29  1  0.500000  0.393252  0.971019  1
  B  B30  1  0.500000  0.102832  0.471493  1
  B  B31  1  0.500000  0.896673  0.528485  1
  Ru  Ru32  1  0.000000  0.639896  0.319555  1
  Ru  Ru33  1  0.000000  0.361224  0.680984  1
  Ru  Ru34  1  0.000000  0.136613  0.177551  1
  Ru  Ru35  1  0.000000  0.862621  0.821351  1
