# generated using pymatgen
data_Tb12U3Si5Ru8
_symmetry_space_group_name_H-M   'P 1'
_cell_length_a   5.80792200
_cell_length_b   7.81216539
_cell_length_c   13.57716047
_cell_angle_alpha   90.67289217
_cell_angle_beta   90.00000000
_cell_angle_gamma   90.00000000
_symmetry_Int_Tables_number   1
_chemical_formula_structural   Tb12U3Si5Ru8
_chemical_formula_sum   'Tb12 U3 Si5 Ru8'
_cell_volume   615.98651439
_cell_formula_units_Z   1
loop_
 _symmetry_equiv_pos_site_id
 _symmetry_equiv_pos_as_xyz
  1  'x, y, z'
loop_
 _atom_site_type_symbol
 _atom_site_label
 _atom_site_symmetry_multiplicity
 _atom_site_fract_x
 _atom_site_fract_y
 _atom_site_fract_z
 _atom_site_occupancy
  Tb  Tb0  1  0.127343  0.387730  0.612307  1
  Tb  Tb1  1  0.867917  0.603298  0.108160  1
  Tb  Tb2  1  0.127343  0.112270  0.387693  1
  Tb  Tb3  1  0.867917  0.896702  0.891840  1
  Tb  Tb4  1  0.872492  0.609993  0.388635  1
  Tb  Tb5  1  0.121748  0.387414  0.896215  1
  Tb  Tb6  1  0.872492  0.890007  0.611365  1
  Tb  Tb7  1  0.121748  0.112586  0.103785  1
  Tb  Tb8  1  0.623303  0.249650  0.759709  1
  Tb  Tb9  1  0.377823  0.758076  0.246972  1
  Tb  Tb10  1  0.623303  0.250350  0.240291  1
  Tb  Tb11  1  0.377823  0.741924  0.753028  1
  U  U12  1  0.635491  0.250000  0.500000  1
  U  U13  1  0.376636  0.750000  0.000000  1
  U  U14  1  0.360524  0.750000  0.500000  1
  Si  Si15  1  0.153981  0.098043  0.752033  1
  Si  Si16  1  0.852248  0.901153  0.247525  1
  Si  Si17  1  0.153981  0.401957  0.247967  1
  Si  Si18  1  0.852248  0.598847  0.752475  1
  Si  Si19  1  0.604925  0.250000  0.000000  1
  Ru  Ru20  1  0.372098  0.017495  0.588978  1
  Ru  Ru21  1  0.638899  0.967488  0.088202  1
  Ru  Ru22  1  0.372098  0.482505  0.411022  1
  Ru  Ru23  1  0.638899  0.532512  0.911798  1
  Ru  Ru24  1  0.630638  0.981523  0.412570  1
  Ru  Ru25  1  0.372722  0.017233  0.910945  1
  Ru  Ru26  1  0.630638  0.518477  0.587430  1
  Ru  Ru27  1  0.372722  0.482767  0.089055  1
