# generated using pymatgen
data_Tb6CeNd3Ir4
_symmetry_space_group_name_H-M   'P 1'
_cell_length_a   6.57317710
_cell_length_b   7.23506394
_cell_length_c   8.83461320
_cell_angle_alpha   96.09683083
_cell_angle_beta   112.39975244
_cell_angle_gamma   91.22538982
_symmetry_Int_Tables_number   1
_chemical_formula_structural   Tb6CeNd3Ir4
_chemical_formula_sum   'Tb6 Ce1 Nd3 Ir4'
_cell_volume   385.37697568
_cell_formula_units_Z   1
loop_
 _symmetry_equiv_pos_site_id
 _symmetry_equiv_pos_as_xyz
  1  'x, y, z'
loop_
 _atom_site_type_symbol
 _atom_site_label
 _atom_site_symmetry_multiplicity
 _atom_site_fract_x
 _atom_site_fract_y
 _atom_site_fract_z
 _atom_site_occupancy
  Tb  Tb0  1  0.642161  0.814693  0.434592  1
  Tb  Tb1  1  0.208743  0.684109  0.563348  1
  Tb  Tb2  1  0.354912  0.184624  0.565894  1
  Tb  Tb3  1  0.792240  0.315182  0.435238  1
  Tb  Tb4  1  0.428314  0.751486  0.999198  1
  Tb  Tb5  1  0.571993  0.248029  0.001724  1
  Ce  Ce6  1  0.983594  0.913610  0.188822  1
  Nd  Nd7  1  0.785985  0.577771  0.809287  1
  Nd  Nd8  1  0.021476  0.078034  0.810455  1
  Nd  Nd9  1  0.212128  0.421395  0.188885  1
  Ir  Ir10  1  0.822597  0.586291  0.226239  1
  Ir  Ir11  1  0.590444  0.927597  0.777966  1
  Ir  Ir12  1  0.185747  0.425896  0.772062  1
  Ir  Ir13  1  0.399666  0.071282  0.226290  1
