# generated using pymatgen
data_Dy2Y3Ho5Cd3Os
_symmetry_space_group_name_H-M   'P 1'
_cell_length_a   9.58629804
_cell_length_b   9.58629835
_cell_length_c   9.85384201
_cell_angle_alpha   89.99312276
_cell_angle_beta   90.00687397
_cell_angle_gamma   120.00891530
_symmetry_Int_Tables_number   1
_chemical_formula_structural   Dy2Y3Ho5Cd3Os
_chemical_formula_sum   'Dy4 Y6 Ho10 Cd6 Os2'
_cell_volume   784.14985762
_cell_formula_units_Z   2
loop_
 _symmetry_equiv_pos_site_id
 _symmetry_equiv_pos_as_xyz
  1  'x, y, z'
loop_
 _atom_site_type_symbol
 _atom_site_label
 _atom_site_symmetry_multiplicity
 _atom_site_fract_x
 _atom_site_fract_y
 _atom_site_fract_z
 _atom_site_occupancy
  Dy  Dy0  1  0.209454  0.790546  0.440118  1
  Dy  Dy1  1  0.209575  0.418934  0.440067  1
  Dy  Dy2  1  0.581066  0.790425  0.440067  1
  Dy  Dy3  1  0.790295  0.209705  0.559820  1
  Y  Y4  1  0.540150  0.459850  0.249736  1
  Y  Y5  1  0.539987  0.080204  0.249602  1
  Y  Y6  1  0.919796  0.460013  0.249602  1
  Y  Y7  1  0.460157  0.539843  0.750323  1
  Y  Y8  1  0.459930  0.920043  0.750455  1
  Y  Y9  1  0.079957  0.540070  0.750455  1
  Ho  Ho10  1  0.000133  0.999867  0.500036  1
  Ho  Ho11  1  0.000009  0.999991  0.000123  1
  Ho  Ho12  1  0.790202  0.580694  0.559787  1
  Ho  Ho13  1  0.419306  0.209798  0.559787  1
  Ho  Ho14  1  0.790320  0.209680  0.940558  1
  Ho  Ho15  1  0.790210  0.580513  0.940340  1
  Ho  Ho16  1  0.419487  0.209790  0.940340  1
  Ho  Ho17  1  0.209748  0.790252  0.059691  1
  Ho  Ho18  1  0.209771  0.419511  0.059655  1
  Ho  Ho19  1  0.580489  0.790229  0.059655  1
  Cd  Cd20  1  0.885787  0.114213  0.249700  1
  Cd  Cd21  1  0.885738  0.771451  0.249813  1
  Cd  Cd22  1  0.228549  0.114262  0.249813  1
  Cd  Cd23  1  0.114210  0.885790  0.750243  1
  Cd  Cd24  1  0.114313  0.228458  0.750288  1
  Cd  Cd25  1  0.771542  0.885687  0.750288  1
  Os  Os26  1  0.333309  0.666691  0.249516  1
  Os  Os27  1  0.666512  0.333488  0.750127  1
