# generated using pymatgen
data_Er2FeCoP6(Ir3Rh)2
_symmetry_space_group_name_H-M   'P 1'
_cell_length_a   3.89868800
_cell_length_b   10.72963700
_cell_length_c   12.41295600
_cell_angle_alpha   90.00000000
_cell_angle_beta   90.00000000
_cell_angle_gamma   90.00000000
_symmetry_Int_Tables_number   1
_chemical_formula_structural   Er2FeCoP6(Ir3Rh)2
_chemical_formula_sum   'Er4 Fe2 Co2 P12 Ir12 Rh4'
_cell_volume   519.25265601
_cell_formula_units_Z   2
loop_
 _symmetry_equiv_pos_site_id
 _symmetry_equiv_pos_as_xyz
  1  'x, y, z'
loop_
 _atom_site_type_symbol
 _atom_site_label
 _atom_site_symmetry_multiplicity
 _atom_site_fract_x
 _atom_site_fract_y
 _atom_site_fract_z
 _atom_site_occupancy
  Er  Er0  1  0.250000  0.581214  0.710664  1
  Er  Er1  1  0.250000  0.918786  0.210664  1
  Er  Er2  1  0.750000  0.418905  0.289071  1
  Er  Er3  1  0.750000  0.081095  0.789071  1
  Fe  Fe4  1  0.750000  0.541590  0.067378  1
  Fe  Fe5  1  0.750000  0.958410  0.567378  1
  Co  Co6  1  0.250000  0.458834  0.931947  1
  Co  Co7  1  0.250000  0.041166  0.431947  1
  P  P8  1  0.250000  0.432519  0.105568  1
  P  P9  1  0.250000  0.067481  0.605568  1
  P  P10  1  0.750000  0.567928  0.894662  1
  P  P11  1  0.750000  0.932072  0.394662  1
  P  P12  1  0.250000  0.267354  0.868659  1
  P  P13  1  0.250000  0.232646  0.368659  1
  P  P14  1  0.750000  0.732169  0.131340  1
  P  P15  1  0.750000  0.767831  0.631340  1
  P  P16  1  0.250000  0.598605  0.387295  1
  P  P17  1  0.250000  0.901395  0.887295  1
  P  P18  1  0.750000  0.401540  0.612795  1
  P  P19  1  0.750000  0.098460  0.112795  1
  Ir  Ir20  1  0.250000  0.408717  0.477003  1
  Ir  Ir21  1  0.250000  0.091284  0.977003  1
  Ir  Ir22  1  0.750000  0.591508  0.523101  1
  Ir  Ir23  1  0.750000  0.908492  0.023101  1
  Ir  Ir24  1  0.250000  0.235863  0.176678  1
  Ir  Ir25  1  0.250000  0.264137  0.676678  1
  Ir  Ir26  1  0.750000  0.763982  0.823371  1
  Ir  Ir27  1  0.750000  0.736018  0.323371  1
  Ir  Ir28  1  0.250000  0.881560  0.700761  1
  Ir  Ir29  1  0.250000  0.618440  0.200761  1
  Ir  Ir30  1  0.750000  0.117845  0.299594  1
  Ir  Ir31  1  0.750000  0.382155  0.799594  1
  Rh  Rh32  1  0.250000  0.720340  0.987179  1
  Rh  Rh33  1  0.250000  0.779660  0.487179  1
  Rh  Rh34  1  0.750000  0.279862  0.012936  1
  Rh  Rh35  1  0.750000  0.220138  0.512936  1
