# generated using pymatgen
data_Y2Er4Al24AgOs6Pd
_symmetry_space_group_name_H-M   'P 1'
_cell_length_a   8.79134700
_cell_length_b   8.83779591
_cell_length_c   9.56088200
_cell_angle_alpha   89.81377436
_cell_angle_beta   90.00000000
_cell_angle_gamma   119.82629045
_symmetry_Int_Tables_number   1
_chemical_formula_structural   Y2Er4Al24AgOs6Pd
_chemical_formula_sum   'Y2 Er4 Al24 Ag1 Os6 Pd1'
_cell_volume   644.43997028
_cell_formula_units_Z   1
loop_
 _symmetry_equiv_pos_site_id
 _symmetry_equiv_pos_as_xyz
  1  'x, y, z'
loop_
 _atom_site_type_symbol
 _atom_site_label
 _atom_site_symmetry_multiplicity
 _atom_site_fract_x
 _atom_site_fract_y
 _atom_site_fract_z
 _atom_site_occupancy
  Y  Y0  1  0.191835  0.383974  0.251788  1
  Y  Y1  1  0.808165  0.616026  0.748212  1
  Er  Er2  1  0.611625  0.810073  0.253117  1
  Er  Er3  1  0.388375  0.189927  0.746883  1
  Er  Er4  1  0.198501  0.809916  0.255818  1
  Er  Er5  1  0.801499  0.190084  0.744182  1
  Al  Al6  1  0.332277  0.673844  0.029922  1
  Al  Al7  1  0.667723  0.326156  0.970078  1
  Al  Al8  1  0.666918  0.333902  0.524001  1
  Al  Al9  1  0.333082  0.666098  0.475999  1
  Al  Al10  1  0.163230  0.326867  0.573660  1
  Al  Al11  1  0.836770  0.673133  0.426340  1
  Al  Al12  1  0.672060  0.835583  0.574647  1
  Al  Al13  1  0.845024  0.678735  0.083160  1
  Al  Al14  1  0.327940  0.164417  0.425353  1
  Al  Al15  1  0.154976  0.321265  0.916840  1
  Al  Al16  1  0.163555  0.835288  0.575984  1
  Al  Al17  1  0.324414  0.152328  0.080137  1
  Al  Al18  1  0.836445  0.164712  0.424016  1
  Al  Al19  1  0.675586  0.847672  0.919863  1
  Al  Al20  1  0.832109  0.157971  0.079154  1
  Al  Al21  1  0.167891  0.842029  0.920846  1
  Al  Al22  1  0.562427  0.123804  0.249226  1
  Al  Al23  1  0.437573  0.876196  0.750774  1
  Al  Al24  1  0.876442  0.438029  0.251847  1
  Al  Al25  1  0.123558  0.561971  0.748153  1
  Al  Al26  1  0.564563  0.436566  0.255499  1
  Al  Al27  1  0.435437  0.563434  0.744501  1
  Al  Al28  1  0.999728  0.000600  0.250641  1
  Al  Al29  1  0.000272  0.999400  0.749359  1
  Ag  Ag30  1  0.500000  0.500000  0.000000  1
  Os  Os31  1  0.500000  0.000000  0.000000  1
  Os  Os32  1  0.500000  0.000000  0.500000  1
  Os  Os33  1  0.000000  0.500000  0.500000  1
  Os  Os34  1  0.500000  0.500000  0.500000  1
  Os  Os35  1  0.000000  0.000000  0.000000  1
  Os  Os36  1  0.000000  0.000000  0.500000  1
  Pd  Pd37  1  0.000000  0.500000  0.000000  1
