# generated using pymatgen
data_Tb7Ho9(AlIr)4
_symmetry_space_group_name_H-M   'P 1'
_cell_length_a   9.55584819
_cell_length_b   9.55584259
_cell_length_c   9.55976007
_cell_angle_alpha   59.89816721
_cell_angle_beta   59.89823922
_cell_angle_gamma   59.94787822
_symmetry_Int_Tables_number   1
_chemical_formula_structural   Tb7Ho9(AlIr)4
_chemical_formula_sum   'Tb7 Ho9 Al4 Ir4'
_cell_volume   616.06911749
_cell_formula_units_Z   1
loop_
 _symmetry_equiv_pos_site_id
 _symmetry_equiv_pos_as_xyz
  1  'x, y, z'
loop_
 _atom_site_type_symbol
 _atom_site_label
 _atom_site_symmetry_multiplicity
 _atom_site_fract_x
 _atom_site_fract_y
 _atom_site_fract_z
 _atom_site_occupancy
  Tb  Tb0  1  0.056547  0.056541  0.441700  1
  Tb  Tb1  1  0.189054  0.811118  0.812200  1
  Tb  Tb2  1  0.812105  0.189039  0.188579  1
  Tb  Tb3  1  0.811131  0.189051  0.812208  1
  Tb  Tb4  1  0.189052  0.812108  0.188583  1
  Tb  Tb5  1  0.811330  0.811338  0.189140  1
  Tb  Tb6  1  0.188643  0.188642  0.812807  1
  Ho  Ho7  1  0.599975  0.599955  0.600523  1
  Ho  Ho8  1  0.602977  0.602970  0.193970  1
  Ho  Ho9  1  0.602300  0.195070  0.602919  1
  Ho  Ho10  1  0.195080  0.602299  0.602909  1
  Ho  Ho11  1  0.055386  0.443929  0.443579  1
  Ho  Ho12  1  0.442366  0.056267  0.056044  1
  Ho  Ho13  1  0.443912  0.055377  0.443615  1
  Ho  Ho14  1  0.056253  0.442361  0.056035  1
  Ho  Ho15  1  0.443301  0.443339  0.055817  1
  Al  Al16  1  0.827395  0.827386  0.827403  1
  Al  Al17  1  0.826971  0.826964  0.518667  1
  Al  Al18  1  0.826965  0.518808  0.826944  1
  Al  Al19  1  0.518805  0.826966  0.826949  1
  Ir  Ir20  1  0.391513  0.391536  0.391544  1
  Ir  Ir21  1  0.391332  0.391351  0.825578  1
  Ir  Ir22  1  0.393089  0.824509  0.391142  1
  Ir  Ir23  1  0.824521  0.393079  0.391145  1
