# generated using pymatgen
data_La3Ga2Sn2Ge
_symmetry_space_group_name_H-M   'P 1'
_cell_length_a   8.42859791
_cell_length_b   8.42759842
_cell_length_c   8.42859958
_cell_angle_alpha   119.50423897
_cell_angle_beta   119.50792188
_cell_angle_gamma   90.86109152
_symmetry_Int_Tables_number   1
_chemical_formula_structural   La3Ga2Sn2Ge
_chemical_formula_sum   'La6 Ga4 Sn4 Ge2'
_cell_volume   426.44583802
_cell_formula_units_Z   2
loop_
 _symmetry_equiv_pos_site_id
 _symmetry_equiv_pos_as_xyz
  1  'x, y, z'
loop_
 _atom_site_type_symbol
 _atom_site_label
 _atom_site_symmetry_multiplicity
 _atom_site_fract_x
 _atom_site_fract_y
 _atom_site_fract_z
 _atom_site_occupancy
  La  La0  1  0.749773  0.749785  0.999984  1
  La  La1  1  0.249801  0.249785  0.000013  1
  La  La2  1  0.342259  0.842253  0.173013  1
  La  La3  1  0.669249  0.169247  0.826987  1
  La  La4  1  0.842262  0.669247  0.499998  1
  La  La5  1  0.169238  0.342253  0.499994  1
  Ga  Ga6  1  0.041049  0.541037  0.215983  1
  Ga  Ga7  1  0.325077  0.825068  0.784029  1
  Ga  Ga8  1  0.541039  0.325068  0.499991  1
  Ga  Ga9  1  0.825054  0.041037  0.499987  1
  Sn  Sn10  1  0.953447  0.453464  0.786397  1
  Sn  Sn11  1  0.667044  0.167057  0.213586  1
  Sn  Sn12  1  0.453472  0.667057  0.500014  1
  Sn  Sn13  1  0.167067  0.953464  0.500016  1
  Ge  Ge14  1  0.002083  0.002089  0.000005  1
  Ge  Ge15  1  0.502084  0.502089  0.000006  1
