# generated using pymatgen
data_La2Pr6MgHgIr2
_symmetry_space_group_name_H-M   'P 1'
_cell_length_a   10.05743265
_cell_length_b   10.05743309
_cell_length_c   10.08572400
_cell_angle_alpha   59.90691173
_cell_angle_beta   59.90691028
_cell_angle_gamma   60.37568912
_symmetry_Int_Tables_number   1
_chemical_formula_structural   La2Pr6MgHgIr2
_chemical_formula_sum   'La4 Pr12 Mg2 Hg2 Ir4'
_cell_volume   722.38426523
_cell_formula_units_Z   2
loop_
 _symmetry_equiv_pos_site_id
 _symmetry_equiv_pos_as_xyz
  1  'x, y, z'
loop_
 _atom_site_type_symbol
 _atom_site_label
 _atom_site_symmetry_multiplicity
 _atom_site_fract_x
 _atom_site_fract_y
 _atom_site_fract_z
 _atom_site_occupancy
  La  La0  1  0.346832  0.346832  0.346215  1
  La  La1  1  0.346832  0.346832  0.960120  1
  La  La2  1  0.348879  0.955521  0.347801  1
  La  La3  1  0.955521  0.348879  0.347801  1
  Pr  Pr4  1  0.810152  0.188081  0.190561  1
  Pr  Pr5  1  0.188081  0.810152  0.811206  1
  Pr  Pr6  1  0.188081  0.810152  0.190561  1
  Pr  Pr7  1  0.810152  0.188081  0.811206  1
  Pr  Pr8  1  0.187728  0.187728  0.812272  1
  Pr  Pr9  1  0.805943  0.805943  0.194057  1
  Pr  Pr10  1  0.937613  0.560725  0.562808  1
  Pr  Pr11  1  0.560725  0.937613  0.938854  1
  Pr  Pr12  1  0.560725  0.937613  0.562808  1
  Pr  Pr13  1  0.937613  0.560725  0.938854  1
  Pr  Pr14  1  0.561185  0.561185  0.938815  1
  Pr  Pr15  1  0.937423  0.937423  0.562577  1
  Mg  Mg16  1  0.579609  0.273548  0.573422  1
  Mg  Mg17  1  0.273548  0.579609  0.573422  1
  Hg  Hg18  1  0.581169  0.581169  0.588191  1
  Hg  Hg19  1  0.581169  0.581169  0.249472  1
  Ir  Ir20  1  0.142614  0.142614  0.141086  1
  Ir  Ir21  1  0.142614  0.142614  0.573687  1
  Ir  Ir22  1  0.142273  0.573520  0.142103  1
  Ir  Ir23  1  0.573520  0.142273  0.142103  1
