# generated using pymatgen
data_Li5Mn(ZnPd2)6
_symmetry_space_group_name_H-M   'P 1'
_cell_length_a   4.32393200
_cell_length_b   6.04214800
_cell_length_c   12.94681800
_cell_angle_alpha   90.00000000
_cell_angle_beta   89.99699799
_cell_angle_gamma   90.00000000
_symmetry_Int_Tables_number   1
_chemical_formula_structural   Li5Mn(ZnPd2)6
_chemical_formula_sum   'Li5 Mn1 Zn6 Pd12'
_cell_volume   338.24645762
_cell_formula_units_Z   1
loop_
 _symmetry_equiv_pos_site_id
 _symmetry_equiv_pos_as_xyz
  1  'x, y, z'
loop_
 _atom_site_type_symbol
 _atom_site_label
 _atom_site_symmetry_multiplicity
 _atom_site_fract_x
 _atom_site_fract_y
 _atom_site_fract_z
 _atom_site_occupancy
  Li  Li0  1  0.499656  0.500000  0.167934  1
  Li  Li1  1  0.999613  0.000000  0.333649  1
  Li  Li2  1  0.499999  0.500000  0.500000  1
  Li  Li3  1  0.000386  0.000000  0.666351  1
  Li  Li4  1  0.500344  0.499999  0.832066  1
  Mn  Mn5  1  0.000000  0.999997  0.999999  1
  Zn  Zn6  1  0.000000  0.500000  0.000000  1
  Zn  Zn7  1  0.499798  0.000000  0.168515  1
  Zn  Zn8  1  0.999767  0.500000  0.335442  1
  Zn  Zn9  1  0.500000  0.000000  0.500000  1
  Zn  Zn10  1  0.000233  0.500000  0.664558  1
  Zn  Zn11  1  0.500202  0.000000  0.831485  1
  Pd  Pd12  1  0.500000  0.254561  0.000000  1
  Pd  Pd13  1  0.500001  0.745439  0.000000  1
  Pd  Pd14  1  0.999705  0.251208  0.167996  1
  Pd  Pd15  1  0.999706  0.748792  0.167996  1
  Pd  Pd16  1  0.499725  0.250641  0.333778  1
  Pd  Pd17  1  0.499725  0.749360  0.333778  1
  Pd  Pd18  1  0.000000  0.248075  0.500000  1
  Pd  Pd19  1  0.000000  0.751924  0.500000  1
  Pd  Pd20  1  0.500275  0.250641  0.666222  1
  Pd  Pd21  1  0.500275  0.749360  0.666222  1
  Pd  Pd22  1  0.000294  0.251208  0.832004  1
  Pd  Pd23  1  0.000295  0.748791  0.832004  1
