# generated using pymatgen
data_Nb12Co12OsW
_symmetry_space_group_name_H-M   'P 1'
_cell_length_a   4.92254055
_cell_length_b   4.92250226
_cell_length_c   17.82970622
_cell_angle_alpha   97.87892498
_cell_angle_beta   97.87985940
_cell_angle_gamma   60.05762570
_symmetry_Int_Tables_number   1
_chemical_formula_structural   Nb12Co12OsW
_chemical_formula_sum   'Nb12 Co12 Os1 W1'
_cell_volume   369.64784111
_cell_formula_units_Z   1
loop_
 _symmetry_equiv_pos_site_id
 _symmetry_equiv_pos_as_xyz
  1  'x, y, z'
loop_
 _atom_site_type_symbol
 _atom_site_label
 _atom_site_symmetry_multiplicity
 _atom_site_fract_x
 _atom_site_fract_y
 _atom_site_fract_z
 _atom_site_occupancy
  Nb  Nb0  1  0.416427  0.416425  0.251309  1
  Nb  Nb1  1  0.917173  0.917170  0.752110  1
  Nb  Nb2  1  0.082827  0.082830  0.247890  1
  Nb  Nb3  1  0.583573  0.583575  0.748691  1
  Nb  Nb4  1  0.774949  0.774948  0.325310  1
  Nb  Nb5  1  0.274853  0.274851  0.825206  1
  Nb  Nb6  1  0.725147  0.725149  0.174794  1
  Nb  Nb7  1  0.225051  0.225052  0.674690  1
  Nb  Nb8  1  0.827306  0.827345  0.482288  1
  Nb  Nb9  1  0.326438  0.326438  0.979288  1
  Nb  Nb10  1  0.673562  0.673562  0.020712  1
  Nb  Nb11  1  0.172694  0.172655  0.517712  1
  Co  Co12  1  0.698621  0.209108  0.115732  1
  Co  Co13  1  0.202981  0.707612  0.616505  1
  Co  Co14  1  0.208676  0.208675  0.116047  1
  Co  Co15  1  0.706876  0.706868  0.616670  1
  Co  Co16  1  0.209111  0.698621  0.115732  1
  Co  Co17  1  0.707611  0.202987  0.616511  1
  Co  Co18  1  0.797019  0.292388  0.383495  1
  Co  Co19  1  0.301379  0.790892  0.884268  1
  Co  Co20  1  0.293124  0.293132  0.383330  1
  Co  Co21  1  0.791324  0.791325  0.883953  1
  Co  Co22  1  0.292389  0.797013  0.383489  1
  Co  Co23  1  0.790889  0.301379  0.884268  1
  Os  Os24  1  0.500000  0.500000  0.500000  1
  W  W25  1  0.000000  0.000000  0.000000  1
