# generated using pymatgen
data_Hf2AsRuRh4
_symmetry_space_group_name_H-M   'P 1'
_cell_length_a   4.06380000
_cell_length_b   5.58529865
_cell_length_c   10.91386211
_cell_angle_alpha   89.41847782
_cell_angle_beta   90.00000000
_cell_angle_gamma   90.00000000
_symmetry_Int_Tables_number   1
_chemical_formula_structural   Hf2AsRuRh4
_chemical_formula_sum   'Hf4 As2 Ru2 Rh8'
_cell_volume   247.70502646
_cell_formula_units_Z   2
loop_
 _symmetry_equiv_pos_site_id
 _symmetry_equiv_pos_as_xyz
  1  'x, y, z'
loop_
 _atom_site_type_symbol
 _atom_site_label
 _atom_site_symmetry_multiplicity
 _atom_site_fract_x
 _atom_site_fract_y
 _atom_site_fract_z
 _atom_site_occupancy
  Hf  Hf0  1  0.500000  0.327548  0.356174  1
  Hf  Hf1  1  0.500000  0.672452  0.643826  1
  Hf  Hf2  1  0.500000  0.173353  0.859915  1
  Hf  Hf3  1  0.500000  0.826647  0.140085  1
  As  As4  1  0.000000  0.000000  0.500000  1
  As  As5  1  0.000000  0.500000  0.000000  1
  Ru  Ru6  1  0.500000  0.318012  0.105104  1
  Ru  Ru7  1  0.500000  0.681988  0.894896  1
  Rh  Rh8  1  0.500000  0.816190  0.394025  1
  Rh  Rh9  1  0.500000  0.183810  0.605975  1
  Rh  Rh10  1  0.000000  0.930122  0.745376  1
  Rh  Rh11  1  0.000000  0.069878  0.254624  1
  Rh  Rh12  1  0.000000  0.429826  0.754411  1
  Rh  Rh13  1  0.000000  0.570174  0.245589  1
  Rh  Rh14  1  0.000000  0.500000  0.500000  1
  Rh  Rh15  1  0.000000  0.000000  0.000000  1
