# generated using pymatgen
data_TbErMo3P7Rh9
_symmetry_space_group_name_H-M   'P 1'
_cell_length_a   3.93182800
_cell_length_b   9.52765040
_cell_length_c   9.52711801
_cell_angle_alpha   120.00148273
_cell_angle_beta   90.00013231
_cell_angle_gamma   89.99987237
_symmetry_Int_Tables_number   1
_chemical_formula_structural   TbErMo3P7Rh9
_chemical_formula_sum   'Tb1 Er1 Mo3 P7 Rh9'
_cell_volume   309.07651877
_cell_formula_units_Z   1
loop_
 _symmetry_equiv_pos_site_id
 _symmetry_equiv_pos_as_xyz
  1  'x, y, z'
loop_
 _atom_site_type_symbol
 _atom_site_label
 _atom_site_symmetry_multiplicity
 _atom_site_fract_x
 _atom_site_fract_y
 _atom_site_fract_z
 _atom_site_occupancy
  Tb  Tb0  1  0.261414  0.666636  0.333278  1
  Er  Er1  1  0.762150  0.333336  0.666715  1
  Mo  Mo2  1  0.761975  0.091735  0.870845  1
  Mo  Mo3  1  0.761982  0.129227  0.221052  1
  Mo  Mo4  1  0.761967  0.779009  0.908161  1
  P  P5  1  0.262247  0.000017  0.999962  1
  P  P6  1  0.761716  0.881892  0.594079  1
  P  P7  1  0.761723  0.405899  0.287803  1
  P  P8  1  0.761689  0.712188  0.118057  1
  P  P9  1  0.261988  0.118342  0.412354  1
  P  P10  1  0.262012  0.587685  0.706032  1
  P  P11  1  0.261973  0.294016  0.881694  1
  Rh  Rh12  1  0.261881  0.884523  0.159835  1
  Rh  Rh13  1  0.261887  0.840106  0.724563  1
  Rh  Rh14  1  0.261884  0.275411  0.115581  1
  Rh  Rh15  1  0.761916  0.612282  0.558847  1
  Rh  Rh16  1  0.761888  0.441055  0.053327  1
  Rh  Rh17  1  0.761895  0.946569  0.387689  1
  Rh  Rh18  1  0.261962  0.370729  0.440172  1
  Rh  Rh19  1  0.261914  0.559933  0.930643  1
  Rh  Rh20  1  0.261936  0.069408  0.629311  1
