# generated using pymatgen
data_Sc12Sn(OsBr8)2
_symmetry_space_group_name_H-M   'P 1'
_cell_length_a   9.12982507
_cell_length_b   11.27915271
_cell_length_c   11.93892983
_cell_angle_alpha   117.10355270
_cell_angle_beta   101.90017750
_cell_angle_gamma   101.28746986
_symmetry_Int_Tables_number   1
_chemical_formula_structural   Sc12Sn(OsBr8)2
_chemical_formula_sum   'Sc12 Sn1 Os2 Br16'
_cell_volume   1009.94562233
_cell_formula_units_Z   1
loop_
 _symmetry_equiv_pos_site_id
 _symmetry_equiv_pos_as_xyz
  1  'x, y, z'
loop_
 _atom_site_type_symbol
 _atom_site_label
 _atom_site_symmetry_multiplicity
 _atom_site_fract_x
 _atom_site_fract_y
 _atom_site_fract_z
 _atom_site_occupancy
  Sc  Sc0  1  0.098629  0.248496  0.345075  1
  Sc  Sc1  1  0.901371  0.751504  0.654925  1
  Sc  Sc2  1  0.756369  0.539018  0.314165  1
  Sc  Sc3  1  0.243631  0.460982  0.685835  1
  Sc  Sc4  1  0.305106  0.752419  0.654758  1
  Sc  Sc5  1  0.694894  0.247581  0.345242  1
  Sc  Sc6  1  0.159506  0.538044  0.314684  1
  Sc  Sc7  1  0.840494  0.461956  0.685316  1
  Sc  Sc8  1  0.403571  0.355320  0.269193  1
  Sc  Sc9  1  0.596429  0.644680  0.730807  1
  Sc  Sc10  1  0.457600  0.303350  0.520882  1
  Sc  Sc11  1  0.542400  0.696650  0.479118  1
  Sn  Sn12  1  0.000000  0.500000  0.500000  1
  Os  Os13  1  0.339862  0.499984  0.499278  1
  Os  Os14  1  0.660139  0.500016  0.500722  1
  Br  Br15  1  0.396797  0.741903  0.884515  1
  Br  Br16  1  0.603203  0.258097  0.115485  1
  Br  Br17  1  0.186662  0.958885  0.780051  1
  Br  Br18  1  0.813338  0.041115  0.219949  1
  Br  Br19  1  0.338117  0.091818  0.249146  1
  Br  Br20  1  0.661883  0.908182  0.750854  1
  Br  Br21  1  0.555302  0.437692  0.800790  1
  Br  Br22  1  0.444698  0.562308  0.199210  1
  Br  Br23  1  0.308456  0.827530  0.462543  1
  Br  Br24  1  0.691544  0.172470  0.537457  1
  Br  Br25  1  0.166462  0.170313  0.532264  1
  Br  Br26  1  0.833538  0.829687  0.467736  1
  Br  Br27  1  0.926552  0.574044  0.165345  1
  Br  Br28  1  0.073448  0.425956  0.834655  1
  Br  Br29  1  0.924257  0.740775  0.885270  1
  Br  Br30  1  0.075743  0.259225  0.114730  1
