# generated using pymatgen
data_Ca2NiPd3
_symmetry_space_group_name_H-M   'P 1'
_cell_length_a   5.27195302
_cell_length_b   5.27195362
_cell_length_c   5.27195261
_cell_angle_alpha   63.08311992
_cell_angle_beta   63.08311923
_cell_angle_gamma   63.08311767
_symmetry_Int_Tables_number   1
_chemical_formula_structural   Ca2NiPd3
_chemical_formula_sum   'Ca2 Ni1 Pd3'
_cell_volume   110.69667753
_cell_formula_units_Z   1
loop_
 _symmetry_equiv_pos_site_id
 _symmetry_equiv_pos_as_xyz
  1  'x, y, z'
loop_
 _atom_site_type_symbol
 _atom_site_label
 _atom_site_symmetry_multiplicity
 _atom_site_fract_x
 _atom_site_fract_y
 _atom_site_fract_z
 _atom_site_occupancy
  Ca  Ca0  1  0.872482  0.872482  0.872482  1
  Ca  Ca1  1  0.127518  0.127518  0.127518  1
  Ni  Ni2  1  0.500000  0.500000  0.500000  1
  Pd  Pd3  1  0.500000  0.500000  0.000000  1
  Pd  Pd4  1  0.000000  0.500000  0.500000  1
  Pd  Pd5  1  0.500000  0.000000  0.500000  1
