# generated using pymatgen
data_Li12Sm5Gd7(WO6)8
_symmetry_space_group_name_H-M   'P 1'
_cell_length_a   10.80506758
_cell_length_b   10.80784378
_cell_length_c   10.80510828
_cell_angle_alpha   109.47820076
_cell_angle_beta   109.44528761
_cell_angle_gamma   109.47945198
_symmetry_Int_Tables_number   1
_chemical_formula_structural   Li12Sm5Gd7(WO6)8
_chemical_formula_sum   'Li12 Sm5 Gd7 W8 O48'
_cell_volume   971.47402561
_cell_formula_units_Z   1
loop_
 _symmetry_equiv_pos_site_id
 _symmetry_equiv_pos_as_xyz
  1  'x, y, z'
loop_
 _atom_site_type_symbol
 _atom_site_label
 _atom_site_symmetry_multiplicity
 _atom_site_fract_x
 _atom_site_fract_y
 _atom_site_fract_z
 _atom_site_occupancy
  Li  Li0  1  0.750057  0.375298  0.125437  1
  Li  Li1  1  0.875384  0.750138  0.125432  1
  Li  Li2  1  0.125083  0.375087  0.249988  1
  Li  Li3  1  0.624977  0.875043  0.250149  1
  Li  Li4  1  0.249864  0.124611  0.374560  1
  Li  Li5  1  0.624973  0.249930  0.374823  1
  Li  Li6  1  0.374686  0.749936  0.624557  1
  Li  Li7  1  0.749907  0.874736  0.624526  1
  Li  Li8  1  0.374911  0.124920  0.749996  1
  Li  Li9  1  0.875107  0.624958  0.749932  1
  Li  Li10  1  0.125110  0.250151  0.875181  1
  Li  Li11  1  0.249926  0.625195  0.875375  1
  Sm  Sm12  1  0.249362  0.374681  0.624684  1
  Sm  Sm13  1  0.625197  0.374900  0.749844  1
  Sm  Sm14  1  0.125024  0.875017  0.750035  1
  Sm  Sm15  1  0.750302  0.125126  0.875161  1
  Sm  Sm16  1  0.625212  0.750330  0.875358  1
  Gd  Gd17  1  0.375222  0.250341  0.125354  1
  Gd  Gd18  1  0.250149  0.875047  0.125336  1
  Gd  Gd19  1  0.874968  0.125102  0.250297  1
  Gd  Gd20  1  0.375024  0.624975  0.249999  1
  Gd  Gd21  1  0.124977  0.749855  0.374647  1
  Gd  Gd22  1  0.749614  0.624762  0.374618  1
  Gd  Gd23  1  0.874974  0.249847  0.624643  1
  W  W24  1  0.000652  0.000312  0.000841  1
  W  W25  1  0.000615  0.500445  0.000205  1
  W  W26  1  0.499974  0.499999  0.000536  1
  W  W27  1  0.500199  0.000542  0.000826  1
  W  W28  1  0.499817  0.999517  0.499408  1
  W  W29  1  0.999340  0.499722  0.499465  1
  W  W30  1  0.999453  0.999479  0.499336  1
  W  W31  1  0.499973  0.500007  0.499446  1
  O  O32  1  0.327146  0.408397  0.026375  1
  O  O33  1  0.199298  0.618037  0.026440  1
  O  O34  1  0.698803  0.173255  0.082376  1
  O  O35  1  0.883532  0.909106  0.082354  1
  O  O36  1  0.618028  0.919649  0.092458  1
  O  O37  1  0.974421  0.172821  0.092368  1
  O  O38  1  0.591701  0.418901  0.118043  1
  O  O39  1  0.026165  0.698880  0.117727  1
  O  O40  1  0.199434  0.081314  0.173003  1
  O  O41  1  0.473572  0.091707  0.173085  1
  O  O42  1  0.117826  0.526022  0.198782  1
  O  O43  1  0.581190  0.672889  0.199211  1
  O  O44  1  0.327152  0.418823  0.300802  1
  O  O45  1  0.473591  0.881907  0.300652  1
  O  O46  1  0.908179  0.526103  0.327089  1
  O  O47  1  0.918635  0.800835  0.327084  1
  O  O48  1  0.581163  0.408291  0.381933  1
  O  O49  1  0.301270  0.973972  0.382143  1
  O  O50  1  0.827115  0.026067  0.408126  1
  O  O51  1  0.080298  0.382065  0.407641  1
  O  O52  1  0.827109  0.300891  0.418707  1
  O  O53  1  0.090858  0.116412  0.417767  1
  O  O54  1  0.591615  0.672816  0.473652  1
  O  O55  1  0.382357  0.801119  0.473800  1
  O  O56  1  0.617703  0.198105  0.525388  1
  O  O57  1  0.408407  0.326921  0.524734  1
  O  O58  1  0.172503  0.697881  0.580353  1
  O  O59  1  0.907688  0.882070  0.580380  1
  O  O60  1  0.917697  0.616410  0.590820  1
  O  O61  1  0.172922  0.974797  0.590939  1
  O  O62  1  0.698358  0.025235  0.616228  1
  O  O63  1  0.418449  0.591497  0.616288  1
  O  O64  1  0.080278  0.197820  0.672478  1
  O  O65  1  0.090990  0.474844  0.672909  1
  O  O66  1  0.524772  0.116260  0.697616  1
  O  O67  1  0.672988  0.581404  0.697755  1
  O  O68  1  0.418497  0.326993  0.802220  1
  O  O69  1  0.883749  0.474757  0.801690  1
  O  O70  1  0.802504  0.918745  0.827186  1
  O  O71  1  0.524716  0.908506  0.827174  1
  O  O72  1  0.974586  0.301893  0.882387  1
  O  O73  1  0.408426  0.581467  0.883674  1
  O  O74  1  0.383661  0.082213  0.909193  1
  O  O75  1  0.025509  0.826938  0.909170  1
  O  O76  1  0.117873  0.092315  0.919635  1
  O  O77  1  0.301823  0.827362  0.919681  1
  O  O78  1  0.802343  0.383683  0.975263  1
  O  O79  1  0.673068  0.591601  0.975230  1
