# generated using pymatgen
data_CeLuMgNi9
_symmetry_space_group_name_H-M   'P 1'
_cell_length_a   8.49542131
_cell_length_b   8.49542125
_cell_length_c   8.49542243
_cell_angle_alpha   33.44543427
_cell_angle_beta   33.44543330
_cell_angle_gamma   33.44542810
_symmetry_Int_Tables_number   1
_chemical_formula_structural   CeLuMgNi9
_chemical_formula_sum   'Ce1 Lu1 Mg1 Ni9'
_cell_volume   165.86159934
_cell_formula_units_Z   1
loop_
 _symmetry_equiv_pos_site_id
 _symmetry_equiv_pos_as_xyz
  1  'x, y, z'
loop_
 _atom_site_type_symbol
 _atom_site_label
 _atom_site_symmetry_multiplicity
 _atom_site_fract_x
 _atom_site_fract_y
 _atom_site_fract_z
 _atom_site_occupancy
  Ce  Ce0  1  0.004665  0.004665  0.004665  1
  Lu  Lu1  1  0.856125  0.856125  0.856125  1
  Mg  Mg2  1  0.140967  0.140967  0.140967  1
  Ni  Ni3  1  0.584749  0.083479  0.584749  1
  Ni  Ni4  1  0.083479  0.584749  0.584749  1
  Ni  Ni5  1  0.584749  0.584749  0.083479  1
  Ni  Ni6  1  0.414397  0.918159  0.414397  1
  Ni  Ni7  1  0.918159  0.414397  0.414397  1
  Ni  Ni8  1  0.332716  0.332716  0.332716  1
  Ni  Ni9  1  0.414397  0.414397  0.918159  1
  Ni  Ni10  1  0.499479  0.499479  0.499479  1
  Ni  Ni11  1  0.666118  0.666118  0.666118  1
