# generated using pymatgen
data_LaSmGdNbO7
_symmetry_space_group_name_H-M   'P 1'
_cell_length_a   6.61255530
_cell_length_b   6.61255359
_cell_length_c   7.73226100
_cell_angle_alpha   90.00000000
_cell_angle_beta   90.00000000
_cell_angle_gamma   109.26151483
_symmetry_Int_Tables_number   1
_chemical_formula_structural   LaSmGdNbO7
_chemical_formula_sum   'La2 Sm2 Gd2 Nb2 O14'
_cell_volume   319.17398353
_cell_formula_units_Z   2
loop_
 _symmetry_equiv_pos_site_id
 _symmetry_equiv_pos_as_xyz
  1  'x, y, z'
loop_
 _atom_site_type_symbol
 _atom_site_label
 _atom_site_symmetry_multiplicity
 _atom_site_fract_x
 _atom_site_fract_y
 _atom_site_fract_z
 _atom_site_occupancy
  La  La0  1  0.499404  0.499404  0.500000  1
  La  La1  1  0.499404  0.499404  0.000000  1
  Sm  Sm2  1  0.535809  0.000111  0.750000  1
  Sm  Sm3  1  0.000111  0.535809  0.250000  1
  Gd  Gd4  1  0.466530  0.999140  0.250000  1
  Gd  Gd5  1  0.999140  0.466530  0.750000  1
  Nb  Nb6  1  0.000289  0.000289  0.500000  1
  Nb  Nb7  1  0.000289  0.000289  0.000000  1
  O  O8  1  0.682688  0.932146  0.467379  1
  O  O9  1  0.932146  0.682688  0.532621  1
  O  O10  1  0.682688  0.932146  0.032621  1
  O  O11  1  0.932146  0.682688  0.967379  1
  O  O12  1  0.317264  0.068072  0.531226  1
  O  O13  1  0.068072  0.317264  0.468774  1
  O  O14  1  0.317264  0.068072  0.968774  1
  O  O15  1  0.068072  0.317264  0.031226  1
  O  O16  1  0.363474  0.631741  0.750000  1
  O  O17  1  0.631741  0.363474  0.250000  1
  O  O18  1  0.642085  0.361948  0.750000  1
  O  O19  1  0.361948  0.642085  0.250000  1
  O  O20  1  0.936357  0.063082  0.750000  1
  O  O21  1  0.063082  0.936357  0.250000  1
