# generated using pymatgen
data_Sr4As3PIr4
_symmetry_space_group_name_H-M   'P 1'
_cell_length_a   6.54854093
_cell_length_b   6.54854093
_cell_length_c   6.54854093
_cell_angle_alpha   90.08868452
_cell_angle_beta   90.08868452
_cell_angle_gamma   90.08868452
_symmetry_Int_Tables_number   1
_chemical_formula_structural   Sr4As3PIr4
_chemical_formula_sum   'Sr4 As3 P1 Ir4'
_cell_volume   280.82261273
_cell_formula_units_Z   1
loop_
 _symmetry_equiv_pos_site_id
 _symmetry_equiv_pos_as_xyz
  1  'x, y, z'
loop_
 _atom_site_type_symbol
 _atom_site_label
 _atom_site_symmetry_multiplicity
 _atom_site_fract_x
 _atom_site_fract_y
 _atom_site_fract_z
 _atom_site_occupancy
  Sr  Sr0  1  0.623562  0.380008  0.877631  1
  Sr  Sr1  1  0.380008  0.877631  0.623562  1
  Sr  Sr2  1  0.121267  0.121267  0.121267  1
  Sr  Sr3  1  0.877631  0.623562  0.380008  1
  As  As4  1  0.162560  0.335303  0.668585  1
  As  As5  1  0.668585  0.162560  0.335303  1
  As  As6  1  0.335303  0.668585  0.162560  1
  P  P7  1  0.836890  0.836890  0.836890  1
  Ir  Ir8  1  0.599386  0.910487  0.074323  1
  Ir  Ir9  1  0.074323  0.599386  0.910487  1
  Ir  Ir10  1  0.409997  0.409997  0.409997  1
  Ir  Ir11  1  0.910487  0.074323  0.599386  1
