# generated using pymatgen
data_BaSr3V8O16
_symmetry_space_group_name_H-M   'P 1'
_cell_length_a   5.32030626
_cell_length_b   6.11754487
_cell_length_c   11.94216816
_cell_angle_alpha   90.02821408
_cell_angle_beta   90.00626628
_cell_angle_gamma   91.40080807
_symmetry_Int_Tables_number   1
_chemical_formula_structural   BaSr3V8O16
_chemical_formula_sum   'Ba1 Sr3 V8 O16'
_cell_volume   388.56807164
_cell_formula_units_Z   1
loop_
 _symmetry_equiv_pos_site_id
 _symmetry_equiv_pos_as_xyz
  1  'x, y, z'
loop_
 _atom_site_type_symbol
 _atom_site_label
 _atom_site_symmetry_multiplicity
 _atom_site_fract_x
 _atom_site_fract_y
 _atom_site_fract_z
 _atom_site_occupancy
  Ba  Ba0  1  0.448048  0.734521  0.749988  1
  Sr  Sr1  1  0.854167  0.242473  0.750097  1
  Sr  Sr2  1  0.148416  0.756652  0.250081  1
  Sr  Sr3  1  0.540239  0.263035  0.249975  1
  V  V4  1  0.506172  0.749018  0.487355  1
  V  V5  1  0.509474  0.751861  0.012704  1
  V  V6  1  0.491912  0.248299  0.505963  1
  V  V7  1  0.494984  0.251093  0.994022  1
  V  V8  1  0.997905  0.497349  0.496016  1
  V  V9  1  0.000659  0.003227  0.003686  1
  V  V10  1  0.997453  0.000143  0.496435  1
  V  V11  1  0.001048  0.500139  0.003793  1
  O  O12  1  0.834856  0.744816  0.405217  1
  O  O13  1  0.837887  0.748096  0.094621  1
  O  O14  1  0.161006  0.252618  0.589790  1
  O  O15  1  0.164161  0.255355  0.910018  1
  O  O16  1  0.169856  0.752524  0.574768  1
  O  O17  1  0.172861  0.755390  0.925467  1
  O  O18  1  0.822850  0.245486  0.414222  1
  O  O19  1  0.825926  0.248875  0.085876  1
  O  O20  1  0.665603  0.490881  0.592276  1
  O  O21  1  0.667060  0.993719  0.908308  1
  O  O22  1  0.337478  0.009745  0.401418  1
  O  O23  1  0.340062  0.505098  0.099328  1
  O  O24  1  0.336775  0.502383  0.400603  1
  O  O25  1  0.340284  0.012455  0.098658  1
  O  O26  1  0.664209  0.991533  0.591684  1
  O  O27  1  0.668654  0.493214  0.907632  1
