# generated using pymatgen
data_LiTb10Nd6Cd3Pt4
_symmetry_space_group_name_H-M   'P 1'
_cell_length_a   9.82194063
_cell_length_b   9.82194045
_cell_length_c   9.82194055
_cell_angle_alpha   60.15442948
_cell_angle_beta   60.15443316
_cell_angle_gamma   60.15443016
_symmetry_Int_Tables_number   1
_chemical_formula_structural   LiTb10Nd6Cd3Pt4
_chemical_formula_sum   'Li1 Tb10 Nd6 Cd3 Pt4'
_cell_volume   672.34685479
_cell_formula_units_Z   1
loop_
 _symmetry_equiv_pos_site_id
 _symmetry_equiv_pos_as_xyz
  1  'x, y, z'
loop_
 _atom_site_type_symbol
 _atom_site_label
 _atom_site_symmetry_multiplicity
 _atom_site_fract_x
 _atom_site_fract_y
 _atom_site_fract_z
 _atom_site_occupancy
  Li  Li0  1  0.571799  0.571799  0.571799  1
  Tb  Tb1  1  0.350116  0.350116  0.350116  1
  Tb  Tb2  1  0.350069  0.350069  0.949746  1
  Tb  Tb3  1  0.350069  0.949746  0.350069  1
  Tb  Tb4  1  0.949746  0.350069  0.350069  1
  Tb  Tb5  1  0.811621  0.190278  0.190278  1
  Tb  Tb6  1  0.185110  0.813758  0.813758  1
  Tb  Tb7  1  0.190278  0.811621  0.190278  1
  Tb  Tb8  1  0.813758  0.185110  0.813758  1
  Tb  Tb9  1  0.190278  0.190278  0.811621  1
  Tb  Tb10  1  0.813758  0.813758  0.185110  1
  Nd  Nd11  1  0.937448  0.562725  0.562725  1
  Nd  Nd12  1  0.561246  0.937983  0.937983  1
  Nd  Nd13  1  0.562725  0.937448  0.562725  1
  Nd  Nd14  1  0.937983  0.561246  0.937983  1
  Nd  Nd15  1  0.562725  0.562725  0.937448  1
  Nd  Nd16  1  0.937983  0.937983  0.561246  1
  Cd  Cd17  1  0.581351  0.581351  0.259109  1
  Cd  Cd18  1  0.581351  0.259109  0.581351  1
  Cd  Cd19  1  0.259109  0.581351  0.581351  1
  Pt  Pt20  1  0.143613  0.143613  0.143613  1
  Pt  Pt21  1  0.143335  0.143335  0.571198  1
  Pt  Pt22  1  0.143335  0.571198  0.143335  1
  Pt  Pt23  1  0.571198  0.143335  0.143335  1
