# generated using pymatgen
data_Y2ThAlIn2Rh3
_symmetry_space_group_name_H-M   'P 1'
_cell_length_a   7.54975109
_cell_length_b   7.65176014
_cell_length_c   3.87859900
_cell_angle_alpha   90.00000000
_cell_angle_beta   90.00000000
_cell_angle_gamma   120.44797728
_symmetry_Int_Tables_number   1
_chemical_formula_structural   Y2ThAlIn2Rh3
_chemical_formula_sum   'Y2 Th1 Al1 In2 Rh3'
_cell_volume   193.16181846
_cell_formula_units_Z   1
loop_
 _symmetry_equiv_pos_site_id
 _symmetry_equiv_pos_as_xyz
  1  'x, y, z'
loop_
 _atom_site_type_symbol
 _atom_site_label
 _atom_site_symmetry_multiplicity
 _atom_site_fract_x
 _atom_site_fract_y
 _atom_site_fract_z
 _atom_site_occupancy
  Y  Y0  1  0.399370  0.409669  0.500000  1
  Y  Y1  1  0.600630  0.010299  0.500000  1
  Th  Th2  1  0.000000  0.566137  0.500000  1
  Al  Al3  1  0.000000  0.233606  0.000000  1
  In  In4  1  0.263864  0.011055  0.000000  1
  In  In5  1  0.736136  0.747191  0.000000  1
  Rh  Rh6  1  0.303483  0.652307  0.000000  1
  Rh  Rh7  1  0.000000  0.020915  0.500000  1
  Rh  Rh8  1  0.696517  0.348822  0.000000  1
