# generated using pymatgen
data_Sr7NbRu3O19
_symmetry_space_group_name_H-M   'P 1'
_cell_length_a   7.44293029
_cell_length_b   7.44292972
_cell_length_c   10.54311414
_cell_angle_alpha   82.06735347
_cell_angle_beta   82.06736040
_cell_angle_gamma   44.69387484
_symmetry_Int_Tables_number   1
_chemical_formula_structural   Sr7NbRu3O19
_chemical_formula_sum   'Sr7 Nb1 Ru3 O19'
_cell_volume   406.18089940
_cell_formula_units_Z   1
loop_
 _symmetry_equiv_pos_site_id
 _symmetry_equiv_pos_as_xyz
  1  'x, y, z'
loop_
 _atom_site_type_symbol
 _atom_site_label
 _atom_site_symmetry_multiplicity
 _atom_site_fract_x
 _atom_site_fract_y
 _atom_site_fract_z
 _atom_site_occupancy
  Sr  Sr0  1  0.861567  0.861567  0.950315  1
  Sr  Sr1  1  0.417186  0.417189  0.166596  1
  Sr  Sr2  1  0.799941  0.799941  0.589469  1
  Sr  Sr3  1  0.203660  0.203660  0.410194  1
  Sr  Sr4  1  0.580566  0.580563  0.832571  1
  Sr  Sr5  1  0.138873  0.138873  0.050475  1
  Sr  Sr6  1  0.496815  0.496815  0.498170  1
  Nb  Nb7  1  0.959728  0.959728  0.316346  1
  Ru  Ru8  1  0.326965  0.326964  0.786459  1
  Ru  Ru9  1  0.672969  0.672970  0.215547  1
  Ru  Ru10  1  0.036760  0.036760  0.677320  1
  O  O11  1  0.684420  0.172940  0.713817  1
  O  O12  1  0.172940  0.684421  0.713817  1
  O  O13  1  0.398184  0.398184  0.931346  1
  O  O14  1  0.953594  0.953594  0.135874  1
  O  O15  1  0.618386  0.124535  0.378887  1
  O  O16  1  0.124534  0.618387  0.378888  1
  O  O17  1  0.297276  0.297276  0.623502  1
  O  O18  1  0.001209  0.478875  0.850781  1
  O  O19  1  0.478875  0.001210  0.850781  1
  O  O20  1  0.520590  0.998431  0.148469  1
  O  O21  1  0.998432  0.520590  0.148469  1
  O  O22  1  0.699898  0.699898  0.379479  1
  O  O23  1  0.371616  0.884547  0.628319  1
  O  O24  1  0.884548  0.371615  0.628318  1
  O  O25  1  0.048964  0.048964  0.852865  1
  O  O26  1  0.602012  0.602012  0.069999  1
  O  O27  1  0.826414  0.319689  0.284757  1
  O  O28  1  0.319690  0.826414  0.284757  1
  O  O29  1  0.003388  0.003388  0.503412  1
