# generated using pymatgen
data_Rb8Li4Sc4AsP7
_symmetry_space_group_name_H-M   'P 1'
_cell_length_a   10.18448904
_cell_length_b   10.18448832
_cell_length_c   6.50367641
_cell_angle_alpha   90.05751164
_cell_angle_beta   89.94249335
_cell_angle_gamma   100.89165026
_symmetry_Int_Tables_number   1
_chemical_formula_structural   Rb8Li4Sc4AsP7
_chemical_formula_sum   'Rb8 Li4 Sc4 As1 P7'
_cell_volume   662.43371348
_cell_formula_units_Z   1
loop_
 _symmetry_equiv_pos_site_id
 _symmetry_equiv_pos_as_xyz
  1  'x, y, z'
loop_
 _atom_site_type_symbol
 _atom_site_label
 _atom_site_symmetry_multiplicity
 _atom_site_fract_x
 _atom_site_fract_y
 _atom_site_fract_z
 _atom_site_occupancy
  Rb  Rb0  1  0.071565  0.431251  0.750362  1
  Rb  Rb1  1  0.674837  0.325163  0.788443  1
  Rb  Rb2  1  0.324402  0.675598  0.211572  1
  Rb  Rb3  1  0.568749  0.928435  0.750362  1
  Rb  Rb4  1  0.430792  0.070500  0.250528  1
  Rb  Rb5  1  0.929500  0.569208  0.250528  1
  Rb  Rb6  1  0.823007  0.176993  0.286289  1
  Rb  Rb7  1  0.175758  0.824242  0.711103  1
  Li  Li8  1  0.122883  0.121190  0.497735  1
  Li  Li9  1  0.878810  0.877117  0.497735  1
  Li  Li10  1  0.379959  0.379976  0.000101  1
  Li  Li11  1  0.620024  0.620041  0.000101  1
  Sc  Sc12  1  0.868752  0.866470  0.002933  1
  Sc  Sc13  1  0.369671  0.369299  0.500410  1
  Sc  Sc14  1  0.630701  0.630329  0.500410  1
  Sc  Sc15  1  0.133530  0.131248  0.002933  1
  As  As16  1  0.910486  0.089514  0.774827  1
  P  P17  1  0.833967  0.665425  0.749982  1
  P  P18  1  0.085612  0.914388  0.221866  1
  P  P19  1  0.414838  0.585162  0.722779  1
  P  P20  1  0.584923  0.415077  0.277452  1
  P  P21  1  0.665562  0.832904  0.250783  1
  P  P22  1  0.167096  0.334438  0.250783  1
  P  P23  1  0.334575  0.166033  0.749982  1
