# generated using pymatgen
data_LaTb2In3Ag2Ir
_symmetry_space_group_name_H-M   'P 1'
_cell_length_a   7.95341853
_cell_length_b   7.94508276
_cell_length_c   3.95904100
_cell_angle_alpha   90.00000000
_cell_angle_beta   90.00000000
_cell_angle_gamma   120.25483022
_symmetry_Int_Tables_number   1
_chemical_formula_structural   LaTb2In3Ag2Ir
_chemical_formula_sum   'La1 Tb2 In3 Ag2 Ir1'
_cell_volume   216.09860251
_cell_formula_units_Z   1
loop_
 _symmetry_equiv_pos_site_id
 _symmetry_equiv_pos_as_xyz
  1  'x, y, z'
loop_
 _atom_site_type_symbol
 _atom_site_label
 _atom_site_symmetry_multiplicity
 _atom_site_fract_x
 _atom_site_fract_y
 _atom_site_fract_z
 _atom_site_occupancy
  La  La0  1  0.423578  0.397090  0.000000  1
  Tb  Tb1  1  0.608767  0.030915  0.000000  1
  Tb  Tb2  1  0.968883  0.574244  0.000000  1
  In  In3  1  0.000018  0.266123  0.500000  1
  In  In4  1  0.739486  0.744226  0.500000  1
  In  In5  1  0.259994  0.988117  0.500000  1
  Ag  Ag6  1  0.998819  0.998575  0.000000  1
  Ag  Ag7  1  0.331362  0.669921  0.500000  1
  Ir  Ir8  1  0.669093  0.330788  0.500000  1
