# generated using pymatgen
data_Lu20Cd6GeIr
_symmetry_space_group_name_H-M   'P 1'
_cell_length_a   9.31560801
_cell_length_b   9.31725863
_cell_length_c   9.80565600
_cell_angle_alpha   90.00011684
_cell_angle_beta   89.99771816
_cell_angle_gamma   119.99810185
_symmetry_Int_Tables_number   1
_chemical_formula_structural   Lu20Cd6GeIr
_chemical_formula_sum   'Lu20 Cd6 Ge1 Ir1'
_cell_volume   737.08054386
_cell_formula_units_Z   1
loop_
 _symmetry_equiv_pos_site_id
 _symmetry_equiv_pos_as_xyz
  1  'x, y, z'
loop_
 _atom_site_type_symbol
 _atom_site_label
 _atom_site_symmetry_multiplicity
 _atom_site_fract_x
 _atom_site_fract_y
 _atom_site_fract_z
 _atom_site_occupancy
  Lu  Lu0  1  0.000156  0.000150  0.499624  1
  Lu  Lu1  1  0.999859  0.999845  0.000266  1
  Lu  Lu2  1  0.208255  0.791803  0.455396  1
  Lu  Lu3  1  0.208303  0.416527  0.455509  1
  Lu  Lu4  1  0.583584  0.791826  0.455342  1
  Lu  Lu5  1  0.789087  0.210891  0.554374  1
  Lu  Lu6  1  0.789126  0.578268  0.554386  1
  Lu  Lu7  1  0.421836  0.210946  0.554322  1
  Lu  Lu8  1  0.789088  0.210841  0.945663  1
  Lu  Lu9  1  0.789084  0.578186  0.945700  1
  Lu  Lu10  1  0.421706  0.210862  0.945697  1
  Lu  Lu11  1  0.208213  0.791751  0.044595  1
  Lu  Lu12  1  0.208186  0.416326  0.044623  1
  Lu  Lu13  1  0.583472  0.791737  0.044566  1
  Lu  Lu14  1  0.542731  0.457552  0.250018  1
  Lu  Lu15  1  0.542658  0.085193  0.249998  1
  Lu  Lu16  1  0.914964  0.457434  0.250033  1
  Lu  Lu17  1  0.461564  0.538412  0.750025  1
  Lu  Lu18  1  0.461514  0.923182  0.749991  1
  Lu  Lu19  1  0.076681  0.538339  0.750035  1
  Cd  Cd20  1  0.886720  0.113564  0.249964  1
  Cd  Cd21  1  0.886771  0.773211  0.250004  1
  Cd  Cd22  1  0.226901  0.113590  0.249874  1
  Cd  Cd23  1  0.112074  0.887766  0.750013  1
  Cd  Cd24  1  0.112139  0.224291  0.750024  1
  Cd  Cd25  1  0.775616  0.887801  0.749869  1
  Ge  Ge26  1  0.333086  0.666370  0.249993  1
  Ir  Ir27  1  0.666624  0.333335  0.750097  1
