# generated using pymatgen
data_PmAlZn4
_symmetry_space_group_name_H-M   'P 1'
_cell_length_a   5.46983425
_cell_length_b   5.46983512
_cell_length_c   4.17723400
_cell_angle_alpha   90.00000000
_cell_angle_beta   90.00000000
_cell_angle_gamma   59.48359135
_symmetry_Int_Tables_number   1
_chemical_formula_structural   PmAlZn4
_chemical_formula_sum   'Pm1 Al1 Zn4'
_cell_volume   107.66742032
_cell_formula_units_Z   1
loop_
 _symmetry_equiv_pos_site_id
 _symmetry_equiv_pos_as_xyz
  1  'x, y, z'
loop_
 _atom_site_type_symbol
 _atom_site_label
 _atom_site_symmetry_multiplicity
 _atom_site_fract_x
 _atom_site_fract_y
 _atom_site_fract_z
 _atom_site_occupancy
  Pm  Pm0  1  0.999967  0.000033  0.000000  1
  Al  Al1  1  0.499739  0.500260  0.499999  1
  Zn  Zn2  1  0.329227  0.329256  0.000000  1
  Zn  Zn3  1  0.670744  0.670773  0.000000  1
  Zn  Zn4  1  0.500328  0.000010  0.499999  1
  Zn  Zn5  1  0.999990  0.499671  0.499999  1
