# generated using pymatgen
data_SmLu(Co3Si2)2
_symmetry_space_group_name_H-M   'P 1'
_cell_length_a   6.26358747
_cell_length_b   6.26358698
_cell_length_c   6.26358817
_cell_angle_alpha   130.49801894
_cell_angle_beta   113.22459091
_cell_angle_gamma   87.49204728
_symmetry_Int_Tables_number   1
_chemical_formula_structural   SmLu(Co3Si2)2
_chemical_formula_sum   'Sm1 Lu1 Co6 Si4'
_cell_volume   163.60350534
_cell_formula_units_Z   1
loop_
 _symmetry_equiv_pos_site_id
 _symmetry_equiv_pos_as_xyz
  1  'x, y, z'
loop_
 _atom_site_type_symbol
 _atom_site_label
 _atom_site_symmetry_multiplicity
 _atom_site_fract_x
 _atom_site_fract_y
 _atom_site_fract_z
 _atom_site_occupancy
  Sm  Sm0  1  0.250000  0.528310  0.278310  1
  Lu  Lu1  1  0.750000  0.464192  0.714192  1
  Co  Co2  1  0.001330  0.001613  0.502943  1
  Co  Co3  1  0.498670  0.001613  0.000283  1
  Co  Co4  1  0.724816  0.003563  0.724763  1
  Co  Co5  1  0.221199  0.499948  0.724763  1
  Co  Co6  1  0.278801  0.003563  0.278748  1
  Co  Co7  1  0.775184  0.499948  0.278748  1
  Si  Si8  1  0.077302  0.871292  0.793990  1
  Si  Si9  1  0.916442  0.121078  0.204635  1
  Si  Si10  1  0.583558  0.788195  0.204635  1
  Si  Si11  1  0.422698  0.216686  0.793990  1
