# generated using pymatgen
data_CaYb2Zn11
_symmetry_space_group_name_H-M   'P 1'
_cell_length_a   4.37714126
_cell_length_b   8.28254230
_cell_length_c   8.28254272
_cell_angle_alpha   65.95515521
_cell_angle_beta   74.67825409
_cell_angle_gamma   74.67825697
_symmetry_Int_Tables_number   1
_chemical_formula_structural   CaYb2Zn11
_chemical_formula_sum   'Ca1 Yb2 Zn11'
_cell_volume   260.25939102
_cell_formula_units_Z   1
loop_
 _symmetry_equiv_pos_site_id
 _symmetry_equiv_pos_as_xyz
  1  'x, y, z'
loop_
 _atom_site_type_symbol
 _atom_site_label
 _atom_site_symmetry_multiplicity
 _atom_site_fract_x
 _atom_site_fract_y
 _atom_site_fract_z
 _atom_site_occupancy
  Ca  Ca0  1  0.000000  0.000000  0.000000  1
  Yb  Yb1  1  0.704169  0.295831  0.295831  1
  Yb  Yb2  1  0.295831  0.704169  0.704169  1
  Zn  Zn3  1  0.000000  0.500000  0.500000  1
  Zn  Zn4  1  0.500000  0.685199  0.314801  1
  Zn  Zn5  1  0.500000  0.314801  0.685199  1
  Zn  Zn6  1  0.663524  0.693216  0.979736  1
  Zn  Zn7  1  0.336476  0.306784  0.020264  1
  Zn  Zn8  1  0.663524  0.979736  0.693216  1
  Zn  Zn9  1  0.336476  0.020264  0.306784  1
  Zn  Zn10  1  0.865491  0.423504  0.845514  1
  Zn  Zn11  1  0.134509  0.576496  0.154486  1
  Zn  Zn12  1  0.865491  0.845514  0.423504  1
  Zn  Zn13  1  0.134509  0.154486  0.576496  1
