# generated using pymatgen
data_Hf6Nb4Ga5Si
_symmetry_space_group_name_H-M   'P 1'
_cell_length_a   7.93155200
_cell_length_b   7.92436203
_cell_length_c   5.43119700
_cell_angle_alpha   90.00000000
_cell_angle_beta   90.00000000
_cell_angle_gamma   120.03001862
_symmetry_Int_Tables_number   1
_chemical_formula_structural   Hf6Nb4Ga5Si
_chemical_formula_sum   'Hf6 Nb4 Ga5 Si1'
_cell_volume   295.54064940
_cell_formula_units_Z   1
loop_
 _symmetry_equiv_pos_site_id
 _symmetry_equiv_pos_as_xyz
  1  'x, y, z'
loop_
 _atom_site_type_symbol
 _atom_site_label
 _atom_site_symmetry_multiplicity
 _atom_site_fract_x
 _atom_site_fract_y
 _atom_site_fract_z
 _atom_site_occupancy
  Hf  Hf0  1  0.751380  0.754049  0.250000  1
  Hf  Hf1  1  0.749604  0.000000  0.750000  1
  Hf  Hf2  1  0.997331  0.245951  0.250000  1
  Hf  Hf3  1  0.246972  0.247911  0.750000  1
  Hf  Hf4  1  0.250796  0.000000  0.250000  1
  Hf  Hf5  1  0.999061  0.752089  0.750000  1
  Nb  Nb6  1  0.665989  0.329741  0.000690  1
  Nb  Nb7  1  0.665989  0.329741  0.499310  1
  Nb  Nb8  1  0.336247  0.670259  0.499310  1
  Nb  Nb9  1  0.336247  0.670259  0.000690  1
  Ga  Ga10  1  0.603092  0.601640  0.750000  1
  Ga  Ga11  1  0.001452  0.398360  0.750000  1
  Ga  Ga12  1  0.999771  0.603363  0.250000  1
  Ga  Ga13  1  0.396409  0.396637  0.250000  1
  Ga  Ga14  1  0.395204  0.000000  0.750000  1
  Si  Si15  1  0.604454  0.000000  0.250000  1
