# generated using pymatgen
data_Tm3ThAl3(Ga5Ir2)3
_symmetry_space_group_name_H-M   'P 1'
_cell_length_a   7.59041816
_cell_length_b   7.61027812
_cell_length_c   9.46723338
_cell_angle_alpha   89.98469579
_cell_angle_beta   89.98274249
_cell_angle_gamma   119.66923651
_symmetry_Int_Tables_number   1
_chemical_formula_structural   Tm3ThAl3(Ga5Ir2)3
_chemical_formula_sum   'Tm3 Th1 Al3 Ga15 Ir6'
_cell_volume   475.17955654
_cell_formula_units_Z   1
loop_
 _symmetry_equiv_pos_site_id
 _symmetry_equiv_pos_as_xyz
  1  'x, y, z'
loop_
 _atom_site_type_symbol
 _atom_site_label
 _atom_site_symmetry_multiplicity
 _atom_site_fract_x
 _atom_site_fract_y
 _atom_site_fract_z
 _atom_site_occupancy
  Tm  Tm0  1  0.999371  0.329202  0.749203  1
  Tm  Tm1  1  0.673570  0.999137  0.249891  1
  Tm  Tm2  1  0.328180  0.000308  0.749155  1
  Th  Th3  1  0.998576  0.670790  0.250183  1
  Al  Al4  1  0.660623  0.664724  0.452679  1
  Al  Al5  1  0.664258  0.668414  0.047835  1
  Al  Al6  1  0.330433  0.330522  0.942290  1
  Ga  Ga7  1  0.130604  0.133266  0.249379  1
  Ga  Ga8  1  0.873100  0.876515  0.749384  1
  Ga  Ga9  1  0.999858  0.329728  0.077054  1
  Ga  Ga10  1  0.000752  0.664335  0.912146  1
  Ga  Ga11  1  0.000302  0.664220  0.587932  1
  Ga  Ga12  1  0.342933  0.006305  0.420955  1
  Ga  Ga13  1  0.001226  0.329879  0.421206  1
  Ga  Ga14  1  0.664280  0.001830  0.581661  1
  Ga  Ga15  1  0.664281  0.002352  0.918127  1
  Ga  Ga16  1  0.342270  0.004716  0.077275  1
  Ga  Ga17  1  0.326757  0.326970  0.569969  1
  Ga  Ga18  1  0.353997  0.553259  0.249865  1
  Ga  Ga19  1  0.653033  0.447332  0.749986  1
  Ga  Ga20  1  0.545441  0.343250  0.249886  1
  Ga  Ga21  1  0.448246  0.656873  0.749967  1
  Ir  Ir22  1  0.671564  0.332782  0.999839  1
  Ir  Ir23  1  0.327720  0.668345  0.999908  1
  Ir  Ir24  1  0.327802  0.671542  0.498730  1
  Ir  Ir25  1  0.674528  0.332753  0.498912  1
  Ir  Ir26  1  0.000606  0.997774  0.999934  1
  Ir  Ir27  1  0.995689  0.992876  0.496646  1
