# generated using pymatgen
data_PrHoErGa8Ag3
_symmetry_space_group_name_H-M   'P 1'
_cell_length_a   4.36503923
_cell_length_b   8.41118647
_cell_length_c   8.41118601
_cell_angle_alpha   69.06351718
_cell_angle_beta   74.96088023
_cell_angle_gamma   74.96088014
_symmetry_Int_Tables_number   1
_chemical_formula_structural   PrHoErGa8Ag3
_chemical_formula_sum   'Pr1 Ho1 Er1 Ga8 Ag3'
_cell_volume   273.74813591
_cell_formula_units_Z   1
loop_
 _symmetry_equiv_pos_site_id
 _symmetry_equiv_pos_as_xyz
  1  'x, y, z'
loop_
 _atom_site_type_symbol
 _atom_site_label
 _atom_site_symmetry_multiplicity
 _atom_site_fract_x
 _atom_site_fract_y
 _atom_site_fract_z
 _atom_site_occupancy
  Pr  Pr0  1  0.500034  0.499966  0.499966  1
  Ho  Ho1  1  0.200167  0.799833  0.799833  1
  Er  Er2  1  0.799912  0.200088  0.200088  1
  Ga  Ga3  1  0.355156  0.360620  0.929068  1
  Ga  Ga4  1  0.644800  0.639246  0.071156  1
  Ga  Ga5  1  0.355156  0.929068  0.360620  1
  Ga  Ga6  1  0.644800  0.071156  0.639246  1
  Ga  Ga7  1  0.160793  0.471600  0.206815  1
  Ga  Ga8  1  0.839322  0.528211  0.793145  1
  Ga  Ga9  1  0.160793  0.206815  0.471600  1
  Ga  Ga10  1  0.839322  0.793145  0.528211  1
  Ag  Ag11  1  0.499933  0.000067  0.000067  1
  Ag  Ag12  1  0.999907  0.807237  0.192950  1
  Ag  Ag13  1  0.999907  0.192950  0.807237  1
