# generated using pymatgen
data_YZr(Re2Si)4
_symmetry_space_group_name_H-M   'P 1'
_cell_length_a   7.39468479
_cell_length_b   7.39468479
_cell_length_c   4.10910600
_cell_angle_alpha   90.00000000
_cell_angle_beta   90.00000000
_cell_angle_gamma   91.01624126
_symmetry_Int_Tables_number   1
_chemical_formula_structural   YZr(Re2Si)4
_chemical_formula_sum   'Y1 Zr1 Re8 Si4'
_cell_volume   224.65617500
_cell_formula_units_Z   1
loop_
 _symmetry_equiv_pos_site_id
 _symmetry_equiv_pos_as_xyz
  1  'x, y, z'
loop_
 _atom_site_type_symbol
 _atom_site_label
 _atom_site_symmetry_multiplicity
 _atom_site_fract_x
 _atom_site_fract_y
 _atom_site_fract_z
 _atom_site_occupancy
  Y  Y0  1  0.000000  0.000000  0.500000  1
  Zr  Zr1  1  0.500000  0.500000  0.000000  1
  Re  Re2  1  0.655230  0.902232  0.000000  1
  Re  Re3  1  0.159909  0.587832  0.500000  1
  Re  Re4  1  0.097768  0.344770  0.000000  1
  Re  Re5  1  0.902232  0.655230  0.000000  1
  Re  Re6  1  0.412168  0.840091  0.500000  1
  Re  Re7  1  0.587832  0.159909  0.500000  1
  Re  Re8  1  0.344770  0.097768  0.000000  1
  Re  Re9  1  0.840091  0.412168  0.500000  1
  Si  Si10  1  0.211248  0.788752  0.000000  1
  Si  Si11  1  0.788752  0.211248  0.000000  1
  Si  Si12  1  0.703765  0.703765  0.500000  1
  Si  Si13  1  0.296235  0.296235  0.500000  1
