# generated using pymatgen
data_CePrTc2F14
_symmetry_space_group_name_H-M   'P 1'
_cell_length_a   5.84274847
_cell_length_b   6.18743669
_cell_length_c   8.42023378
_cell_angle_alpha   102.13918813
_cell_angle_beta   89.97815694
_cell_angle_gamma   90.00936701
_symmetry_Int_Tables_number   1
_chemical_formula_structural   CePrTc2F14
_chemical_formula_sum   'Ce1 Pr1 Tc2 F14'
_cell_volume   297.59859448
_cell_formula_units_Z   1
loop_
 _symmetry_equiv_pos_site_id
 _symmetry_equiv_pos_as_xyz
  1  'x, y, z'
loop_
 _atom_site_type_symbol
 _atom_site_label
 _atom_site_symmetry_multiplicity
 _atom_site_fract_x
 _atom_site_fract_y
 _atom_site_fract_z
 _atom_site_occupancy
  Ce  Ce0  1  0.700360  0.660916  0.690651  1
  Pr  Pr1  1  0.201269  0.339233  0.309514  1
  Tc  Tc2  1  0.709125  0.810511  0.224221  1
  Tc  Tc3  1  0.209986  0.189064  0.775196  1
  F  F4  1  0.888687  0.452383  0.480905  1
  F  F5  1  0.394768  0.552877  0.524572  1
  F  F6  1  0.425329  0.941363  0.770082  1
  F  F7  1  0.924058  0.056487  0.229865  1
  F  F8  1  0.956585  0.970764  0.758669  1
  F  F9  1  0.457022  0.027090  0.238465  1
  F  F10  1  0.996826  0.439496  0.788629  1
  F  F11  1  0.495674  0.561147  0.211309  1
  F  F12  1  0.703113  0.760829  0.985431  1
  F  F13  1  0.203381  0.237566  0.013402  1
  F  F14  1  0.715151  0.863059  0.462725  1
  F  F15  1  0.216149  0.138684  0.536584  1
  F  F16  1  0.479360  0.386444  0.788965  1
  F  F17  1  0.975880  0.612087  0.210815  1
