# generated using pymatgen
data_Yb2MnSi2Tc
_symmetry_space_group_name_H-M   'P 1'
_cell_length_a   4.19045400
_cell_length_b   4.19045400
_cell_length_c   6.73841600
_cell_angle_alpha   90.00000000
_cell_angle_beta   90.00000000
_cell_angle_gamma   90.00000000
_symmetry_Int_Tables_number   1
_chemical_formula_structural   Yb2MnSi2Tc
_chemical_formula_sum   'Yb2 Mn1 Si2 Tc1'
_cell_volume   118.32594296
_cell_formula_units_Z   1
loop_
 _symmetry_equiv_pos_site_id
 _symmetry_equiv_pos_as_xyz
  1  'x, y, z'
loop_
 _atom_site_type_symbol
 _atom_site_label
 _atom_site_symmetry_multiplicity
 _atom_site_fract_x
 _atom_site_fract_y
 _atom_site_fract_z
 _atom_site_occupancy
  Yb  Yb0  1  0.000000  0.500000  0.325918  1
  Yb  Yb1  1  0.500000  0.000000  0.674082  1
  Mn  Mn2  1  0.500000  0.500000  0.000000  1
  Si  Si3  1  0.000000  0.500000  0.811058  1
  Si  Si4  1  0.500000  0.000000  0.188942  1
  Tc  Tc5  1  0.000000  0.000000  0.000000  1
