# generated using pymatgen
data_Tb5(SiAs)2
_symmetry_space_group_name_H-M   'P 1'
_cell_length_a   8.26769166
_cell_length_b   8.26769149
_cell_length_c   7.68895200
_cell_angle_alpha   90.00000000
_cell_angle_beta   90.00000000
_cell_angle_gamma   124.94220293
_symmetry_Int_Tables_number   1
_chemical_formula_structural   Tb5(SiAs)2
_chemical_formula_sum   'Tb10 Si4 As4'
_cell_volume   430.83068843
_cell_formula_units_Z   2
loop_
 _symmetry_equiv_pos_site_id
 _symmetry_equiv_pos_as_xyz
  1  'x, y, z'
loop_
 _atom_site_type_symbol
 _atom_site_label
 _atom_site_symmetry_multiplicity
 _atom_site_fract_x
 _atom_site_fract_y
 _atom_site_fract_z
 _atom_site_occupancy
  Tb  Tb0  1  0.035583  0.307198  0.332143  1
  Tb  Tb1  1  0.964417  0.692802  0.667857  1
  Tb  Tb2  1  0.464417  0.192802  0.832143  1
  Tb  Tb3  1  0.807198  0.535583  0.167857  1
  Tb  Tb4  1  0.535583  0.807198  0.167857  1
  Tb  Tb5  1  0.192802  0.464417  0.832143  1
  Tb  Tb6  1  0.692802  0.964417  0.667857  1
  Tb  Tb7  1  0.307198  0.035583  0.332143  1
  Tb  Tb8  1  0.000000  0.000000  0.000000  1
  Tb  Tb9  1  0.500000  0.500000  0.500000  1
  Si  Si10  1  0.378879  0.378879  0.121805  1
  Si  Si11  1  0.621121  0.621121  0.878195  1
  Si  Si12  1  0.121121  0.121121  0.621805  1
  Si  Si13  1  0.878879  0.878879  0.378195  1
  As  As14  1  0.797943  0.202057  0.000000  1
  As  As15  1  0.202057  0.797943  0.000000  1
  As  As16  1  0.702057  0.297943  0.500000  1
  As  As17  1  0.297943  0.702057  0.500000  1
