# generated using pymatgen
data_Ba4CdRhO8
_symmetry_space_group_name_H-M   'P 1'
_cell_length_a   7.30870000
_cell_length_b   7.30869997
_cell_length_c   6.06414700
_cell_angle_alpha   90.00000000
_cell_angle_beta   90.00000000
_cell_angle_gamma   131.38697931
_symmetry_Int_Tables_number   1
_chemical_formula_structural   Ba4CdRhO8
_chemical_formula_sum   'Ba4 Cd1 Rh1 O8'
_cell_volume   243.03149360
_cell_formula_units_Z   1
loop_
 _symmetry_equiv_pos_site_id
 _symmetry_equiv_pos_as_xyz
  1  'x, y, z'
loop_
 _atom_site_type_symbol
 _atom_site_label
 _atom_site_symmetry_multiplicity
 _atom_site_fract_x
 _atom_site_fract_y
 _atom_site_fract_z
 _atom_site_occupancy
  Ba  Ba0  1  0.642989  0.357011  0.000000  1
  Ba  Ba1  1  0.143018  0.856982  0.500000  1
  Ba  Ba2  1  0.856982  0.143018  0.500000  1
  Ba  Ba3  1  0.357011  0.642989  0.000000  1
  Cd  Cd4  1  0.000000  0.000000  0.000000  1
  Rh  Rh5  1  0.500000  0.500000  0.500000  1
  O  O6  1  0.730782  0.730782  0.274645  1
  O  O7  1  0.269218  0.269218  0.725355  1
  O  O8  1  0.269218  0.269218  0.274645  1
  O  O9  1  0.730782  0.730782  0.725355  1
  O  O10  1  0.833889  0.166111  0.000000  1
  O  O11  1  0.346869  0.653131  0.500000  1
  O  O12  1  0.653131  0.346869  0.500000  1
  O  O13  1  0.166111  0.833889  0.000000  1
