# generated using pymatgen
data_Ba14CeBi11
_symmetry_space_group_name_H-M   'P 1'
_cell_length_a   18.69209710
_cell_length_b   18.69209659
_cell_length_c   18.69209700
_cell_angle_alpha   117.45216392
_cell_angle_beta   117.45216311
_cell_angle_gamma   94.47270914
_symmetry_Int_Tables_number   1
_chemical_formula_structural   Ba14CeBi11
_chemical_formula_sum   'Ba56 Ce4 Bi44'
_cell_volume   4780.14041685
_cell_formula_units_Z   4
loop_
 _symmetry_equiv_pos_site_id
 _symmetry_equiv_pos_as_xyz
  1  'x, y, z'
loop_
 _atom_site_type_symbol
 _atom_site_label
 _atom_site_symmetry_multiplicity
 _atom_site_fract_x
 _atom_site_fract_y
 _atom_site_fract_z
 _atom_site_occupancy
  Ba  Ba0  1  0.591611  0.871544  0.368095  1
  Ba  Ba1  1  0.123067  0.963016  0.520788  1
  Ba  Ba2  1  0.770001  0.375000  0.895001  1
  Ba  Ba3  1  0.125000  0.729999  0.104999  1
  Ba  Ba4  1  0.852280  0.192228  0.979212  1
  Ba  Ba5  1  0.126933  0.147720  0.339949  1
  Ba  Ba6  1  0.354795  0.749949  0.343451  1
  Ba  Ba7  1  0.897720  0.057772  0.520788  1
  Ba  Ba8  1  0.942228  0.463016  0.839949  1
  Ba  Ba9  1  0.036984  0.557772  0.160051  1
  Ba  Ba10  1  0.158389  0.378456  0.131905  1
  Ba  Ba11  1  0.003449  0.371544  0.279932  1
  Ba  Ba12  1  0.442228  0.602280  0.479212  1
  Ba  Ba13  1  0.307772  0.647720  0.020788  1
  Ba  Ba14  1  0.621544  0.753449  0.779932  1
  Ba  Ba15  1  0.246551  0.026483  0.868095  1
  Ba  Ba16  1  0.125000  0.229999  0.604999  1
  Ba  Ba17  1  0.488657  0.093504  0.343451  1
  Ba  Ba18  1  0.406496  0.011343  0.656549  1
  Ba  Ba19  1  0.343504  0.238657  0.843451  1
  Ba  Ba20  1  0.623067  0.102280  0.160051  1
  Ba  Ba21  1  0.479999  0.875000  0.104999  1
  Ba  Ba22  1  0.276483  0.996551  0.368095  1
  Ba  Ba23  1  0.761343  0.604795  0.104847  1
  Ba  Ba24  1  0.625000  0.020001  0.895001  1
  Ba  Ba25  1  0.499949  0.656496  0.895153  1
  Ba  Ba26  1  0.973517  0.841611  0.220068  1
  Ba  Ba27  1  0.988657  0.645205  0.395153  1
  Ba  Ba28  1  0.261343  0.156496  0.156549  1
  Ba  Ba29  1  0.397720  0.876933  0.839949  1
  Ba  Ba30  1  0.625000  0.520001  0.395001  1
  Ba  Ba31  1  0.999949  0.104795  0.843451  1
  Ba  Ba32  1  0.658389  0.526483  0.779932  1
  Ba  Ba33  1  0.628456  0.908389  0.631905  1
  Ba  Ba34  1  0.776483  0.408389  0.279932  1
  Ba  Ba35  1  0.213016  0.873067  0.020788  1
  Ba  Ba36  1  0.906496  0.249949  0.395153  1
  Ba  Ba37  1  0.807772  0.786984  0.660051  1
  Ba  Ba38  1  0.854795  0.511343  0.604847  1
  Ba  Ba39  1  0.746551  0.878456  0.220068  1
  Ba  Ba40  1  0.626933  0.286984  0.979212  1
  Ba  Ba41  1  0.750051  0.145205  0.656549  1
  Ba  Ba42  1  0.128456  0.496551  0.720068  1
  Ba  Ba43  1  0.979999  0.875000  0.604999  1
  Ba  Ba44  1  0.091611  0.723517  0.720068  1
  Ba  Ba45  1  0.121544  0.341611  0.868095  1
  Ba  Ba46  1  0.250051  0.593504  0.604847  1
  Ba  Ba47  1  0.395205  0.500051  0.156549  1
  Ba  Ba48  1  0.352280  0.373067  0.660051  1
  Ba  Ba49  1  0.843504  0.000051  0.104847  1
  Ba  Ba50  1  0.473517  0.253449  0.131905  1
  Ba  Ba51  1  0.270001  0.375000  0.395001  1
  Ba  Ba52  1  0.503449  0.223517  0.631905  1
  Ba  Ba53  1  0.536984  0.376933  0.479212  1
  Ba  Ba54  1  0.895205  0.738657  0.895153  1
  Ba  Ba55  1  0.713016  0.692228  0.339949  1
  Ce  Ce56  1  0.000000  0.000000  0.000000  1
  Ce  Ce57  1  0.250000  0.750000  0.500000  1
  Ce  Ce58  1  0.750000  0.250000  0.500000  1
  Ce  Ce59  1  0.500000  0.500000  0.000000  1
  Bi  Bi60  1  0.553810  0.697402  0.408200  1
  Bi  Bi61  1  0.130960  0.369040  0.500000  1
  Bi  Bi62  1  0.454516  0.819085  0.644514  1
  Bi  Bi63  1  0.060002  0.924572  0.855486  1
  Bi  Bi64  1  0.295484  0.430915  0.855486  1
  Bi  Bi65  1  0.854390  0.446190  0.143592  1
  Bi  Bi66  1  0.369040  0.869040  0.238081  1
  Bi  Bi67  1  0.250000  0.250000  0.000000  1
  Bi  Bi68  1  0.075428  0.930915  0.135430  1
  Bi  Bi69  1  0.960798  0.052598  0.356408  1
  Bi  Bi70  1  0.302598  0.710798  0.856408  1
  Bi  Bi71  1  0.630960  0.130960  0.761919  1
  Bi  Bi72  1  0.789202  0.197402  0.143592  1
  Bi  Bi73  1  0.880960  0.619040  0.000000  1
  Bi  Bi74  1  0.447402  0.539202  0.643592  1
  Bi  Bi75  1  0.395610  0.039202  0.091800  1
  Bi  Bi76  1  0.289202  0.145610  0.591800  1
  Bi  Bi77  1  0.560002  0.704516  0.135430  1
  Bi  Bi78  1  0.954516  0.310002  0.635430  1
  Bi  Bi79  1  0.689998  0.325428  0.644514  1
  Bi  Bi80  1  0.500000  0.000000  0.500000  1
  Bi  Bi81  1  0.619040  0.880960  0.000000  1
  Bi  Bi82  1  0.460798  0.104390  0.908200  1
  Bi  Bi83  1  0.947402  0.303810  0.908200  1
  Bi  Bi84  1  0.380960  0.380960  0.261919  1
  Bi  Bi85  1  0.180915  0.825428  0.635430  1
  Bi  Bi86  1  0.196190  0.552598  0.091800  1
  Bi  Bi87  1  0.802598  0.946190  0.591800  1
  Bi  Bi88  1  0.680915  0.045484  0.355486  1
  Bi  Bi89  1  0.696190  0.604390  0.643592  1
  Bi  Bi90  1  0.575428  0.439998  0.144514  1
  Bi  Bi91  1  0.895610  0.803810  0.356408  1
  Bi  Bi92  1  0.053810  0.645610  0.856408  1
  Bi  Bi93  1  0.674572  0.319085  0.364570  1
  Bi  Bi94  1  0.795484  0.939998  0.864570  1
  Bi  Bi95  1  0.069085  0.204516  0.144514  1
  Bi  Bi96  1  0.569085  0.424572  0.864570  1
  Bi  Bi97  1  0.174572  0.810002  0.355486  1
  Bi  Bi98  1  0.869040  0.630960  0.500000  1
  Bi  Bi99  1  0.750000  0.750000  0.000000  1
  Bi  Bi100  1  0.119040  0.119040  0.738081  1
  Bi  Bi101  1  0.189998  0.545484  0.364570  1
  Bi  Bi102  1  0.000000  0.500000  0.500000  1
  Bi  Bi103  1  0.354390  0.210798  0.408200  1
