# generated using pymatgen
data_Sm5Bi3C
_symmetry_space_group_name_H-M   'P 1'
_cell_length_a   9.31658400
_cell_length_b   9.31658364
_cell_length_c   6.64675800
_cell_angle_alpha   90.00000000
_cell_angle_beta   90.00000000
_cell_angle_gamma   120.00000129
_symmetry_Int_Tables_number   1
_chemical_formula_structural   Sm5Bi3C
_chemical_formula_sum   'Sm10 Bi6 C2'
_cell_volume   499.63618545
_cell_formula_units_Z   2
loop_
 _symmetry_equiv_pos_site_id
 _symmetry_equiv_pos_as_xyz
  1  'x, y, z'
loop_
 _atom_site_type_symbol
 _atom_site_label
 _atom_site_symmetry_multiplicity
 _atom_site_fract_x
 _atom_site_fract_y
 _atom_site_fract_z
 _atom_site_occupancy
  Sm  Sm0  1  0.666667  0.333333  0.000000  1
  Sm  Sm1  1  0.333333  0.666667  0.000000  1
  Sm  Sm2  1  0.333333  0.666667  0.500000  1
  Sm  Sm3  1  0.666667  0.333333  0.500000  1
  Sm  Sm4  1  0.789505  0.789505  0.750000  1
  Sm  Sm5  1  0.210495  0.000000  0.750000  1
  Sm  Sm6  1  0.000000  0.210495  0.750000  1
  Sm  Sm7  1  0.210495  0.210495  0.250000  1
  Sm  Sm8  1  0.789505  0.000000  0.250000  1
  Sm  Sm9  1  0.000000  0.789505  0.250000  1
  Bi  Bi10  1  0.401431  0.401431  0.750000  1
  Bi  Bi11  1  0.598569  0.000000  0.750000  1
  Bi  Bi12  1  0.000000  0.598569  0.750000  1
  Bi  Bi13  1  0.598569  0.598569  0.250000  1
  Bi  Bi14  1  0.401431  0.000000  0.250000  1
  Bi  Bi15  1  0.000000  0.401431  0.250000  1
  C  C16  1  0.000000  0.000000  0.000000  1
  C  C17  1  0.000000  0.000000  0.500000  1
