# generated using pymatgen
data_Ta12Al7Cr4GeC4
_symmetry_space_group_name_H-M   'P 1'
_cell_length_a   8.27564980
_cell_length_b   8.27565014
_cell_length_c   8.27564988
_cell_angle_alpha   59.90180413
_cell_angle_beta   59.90181257
_cell_angle_gamma   59.90179748
_symmetry_Int_Tables_number   1
_chemical_formula_structural   Ta12Al7Cr4GeC4
_chemical_formula_sum   'Ta12 Al7 Cr4 Ge1 C4'
_cell_volume   399.87364223
_cell_formula_units_Z   1
loop_
 _symmetry_equiv_pos_site_id
 _symmetry_equiv_pos_as_xyz
  1  'x, y, z'
loop_
 _atom_site_type_symbol
 _atom_site_label
 _atom_site_symmetry_multiplicity
 _atom_site_fract_x
 _atom_site_fract_y
 _atom_site_fract_z
 _atom_site_occupancy
  Ta  Ta0  1  0.694829  0.305540  0.694829  1
  Ta  Ta1  1  0.943990  0.555316  0.555316  1
  Ta  Ta2  1  0.555004  0.945681  0.945681  1
  Ta  Ta3  1  0.945681  0.555004  0.945681  1
  Ta  Ta4  1  0.555316  0.555316  0.943990  1
  Ta  Ta5  1  0.945681  0.945681  0.555004  1
  Ta  Ta6  1  0.694829  0.694829  0.305540  1
  Ta  Ta7  1  0.305540  0.694829  0.694829  1
  Ta  Ta8  1  0.694704  0.304919  0.304919  1
  Ta  Ta9  1  0.304919  0.304919  0.694704  1
  Ta  Ta10  1  0.555316  0.943990  0.555316  1
  Ta  Ta11  1  0.304919  0.694704  0.304919  1
  Al  Al12  1  0.252367  0.915674  0.915674  1
  Al  Al13  1  0.915674  0.252367  0.915674  1
  Al  Al14  1  0.915674  0.915674  0.252367  1
  Al  Al15  1  0.333714  0.994909  0.333714  1
  Al  Al16  1  0.333714  0.333714  0.994909  1
  Al  Al17  1  0.994909  0.333714  0.333714  1
  Al  Al18  1  0.916317  0.916317  0.916317  1
  Cr  Cr19  1  0.125121  0.125121  0.125121  1
  Cr  Cr20  1  0.622464  0.126581  0.126581  1
  Cr  Cr21  1  0.126581  0.622464  0.126581  1
  Cr  Cr22  1  0.126581  0.126581  0.622464  1
  Ge  Ge23  1  0.336221  0.336221  0.336221  1
  C  C24  1  0.625366  0.625366  0.625366  1
  C  C25  1  0.124405  0.625082  0.625082  1
  C  C26  1  0.625082  0.124405  0.625082  1
  C  C27  1  0.625082  0.625082  0.124405  1
