# generated using pymatgen
data_Ho6Mn11Co4(P4Ir)3
_symmetry_space_group_name_H-M   'P 1'
_cell_length_a   3.67853900
_cell_length_b   11.02928831
_cell_length_c   12.45575921
_cell_angle_alpha   90.22017797
_cell_angle_beta   90.00000000
_cell_angle_gamma   90.00000000
_symmetry_Int_Tables_number   1
_chemical_formula_structural   Ho6Mn11Co4(P4Ir)3
_chemical_formula_sum   'Ho6 Mn11 Co4 P12 Ir3'
_cell_volume   505.34718587
_cell_formula_units_Z   1
loop_
 _symmetry_equiv_pos_site_id
 _symmetry_equiv_pos_as_xyz
  1  'x, y, z'
loop_
 _atom_site_type_symbol
 _atom_site_label
 _atom_site_symmetry_multiplicity
 _atom_site_fract_x
 _atom_site_fract_y
 _atom_site_fract_z
 _atom_site_occupancy
  Ho  Ho0  1  0.000000  0.498707  0.526607  1
  Ho  Ho1  1  0.500000  0.998105  0.472820  1
  Ho  Ho2  1  0.500000  0.820187  0.199720  1
  Ho  Ho3  1  0.500000  0.179655  0.199181  1
  Ho  Ho4  1  0.000000  0.679909  0.800842  1
  Ho  Ho5  1  0.000000  0.319588  0.802044  1
  Mn  Mn6  1  0.500000  0.294600  0.435331  1
  Mn  Mn7  1  0.500000  0.702933  0.431719  1
  Mn  Mn8  1  0.000000  0.198677  0.571233  1
  Mn  Mn9  1  0.000000  0.799743  0.570198  1
  Mn  Mn10  1  0.500000  0.884130  0.707705  1
  Mn  Mn11  1  0.500000  0.113903  0.708826  1
  Mn  Mn12  1  0.000000  0.620872  0.291064  1
  Mn  Mn13  1  0.500000  0.330897  0.998588  1
  Mn  Mn14  1  0.500000  0.670951  0.998836  1
  Mn  Mn15  1  0.500000  0.508954  0.155326  1
  Mn  Mn16  1  0.000000  0.999609  0.839603  1
  Co  Co17  1  0.000000  0.500712  0.994919  1
  Co  Co18  1  0.500000  0.000018  0.005273  1
  Co  Co19  1  0.000000  0.163297  0.001115  1
  Co  Co20  1  0.000000  0.836028  0.000868  1
  P  P21  1  0.500000  0.306616  0.622597  1
  P  P22  1  0.500000  0.690837  0.619634  1
  P  P23  1  0.000000  0.184460  0.385933  1
  P  P24  1  0.000000  0.811373  0.382668  1
  P  P25  1  0.500000  0.500691  0.898596  1
  P  P26  1  0.000000  0.999685  0.102870  1
  P  P27  1  0.500000  0.843962  0.892533  1
  P  P28  1  0.500000  0.155806  0.893346  1
  P  P29  1  0.000000  0.659755  0.103469  1
  P  P30  1  0.000000  0.341316  0.100081  1
  P  P31  1  0.500000  0.506507  0.353350  1
  P  P32  1  0.000000  0.999425  0.644877  1
  Ir  Ir33  1  0.000000  0.378378  0.290348  1
  Ir  Ir34  1  0.500000  0.499652  0.708186  1
  Ir  Ir35  1  0.000000  0.000062  0.289696  1
