# generated using pymatgen
data_MgMn(FeBr4)4
_symmetry_space_group_name_H-M   'P 1'
_cell_length_a   10.55839769
_cell_length_b   10.55839686
_cell_length_c   12.64401611
_cell_angle_alpha   55.69782885
_cell_angle_beta   55.69783123
_cell_angle_gamma   49.12061875
_symmetry_Int_Tables_number   1
_chemical_formula_structural   MgMn(FeBr4)4
_chemical_formula_sum   'Mg1 Mn1 Fe4 Br16'
_cell_volume   836.50855259
_cell_formula_units_Z   1
loop_
 _symmetry_equiv_pos_site_id
 _symmetry_equiv_pos_as_xyz
  1  'x, y, z'
loop_
 _atom_site_type_symbol
 _atom_site_label
 _atom_site_symmetry_multiplicity
 _atom_site_fract_x
 _atom_site_fract_y
 _atom_site_fract_z
 _atom_site_occupancy
  Mg  Mg0  1  0.005705  0.994295  0.250000  1
  Mn  Mn1  1  0.994185  0.005815  0.750000  1
  Fe  Fe2  1  0.155884  0.678277  0.529805  1
  Fe  Fe3  1  0.321723  0.844116  0.970195  1
  Fe  Fe4  1  0.843867  0.322046  0.469779  1
  Fe  Fe5  1  0.677954  0.156133  0.030221  1
  Br  Br6  1  0.305232  0.386131  0.549347  1
  Br  Br7  1  0.613869  0.694768  0.950653  1
  Br  Br8  1  0.694766  0.613847  0.450519  1
  Br  Br9  1  0.386153  0.305234  0.049481  1
  Br  Br10  1  0.871118  0.830845  0.509898  1
  Br  Br11  1  0.169155  0.128882  0.990102  1
  Br  Br12  1  0.128498  0.169991  0.489940  1
  Br  Br13  1  0.830009  0.871502  0.010060  1
  Br  Br14  1  0.141146  0.691986  0.719667  1
  Br  Br15  1  0.308014  0.858854  0.780333  1
  Br  Br16  1  0.859457  0.306238  0.280798  1
  Br  Br17  1  0.693762  0.140543  0.219202  1
  Br  Br18  1  0.288495  0.839918  0.321800  1
  Br  Br19  1  0.160082  0.711505  0.178200  1
  Br  Br20  1  0.711243  0.160319  0.678004  1
  Br  Br21  1  0.839681  0.288757  0.821996  1
