# generated using pymatgen
data_Tb2YIn3Cu2Ru
_symmetry_space_group_name_H-M   'P 1'
_cell_length_a   7.54071325
_cell_length_b   7.53443168
_cell_length_c   3.95902400
_cell_angle_alpha   90.00000000
_cell_angle_beta   90.00000000
_cell_angle_gamma   120.29874366
_symmetry_Int_Tables_number   1
_chemical_formula_structural   Tb2YIn3Cu2Ru
_chemical_formula_sum   'Tb2 Y1 In3 Cu2 Ru1'
_cell_volume   194.20769369
_cell_formula_units_Z   1
loop_
 _symmetry_equiv_pos_site_id
 _symmetry_equiv_pos_as_xyz
  1  'x, y, z'
loop_
 _atom_site_type_symbol
 _atom_site_label
 _atom_site_symmetry_multiplicity
 _atom_site_fract_x
 _atom_site_fract_y
 _atom_site_fract_z
 _atom_site_occupancy
  Tb  Tb0  1  0.402471  0.981141  0.500000  1
  Tb  Tb1  1  0.019267  0.420732  0.500000  1
  Y  Y2  1  0.580158  0.598946  0.500000  1
  In  In3  1  0.747044  0.001984  0.000000  1
  In  In4  1  0.996853  0.744308  0.000000  1
  In  In5  1  0.256525  0.253694  0.000000  1
  Cu  Cu6  1  0.666560  0.332449  0.000000  1
  Cu  Cu7  1  0.000662  0.000551  0.500000  1
  Ru  Ru8  1  0.330460  0.666195  0.000000  1
