# generated using pymatgen
data_DyY3(TmBi)6
_symmetry_space_group_name_H-M   'P 1'
_cell_length_a   8.21692700
_cell_length_b   9.44737500
_cell_length_c   12.01493900
_cell_angle_alpha   90.00000000
_cell_angle_beta   90.00000000
_cell_angle_gamma   90.00000000
_symmetry_Int_Tables_number   1
_chemical_formula_structural   DyY3(TmBi)6
_chemical_formula_sum   'Dy2 Y6 Tm12 Bi12'
_cell_volume   932.70037913
_cell_formula_units_Z   2
loop_
 _symmetry_equiv_pos_site_id
 _symmetry_equiv_pos_as_xyz
  1  'x, y, z'
loop_
 _atom_site_type_symbol
 _atom_site_label
 _atom_site_symmetry_multiplicity
 _atom_site_fract_x
 _atom_site_fract_y
 _atom_site_fract_z
 _atom_site_occupancy
  Dy  Dy0  1  0.186354  0.750000  0.718403  1
  Dy  Dy1  1  0.686354  0.750000  0.781597  1
  Y  Y2  1  0.813858  0.250000  0.281405  1
  Y  Y3  1  0.313858  0.250000  0.218595  1
  Y  Y4  1  0.353548  0.750000  0.215957  1
  Y  Y5  1  0.853548  0.750000  0.284043  1
  Y  Y6  1  0.646330  0.250000  0.783842  1
  Y  Y7  1  0.146330  0.250000  0.716158  1
  Tm  Tm8  1  0.024940  0.750000  0.988490  1
  Tm  Tm9  1  0.524940  0.750000  0.511510  1
  Tm  Tm10  1  0.975117  0.250000  0.010969  1
  Tm  Tm11  1  0.475117  0.250000  0.489031  1
  Tm  Tm12  1  0.307426  0.434554  0.940617  1
  Tm  Tm13  1  0.807426  0.065446  0.559383  1
  Tm  Tm14  1  0.692587  0.934443  0.059206  1
  Tm  Tm15  1  0.192587  0.565557  0.440794  1
  Tm  Tm16  1  0.692587  0.565557  0.059206  1
  Tm  Tm17  1  0.192587  0.934443  0.440794  1
  Tm  Tm18  1  0.307426  0.065446  0.940617  1
  Tm  Tm19  1  0.807426  0.434554  0.559383  1
  Bi  Bi20  1  0.433699  0.003738  0.672702  1
  Bi  Bi21  1  0.933699  0.496262  0.827298  1
  Bi  Bi22  1  0.566197  0.503941  0.327548  1
  Bi  Bi23  1  0.066197  0.996059  0.172452  1
  Bi  Bi24  1  0.566197  0.996059  0.327548  1
  Bi  Bi25  1  0.066197  0.503941  0.172452  1
  Bi  Bi26  1  0.433699  0.496262  0.672702  1
  Bi  Bi27  1  0.933699  0.003738  0.827298  1
  Bi  Bi28  1  0.406196  0.750000  0.957304  1
  Bi  Bi29  1  0.906196  0.750000  0.542696  1
  Bi  Bi30  1  0.593838  0.250000  0.042388  1
  Bi  Bi31  1  0.093838  0.250000  0.457612  1
