# generated using pymatgen
data_U4Al2Ir5Pt
_symmetry_space_group_name_H-M   'P 1'
_cell_length_a   5.57081421
_cell_length_b   5.57081483
_cell_length_c   7.85081000
_cell_angle_alpha   90.00000000
_cell_angle_beta   90.00000000
_cell_angle_gamma   119.48523415
_symmetry_Int_Tables_number   1
_chemical_formula_structural   U4Al2Ir5Pt
_chemical_formula_sum   'U4 Al2 Ir5 Pt1'
_cell_volume   212.08597235
_cell_formula_units_Z   1
loop_
 _symmetry_equiv_pos_site_id
 _symmetry_equiv_pos_as_xyz
  1  'x, y, z'
loop_
 _atom_site_type_symbol
 _atom_site_label
 _atom_site_symmetry_multiplicity
 _atom_site_fract_x
 _atom_site_fract_y
 _atom_site_fract_z
 _atom_site_occupancy
  U  U0  1  0.337366  0.662634  0.421283  1
  U  U1  1  0.665765  0.334235  0.927672  1
  U  U2  1  0.665765  0.334235  0.572328  1
  U  U3  1  0.337366  0.662634  0.078717  1
  Al  Al4  1  0.998445  0.001555  0.499162  1
  Al  Al5  1  0.998445  0.001555  0.000838  1
  Ir  Ir6  1  0.339255  0.167747  0.250000  1
  Ir  Ir7  1  0.829757  0.170243  0.250000  1
  Ir  Ir8  1  0.658717  0.831355  0.750000  1
  Ir  Ir9  1  0.168645  0.341283  0.750000  1
  Ir  Ir10  1  0.832253  0.660745  0.250000  1
  Pt  Pt11  1  0.168220  0.831780  0.750000  1
