# generated using pymatgen
data_Nb12Fe5Ir7N4
_symmetry_space_group_name_H-M   'P 1'
_cell_length_a   8.22767516
_cell_length_b   8.22767500
_cell_length_c   8.22767548
_cell_angle_alpha   59.99417842
_cell_angle_beta   59.99418114
_cell_angle_gamma   59.99417681
_symmetry_Int_Tables_number   1
_chemical_formula_structural   Nb12Fe5Ir7N4
_chemical_formula_sum   'Nb12 Fe5 Ir7 N4'
_cell_volume   393.78493443
_cell_formula_units_Z   1
loop_
 _symmetry_equiv_pos_site_id
 _symmetry_equiv_pos_as_xyz
  1  'x, y, z'
loop_
 _atom_site_type_symbol
 _atom_site_label
 _atom_site_symmetry_multiplicity
 _atom_site_fract_x
 _atom_site_fract_y
 _atom_site_fract_z
 _atom_site_occupancy
  Nb  Nb0  1  0.808047  0.808047  0.187877  1
  Nb  Nb1  1  0.194395  0.194395  0.805063  1
  Nb  Nb2  1  0.808047  0.187877  0.808047  1
  Nb  Nb3  1  0.194395  0.805063  0.194395  1
  Nb  Nb4  1  0.187877  0.808047  0.808047  1
  Nb  Nb5  1  0.805063  0.194395  0.194395  1
  Nb  Nb6  1  0.443503  0.443503  0.056028  1
  Nb  Nb7  1  0.055250  0.055250  0.444687  1
  Nb  Nb8  1  0.443503  0.056028  0.443503  1
  Nb  Nb9  1  0.055250  0.444687  0.055250  1
  Nb  Nb10  1  0.056028  0.443503  0.443503  1
  Nb  Nb11  1  0.444687  0.055250  0.055250  1
  Fe  Fe12  1  0.120267  0.631529  0.631529  1
  Fe  Fe13  1  0.631529  0.120267  0.631529  1
  Fe  Fe14  1  0.631529  0.631529  0.120267  1
  Fe  Fe15  1  0.624713  0.624713  0.624713  1
  Fe  Fe16  1  0.829661  0.829661  0.829661  1
  Ir  Ir17  1  0.752938  0.415224  0.415224  1
  Ir  Ir18  1  0.415224  0.752938  0.415224  1
  Ir  Ir19  1  0.415224  0.415224  0.752938  1
  Ir  Ir20  1  0.416364  0.416364  0.416364  1
  Ir  Ir21  1  0.499262  0.833892  0.833892  1
  Ir  Ir22  1  0.833892  0.499262  0.833892  1
  Ir  Ir23  1  0.833892  0.833892  0.499262  1
  N  N24  1  0.625149  0.124808  0.124808  1
  N  N25  1  0.124808  0.625149  0.124808  1
  N  N26  1  0.124808  0.124808  0.625149  1
  N  N27  1  0.124697  0.124697  0.124697  1
