# generated using pymatgen
data_Fe(IrO3)2
_symmetry_space_group_name_H-M   'P 1'
_cell_length_a   4.57399100
_cell_length_b   9.14678400
_cell_length_c   9.39778700
_cell_angle_alpha   90.00000000
_cell_angle_beta   90.00000000
_cell_angle_gamma   90.00000000
_symmetry_Int_Tables_number   1
_chemical_formula_structural   Fe(IrO3)2
_chemical_formula_sum   'Fe4 Ir8 O24'
_cell_volume   393.17810637
_cell_formula_units_Z   4
loop_
 _symmetry_equiv_pos_site_id
 _symmetry_equiv_pos_as_xyz
  1  'x, y, z'
loop_
 _atom_site_type_symbol
 _atom_site_label
 _atom_site_symmetry_multiplicity
 _atom_site_fract_x
 _atom_site_fract_y
 _atom_site_fract_z
 _atom_site_occupancy
  Fe  Fe0  1  0.000000  0.500000  0.000000  1
  Fe  Fe1  1  0.500000  0.750000  0.500000  1
  Fe  Fe2  1  0.000000  0.000000  0.000000  1
  Fe  Fe3  1  0.500000  0.250000  0.500000  1
  Ir  Ir4  1  0.000000  0.000000  0.331460  1
  Ir  Ir5  1  0.000000  0.500000  0.331460  1
  Ir  Ir6  1  0.500000  0.250000  0.831460  1
  Ir  Ir7  1  0.500000  0.750000  0.831460  1
  Ir  Ir8  1  0.500000  0.250000  0.168540  1
  Ir  Ir9  1  0.500000  0.750000  0.168540  1
  Ir  Ir10  1  0.000000  0.000000  0.668540  1
  Ir  Ir11  1  0.000000  0.500000  0.668540  1
  O  O12  1  0.309896  0.154954  0.000000  1
  O  O13  1  0.309896  0.654954  0.000000  1
  O  O14  1  0.190104  0.404954  0.500000  1
  O  O15  1  0.190104  0.904954  0.500000  1
  O  O16  1  0.809896  0.095046  0.500000  1
  O  O17  1  0.809896  0.595046  0.500000  1
  O  O18  1  0.690104  0.345046  0.000000  1
  O  O19  1  0.690104  0.845046  0.000000  1
  O  O20  1  0.303133  0.151563  0.333292  1
  O  O21  1  0.303133  0.651563  0.333292  1
  O  O22  1  0.196867  0.401563  0.833292  1
  O  O23  1  0.196867  0.901563  0.833292  1
  O  O24  1  0.803133  0.098437  0.833292  1
  O  O25  1  0.803133  0.598437  0.833292  1
  O  O26  1  0.803133  0.098437  0.166708  1
  O  O27  1  0.803133  0.598437  0.166708  1
  O  O28  1  0.196867  0.401563  0.166708  1
  O  O29  1  0.196867  0.901563  0.166708  1
  O  O30  1  0.696867  0.348437  0.333292  1
  O  O31  1  0.696867  0.848437  0.333292  1
  O  O32  1  0.303133  0.151563  0.666708  1
  O  O33  1  0.303133  0.651563  0.666708  1
  O  O34  1  0.696867  0.348437  0.666708  1
  O  O35  1  0.696867  0.848437  0.666708  1
