# generated using pymatgen
data_Tc6PdPt
_symmetry_space_group_name_H-M   'P 1'
_cell_length_a   5.55055500
_cell_length_b   5.55055557
_cell_length_c   4.41000700
_cell_angle_alpha   90.00000000
_cell_angle_beta   90.00000000
_cell_angle_gamma   120.00000259
_symmetry_Int_Tables_number   1
_chemical_formula_structural   Tc6PdPt
_chemical_formula_sum   'Tc6 Pd1 Pt1'
_cell_volume   117.66377136
_cell_formula_units_Z   1
loop_
 _symmetry_equiv_pos_site_id
 _symmetry_equiv_pos_as_xyz
  1  'x, y, z'
loop_
 _atom_site_type_symbol
 _atom_site_label
 _atom_site_symmetry_multiplicity
 _atom_site_fract_x
 _atom_site_fract_y
 _atom_site_fract_z
 _atom_site_occupancy
  Tc  Tc0  1  0.842540  0.157460  0.750000  1
  Tc  Tc1  1  0.314920  0.157460  0.750000  1
  Tc  Tc2  1  0.842540  0.685080  0.750000  1
  Tc  Tc3  1  0.158112  0.841888  0.250000  1
  Tc  Tc4  1  0.683776  0.841888  0.250000  1
  Tc  Tc5  1  0.158112  0.316224  0.250000  1
  Pd  Pd6  1  0.333333  0.666667  0.750000  1
  Pt  Pt7  1  0.666667  0.333333  0.250000  1
