# generated using pymatgen
data_Pr2(In3Rh)3
_symmetry_space_group_name_H-M   'P 1'
_cell_length_a   8.28072418
_cell_length_b   8.28072439
_cell_length_c   10.42328800
_cell_angle_alpha   90.00000000
_cell_angle_beta   90.00000000
_cell_angle_gamma   119.68690233
_symmetry_Int_Tables_number   1
_chemical_formula_structural   Pr2(In3Rh)3
_chemical_formula_sum   'Pr4 In18 Rh6'
_cell_volume   620.91704420
_cell_formula_units_Z   2
loop_
 _symmetry_equiv_pos_site_id
 _symmetry_equiv_pos_as_xyz
  1  'x, y, z'
loop_
 _atom_site_type_symbol
 _atom_site_label
 _atom_site_symmetry_multiplicity
 _atom_site_fract_x
 _atom_site_fract_y
 _atom_site_fract_z
 _atom_site_occupancy
  Pr  Pr0  1  0.997557  0.669201  0.250000  1
  Pr  Pr1  1  0.002443  0.330799  0.750000  1
  Pr  Pr2  1  0.669201  0.997557  0.250000  1
  Pr  Pr3  1  0.330799  0.002443  0.750000  1
  In  In4  1  0.114507  0.114507  0.250000  1
  In  In5  1  0.885493  0.885493  0.750000  1
  In  In6  1  0.996524  0.334857  0.075389  1
  In  In7  1  0.003476  0.665143  0.924611  1
  In  In8  1  0.003476  0.665143  0.575389  1
  In  In9  1  0.334857  0.996524  0.424611  1
  In  In10  1  0.996524  0.334857  0.424611  1
  In  In11  1  0.665143  0.003476  0.575389  1
  In  In12  1  0.665143  0.003476  0.924611  1
  In  In13  1  0.334857  0.996524  0.075389  1
  In  In14  1  0.329010  0.329010  0.560624  1
  In  In15  1  0.670990  0.670990  0.439376  1
  In  In16  1  0.670990  0.670990  0.060624  1
  In  In17  1  0.329010  0.329010  0.939376  1
  In  In18  1  0.338437  0.558239  0.250000  1
  In  In19  1  0.661563  0.441761  0.750000  1
  In  In20  1  0.558239  0.338437  0.250000  1
  In  In21  1  0.441761  0.661563  0.750000  1
  Rh  Rh22  1  0.670578  0.329422  0.000000  1
  Rh  Rh23  1  0.329422  0.670578  0.000000  1
  Rh  Rh24  1  0.329422  0.670578  0.500000  1
  Rh  Rh25  1  0.670578  0.329422  0.500000  1
  Rh  Rh26  1  0.000000  0.000000  0.000000  1
  Rh  Rh27  1  0.000000  0.000000  0.500000  1
