# generated using pymatgen
data_Zr4P6PbO24
_symmetry_space_group_name_H-M   'P 1'
_cell_length_a   8.84489382
_cell_length_b   8.84489454
_cell_length_c   9.42350470
_cell_angle_alpha   117.98883573
_cell_angle_beta   117.98883516
_cell_angle_gamma   60.00000356
_symmetry_Int_Tables_number   1
_chemical_formula_structural   Zr4P6PbO24
_chemical_formula_sum   'Zr4 P6 Pb1 O24'
_cell_volume   536.58249276
_cell_formula_units_Z   1
loop_
 _symmetry_equiv_pos_site_id
 _symmetry_equiv_pos_as_xyz
  1  'x, y, z'
loop_
 _atom_site_type_symbol
 _atom_site_label
 _atom_site_symmetry_multiplicity
 _atom_site_fract_x
 _atom_site_fract_y
 _atom_site_fract_z
 _atom_site_occupancy
  Zr  Zr0  1  0.349961  0.349962  0.049885  1
  Zr  Zr1  1  0.144464  0.144464  0.433393  1
  Zr  Zr2  1  0.855536  0.855535  0.566607  1
  Zr  Zr3  1  0.650038  0.650038  0.950115  1
  P  P4  1  0.470527  0.042066  0.257613  1
  P  P5  1  0.745020  0.470528  0.257613  1
  P  P6  1  0.042066  0.745019  0.257613  1
  P  P7  1  0.957935  0.254980  0.742387  1
  P  P8  1  0.254981  0.529472  0.742387  1
  P  P9  1  0.529472  0.957935  0.742387  1
  Pb  Pb10  1  0.500000  0.500000  0.500000  1
  O  O11  1  0.705116  0.500971  0.092865  1
  O  O12  1  0.886778  0.705116  0.092865  1
  O  O13  1  0.500972  0.886777  0.092865  1
  O  O14  1  0.410996  0.228861  0.232758  1
  O  O15  1  0.592901  0.410996  0.232758  1
  O  O16  1  0.228861  0.592901  0.232758  1
  O  O17  1  0.317390  0.042963  0.293205  1
  O  O18  1  0.932853  0.317388  0.293205  1
  O  O19  1  0.042963  0.932853  0.293205  1
  O  O20  1  0.648950  0.019626  0.406520  1
  O  O21  1  0.737944  0.648949  0.406520  1
  O  O22  1  0.019627  0.737945  0.406520  1
  O  O23  1  0.980374  0.262055  0.593480  1
  O  O24  1  0.262055  0.351050  0.593480  1
  O  O25  1  0.351051  0.980374  0.593480  1
  O  O26  1  0.957036  0.067146  0.706795  1
  O  O27  1  0.067147  0.682611  0.706795  1
  O  O28  1  0.682611  0.957036  0.706795  1
  O  O29  1  0.771140  0.407098  0.767242  1
  O  O30  1  0.407098  0.589005  0.767242  1
  O  O31  1  0.589005  0.771139  0.767242  1
  O  O32  1  0.499029  0.113222  0.907134  1
  O  O33  1  0.113222  0.294883  0.907134  1
  O  O34  1  0.294883  0.499028  0.907134  1
