# generated using pymatgen
data_Ti24HS8
_symmetry_space_group_name_H-M   'P 1'
_cell_length_a   4.98659900
_cell_length_b   9.83226487
_cell_length_c   9.83739113
_cell_angle_alpha   89.97404604
_cell_angle_beta   90.00000000
_cell_angle_gamma   90.00000000
_symmetry_Int_Tables_number   1
_chemical_formula_structural   Ti24HS8
_chemical_formula_sum   'Ti24 H1 S8'
_cell_volume   482.32293055
_cell_formula_units_Z   1
loop_
 _symmetry_equiv_pos_site_id
 _symmetry_equiv_pos_as_xyz
  1  'x, y, z'
loop_
 _atom_site_type_symbol
 _atom_site_label
 _atom_site_symmetry_multiplicity
 _atom_site_fract_x
 _atom_site_fract_y
 _atom_site_fract_z
 _atom_site_occupancy
  Ti  Ti0  1  0.794720  0.394544  0.913983  1
  Ti  Ti1  1  0.794720  0.605456  0.086017  1
  Ti  Ti2  1  0.293959  0.585767  0.894470  1
  Ti  Ti3  1  0.293959  0.414233  0.105530  1
  Ti  Ti4  1  0.215237  0.109421  0.587600  1
  Ti  Ti5  1  0.215237  0.890579  0.412400  1
  Ti  Ti6  1  0.705715  0.911139  0.608610  1
  Ti  Ti7  1  0.705715  0.088861  0.391390  1
  Ti  Ti8  1  0.974528  0.028064  0.860300  1
  Ti  Ti9  1  0.974528  0.971936  0.139700  1
  Ti  Ti10  1  0.474452  0.640528  0.526984  1
  Ti  Ti11  1  0.474452  0.359472  0.473016  1
  Ti  Ti12  1  0.030141  0.473084  0.640198  1
  Ti  Ti13  1  0.030141  0.526916  0.359802  1
  Ti  Ti14  1  0.530520  0.859982  0.972199  1
  Ti  Ti15  1  0.530520  0.140018  0.027801  1
  Ti  Ti16  1  0.269567  0.284924  0.819557  1
  Ti  Ti17  1  0.269567  0.715076  0.180443  1
  Ti  Ti18  1  0.767119  0.680509  0.785320  1
  Ti  Ti19  1  0.767119  0.319491  0.214680  1
  Ti  Ti20  1  0.737639  0.216047  0.682260  1
  Ti  Ti21  1  0.737639  0.783953  0.317740  1
  Ti  Ti22  1  0.233490  0.817828  0.716627  1
  Ti  Ti23  1  0.233490  0.182172  0.283373  1
  H  H24  1  0.962422  0.000000  0.500000  1
  S  S25  1  0.467184  0.039040  0.793345  1
  S  S26  1  0.467184  0.960960  0.206655  1
  S  S27  1  0.965769  0.706349  0.538874  1
  S  S28  1  0.965769  0.293651  0.461126  1
  S  S29  1  0.538333  0.461065  0.707088  1
  S  S30  1  0.538333  0.538935  0.292912  1
  S  S31  1  0.038213  0.792747  0.961340  1
  S  S32  1  0.038213  0.207253  0.038660  1
