# generated using pymatgen
data_Sc20Bi11Os
_symmetry_space_group_name_H-M   'P 1'
_cell_length_a   7.76289536
_cell_length_b   8.98128500
_cell_length_c   11.34537894
_cell_angle_alpha   90.00000000
_cell_angle_beta   90.26284163
_cell_angle_gamma   90.00000000
_symmetry_Int_Tables_number   1
_chemical_formula_structural   Sc20Bi11Os
_chemical_formula_sum   'Sc20 Bi11 Os1'
_cell_volume   791.00029612
_cell_formula_units_Z   1
loop_
 _symmetry_equiv_pos_site_id
 _symmetry_equiv_pos_as_xyz
  1  'x, y, z'
loop_
 _atom_site_type_symbol
 _atom_site_label
 _atom_site_symmetry_multiplicity
 _atom_site_fract_x
 _atom_site_fract_y
 _atom_site_fract_z
 _atom_site_occupancy
  Sc  Sc0  1  0.193651  0.064363  0.934654  1
  Sc  Sc1  1  0.312017  0.028563  0.440555  1
  Sc  Sc2  1  0.312017  0.471437  0.440555  1
  Sc  Sc3  1  0.341054  0.750000  0.700978  1
  Sc  Sc4  1  0.478149  0.750000  0.005770  1
  Sc  Sc5  1  0.164221  0.250000  0.217043  1
  Sc  Sc6  1  0.803506  0.935460  0.065473  1
  Sc  Sc7  1  0.629980  0.750000  0.296795  1
  Sc  Sc8  1  0.043640  0.750000  0.505556  1
  Sc  Sc9  1  0.670591  0.923355  0.557893  1
  Sc  Sc10  1  0.193651  0.435637  0.934654  1
  Sc  Sc11  1  0.341169  0.250000  0.717120  1
  Sc  Sc12  1  0.196134  0.750000  0.243410  1
  Sc  Sc13  1  0.986160  0.250000  0.491477  1
  Sc  Sc14  1  0.670591  0.576645  0.557893  1
  Sc  Sc15  1  0.687150  0.250000  0.266738  1
  Sc  Sc16  1  0.803506  0.564540  0.065473  1
  Sc  Sc17  1  0.519326  0.250000  0.992825  1
  Sc  Sc18  1  0.822996  0.250000  0.770275  1
  Sc  Sc19  1  0.838491  0.750000  0.787442  1
  Bi  Bi20  1  0.060507  0.490791  0.676630  1
  Bi  Bi21  1  0.565141  0.508777  0.825519  1
  Bi  Bi22  1  0.932725  0.988031  0.324473  1
  Bi  Bi23  1  0.435634  0.013040  0.173851  1
  Bi  Bi24  1  0.565141  0.991223  0.825519  1
  Bi  Bi25  1  0.097270  0.750000  0.979544  1
  Bi  Bi26  1  0.435634  0.486960  0.173851  1
  Bi  Bi27  1  0.060507  0.009209  0.676630  1
  Bi  Bi28  1  0.932725  0.511969  0.324473  1
  Bi  Bi29  1  0.597054  0.250000  0.523492  1
  Bi  Bi30  1  0.903010  0.250000  0.028403  1
  Os  Os31  1  0.406650  0.750000  0.475037  1
