# generated using pymatgen
data_Pa2Pd2PtRh3
_symmetry_space_group_name_H-M   'P 1'
_cell_length_a   3.98693100
_cell_length_b   4.09355500
_cell_length_c   8.48170300
_cell_angle_alpha   90.00000000
_cell_angle_beta   90.00000000
_cell_angle_gamma   90.00000000
_symmetry_Int_Tables_number   1
_chemical_formula_structural   Pa2Pd2PtRh3
_chemical_formula_sum   'Pa2 Pd2 Pt1 Rh3'
_cell_volume   138.42751106
_cell_formula_units_Z   1
loop_
 _symmetry_equiv_pos_site_id
 _symmetry_equiv_pos_as_xyz
  1  'x, y, z'
loop_
 _atom_site_type_symbol
 _atom_site_label
 _atom_site_symmetry_multiplicity
 _atom_site_fract_x
 _atom_site_fract_y
 _atom_site_fract_z
 _atom_site_occupancy
  Pa  Pa0  1  0.000000  0.000000  0.755736  1
  Pa  Pa1  1  0.000000  0.000000  0.244264  1
  Pd  Pd2  1  0.500000  0.000000  0.500000  1
  Pd  Pd3  1  0.000000  0.500000  0.500000  1
  Pt  Pt4  1  0.000000  0.500000  0.000000  1
  Rh  Rh5  1  0.500000  0.500000  0.749620  1
  Rh  Rh6  1  0.500000  0.500000  0.250380  1
  Rh  Rh7  1  0.500000  0.000000  0.000000  1
