# generated using pymatgen
data_Tb15Lu5Sn16
_symmetry_space_group_name_H-M   'P 1'
_cell_length_a   8.00838168
_cell_length_b   8.16464851
_cell_length_c   15.46940748
_cell_angle_alpha   90.03095195
_cell_angle_beta   89.96054729
_cell_angle_gamma   90.06264100
_symmetry_Int_Tables_number   1
_chemical_formula_structural   Tb15Lu5Sn16
_chemical_formula_sum   'Tb15 Lu5 Sn16'
_cell_volume   1011.47583140
_cell_formula_units_Z   1
loop_
 _symmetry_equiv_pos_site_id
 _symmetry_equiv_pos_as_xyz
  1  'x, y, z'
loop_
 _atom_site_type_symbol
 _atom_site_label
 _atom_site_symmetry_multiplicity
 _atom_site_fract_x
 _atom_site_fract_y
 _atom_site_fract_z
 _atom_site_occupancy
  Tb  Tb0  1  0.865272  0.662460  0.623214  1
  Tb  Tb1  1  0.634472  0.162122  0.377633  1
  Tb  Tb2  1  0.135541  0.337522  0.120926  1
  Tb  Tb3  1  0.634418  0.162944  0.122701  1
  Tb  Tb4  1  0.134093  0.337301  0.377633  1
  Tb  Tb5  1  0.365942  0.837588  0.622926  1
  Tb  Tb6  1  0.866168  0.662172  0.878068  1
  Tb  Tb7  1  0.518917  0.320156  0.903465  1
  Tb  Tb8  1  0.019960  0.178928  0.597454  1
  Tb  Tb9  1  0.480895  0.679694  0.403648  1
  Tb  Tb10  1  0.980006  0.820370  0.096557  1
  Tb  Tb11  1  0.481299  0.680377  0.095088  1
  Tb  Tb12  1  0.980905  0.820687  0.403285  1
  Tb  Tb13  1  0.519232  0.320836  0.597440  1
  Tb  Tb14  1  0.018985  0.178452  0.902984  1
  Lu  Lu15  1  0.364485  0.838521  0.876039  1
  Lu  Lu16  1  0.197479  0.503587  0.750819  1
  Lu  Lu17  1  0.696349  0.996352  0.750540  1
  Lu  Lu18  1  0.803641  0.496731  0.250070  1
  Lu  Lu19  1  0.303292  0.002874  0.249486  1
  Sn  Sn20  1  0.295270  0.034980  0.040520  1
  Sn  Sn21  1  0.793994  0.463597  0.457617  1
  Sn  Sn22  1  0.706398  0.963769  0.542837  1
  Sn  Sn23  1  0.208077  0.539972  0.956377  1
  Sn  Sn24  1  0.701026  0.962656  0.957097  1
  Sn  Sn25  1  0.205767  0.536214  0.543205  1
  Sn  Sn26  1  0.293841  0.036211  0.457205  1
  Sn  Sn27  1  0.793931  0.463501  0.042927  1
  Sn  Sn28  1  0.561411  0.618682  0.751048  1
  Sn  Sn29  1  0.063031  0.882011  0.750996  1
  Sn  Sn30  1  0.437679  0.383343  0.250152  1
  Sn  Sn31  1  0.938241  0.117173  0.249307  1
  Sn  Sn32  1  0.328747  0.148924  0.750640  1
  Sn  Sn33  1  0.828244  0.350121  0.750538  1
  Sn  Sn34  1  0.671534  0.849902  0.249896  1
  Sn  Sn35  1  0.171458  0.649270  0.249659  1
