# generated using pymatgen
data_LiHf3(Co5P3)4
_symmetry_space_group_name_H-M   'P 1'
_cell_length_a   3.57210400
_cell_length_b   10.12747910
_cell_length_c   11.57917213
_cell_angle_alpha   90.24945614
_cell_angle_beta   90.00000000
_cell_angle_gamma   90.00000000
_symmetry_Int_Tables_number   1
_chemical_formula_structural   LiHf3(Co5P3)4
_chemical_formula_sum   'Li1 Hf3 Co20 P12'
_cell_volume   418.88889214
_cell_formula_units_Z   1
loop_
 _symmetry_equiv_pos_site_id
 _symmetry_equiv_pos_as_xyz
  1  'x, y, z'
loop_
 _atom_site_type_symbol
 _atom_site_label
 _atom_site_symmetry_multiplicity
 _atom_site_fract_x
 _atom_site_fract_y
 _atom_site_fract_z
 _atom_site_occupancy
  Li  Li0  1  0.750000  0.080302  0.797383  1
  Hf  Hf1  1  0.250000  0.581677  0.702632  1
  Hf  Hf2  1  0.250000  0.919539  0.203453  1
  Hf  Hf3  1  0.750000  0.418662  0.296845  1
  Co  Co4  1  0.250000  0.720144  0.993195  1
  Co  Co5  1  0.250000  0.779754  0.492081  1
  Co  Co6  1  0.750000  0.280832  0.004849  1
  Co  Co7  1  0.750000  0.220178  0.505554  1
  Co  Co8  1  0.250000  0.410753  0.484121  1
  Co  Co9  1  0.250000  0.090254  0.986867  1
  Co  Co10  1  0.750000  0.591971  0.515611  1
  Co  Co11  1  0.750000  0.907220  0.015484  1
  Co  Co12  1  0.250000  0.223878  0.179333  1
  Co  Co13  1  0.250000  0.281294  0.675281  1
  Co  Co14  1  0.750000  0.775909  0.823801  1
  Co  Co15  1  0.750000  0.723834  0.321630  1
  Co  Co16  1  0.250000  0.880733  0.700365  1
  Co  Co17  1  0.250000  0.616103  0.200426  1
  Co  Co18  1  0.750000  0.115076  0.299198  1
  Co  Co19  1  0.750000  0.384175  0.799175  1
  Co  Co20  1  0.250000  0.464249  0.929130  1
  Co  Co21  1  0.250000  0.033872  0.432230  1
  Co  Co22  1  0.750000  0.532238  0.069829  1
  Co  Co23  1  0.750000  0.969287  0.571462  1
  P  P24  1  0.250000  0.417801  0.113544  1
  P  P25  1  0.250000  0.081392  0.620039  1
  P  P26  1  0.750000  0.580177  0.885426  1
  P  P27  1  0.750000  0.919066  0.387641  1
  P  P28  1  0.250000  0.259139  0.865955  1
  P  P29  1  0.250000  0.233997  0.370485  1
  P  P30  1  0.750000  0.734312  0.129634  1
  P  P31  1  0.750000  0.768097  0.631320  1
  P  P32  1  0.250000  0.599422  0.388626  1
  P  P33  1  0.250000  0.904521  0.887699  1
  P  P34  1  0.750000  0.400728  0.610725  1
  P  P35  1  0.750000  0.099414  0.108974  1
