# generated using pymatgen
data_Tb7Dy3(SnBi)4
_symmetry_space_group_name_H-M   'P 1'
_cell_length_a   8.20437500
_cell_length_b   8.24632101
_cell_length_c   15.69346302
_cell_angle_alpha   90.00543298
_cell_angle_beta   90.00000000
_cell_angle_gamma   90.00000000
_symmetry_Int_Tables_number   1
_chemical_formula_structural   Tb7Dy3(SnBi)4
_chemical_formula_sum   'Tb14 Dy6 Sn8 Bi8'
_cell_volume   1061.75551564
_cell_formula_units_Z   2
loop_
 _symmetry_equiv_pos_site_id
 _symmetry_equiv_pos_as_xyz
  1  'x, y, z'
loop_
 _atom_site_type_symbol
 _atom_site_label
 _atom_site_symmetry_multiplicity
 _atom_site_fract_x
 _atom_site_fract_y
 _atom_site_fract_z
 _atom_site_occupancy
  Tb  Tb0  1  0.613778  0.161769  0.376611  1
  Tb  Tb1  1  0.113778  0.338231  0.123389  1
  Tb  Tb2  1  0.613792  0.161778  0.123411  1
  Tb  Tb3  1  0.113792  0.338222  0.376589  1
  Tb  Tb4  1  0.386228  0.838241  0.623413  1
  Tb  Tb5  1  0.886228  0.661759  0.876587  1
  Tb  Tb6  1  0.552877  0.328065  0.889875  1
  Tb  Tb7  1  0.052877  0.171935  0.610125  1
  Tb  Tb8  1  0.447135  0.671960  0.389881  1
  Tb  Tb9  1  0.947135  0.828040  0.110119  1
  Tb  Tb10  1  0.447143  0.671955  0.110087  1
  Tb  Tb11  1  0.947143  0.828045  0.389913  1
  Tb  Tb12  1  0.552894  0.328100  0.610148  1
  Tb  Tb13  1  0.052894  0.171900  0.889852  1
  Dy  Dy14  1  0.386132  0.838272  0.876457  1
  Dy  Dy15  1  0.886132  0.661728  0.623543  1
  Dy  Dy16  1  0.217464  0.498129  0.749994  1
  Dy  Dy17  1  0.717464  0.001871  0.750006  1
  Dy  Dy18  1  0.782493  0.501974  0.250004  1
  Dy  Dy19  1  0.282493  0.998026  0.249996  1
  Sn  Sn20  1  0.582639  0.626435  0.750038  1
  Sn  Sn21  1  0.082639  0.873565  0.749962  1
  Sn  Sn22  1  0.417363  0.373756  0.250010  1
  Sn  Sn23  1  0.917363  0.126244  0.249990  1
  Sn  Sn24  1  0.356403  0.143752  0.750048  1
  Sn  Sn25  1  0.856403  0.356248  0.749952  1
  Sn  Sn26  1  0.643644  0.856141  0.250000  1
  Sn  Sn27  1  0.143644  0.643859  0.250000  1
  Bi  Bi28  1  0.270465  0.020617  0.044150  1
  Bi  Bi29  1  0.770465  0.479383  0.455850  1
  Bi  Bi30  1  0.729745  0.978998  0.544332  1
  Bi  Bi31  1  0.229745  0.521002  0.955668  1
  Bi  Bi32  1  0.729412  0.979163  0.955680  1
  Bi  Bi33  1  0.229412  0.520837  0.544320  1
  Bi  Bi34  1  0.270393  0.020747  0.455724  1
  Bi  Bi35  1  0.770393  0.479253  0.044276  1
