# generated using pymatgen
data_TePb3(IO2)2
_symmetry_space_group_name_H-M   'P 1'
_cell_length_a   7.56943183
_cell_length_b   7.56943151
_cell_length_c   5.78635500
_cell_angle_alpha   90.00000000
_cell_angle_beta   90.00000000
_cell_angle_gamma   134.93860133
_symmetry_Int_Tables_number   1
_chemical_formula_structural   TePb3(IO2)2
_chemical_formula_sum   'Te1 Pb3 I2 O4'
_cell_volume   234.68293866
_cell_formula_units_Z   1
loop_
 _symmetry_equiv_pos_site_id
 _symmetry_equiv_pos_as_xyz
  1  'x, y, z'
loop_
 _atom_site_type_symbol
 _atom_site_label
 _atom_site_symmetry_multiplicity
 _atom_site_fract_x
 _atom_site_fract_y
 _atom_site_fract_z
 _atom_site_occupancy
  Te  Te0  1  0.808389  0.191611  0.000000  1
  Pb  Pb1  1  0.151499  0.848501  0.000000  1
  Pb  Pb2  1  0.654576  0.345424  0.500000  1
  Pb  Pb3  1  0.345918  0.654082  0.500000  1
  I  I4  1  0.491534  0.508466  0.000000  1
  I  I5  1  0.001984  0.998016  0.500000  1
  O  O6  1  0.980093  0.477178  0.770295  1
  O  O7  1  0.522822  0.019907  0.229705  1
  O  O8  1  0.522822  0.019907  0.770295  1
  O  O9  1  0.980093  0.477178  0.229705  1
