# generated using pymatgen
data_Tm3Np(GeRh)4
_symmetry_space_group_name_H-M   'P 1'
_cell_length_a   4.31290400
_cell_length_b   6.91656028
_cell_length_c   7.52070998
_cell_angle_alpha   90.42659736
_cell_angle_beta   90.00000000
_cell_angle_gamma   90.00000000
_symmetry_Int_Tables_number   1
_chemical_formula_structural   Tm3Np(GeRh)4
_chemical_formula_sum   'Tm3 Np1 Ge4 Rh4'
_cell_volume   224.34002335
_cell_formula_units_Z   1
loop_
 _symmetry_equiv_pos_site_id
 _symmetry_equiv_pos_as_xyz
  1  'x, y, z'
loop_
 _atom_site_type_symbol
 _atom_site_label
 _atom_site_symmetry_multiplicity
 _atom_site_fract_x
 _atom_site_fract_y
 _atom_site_fract_z
 _atom_site_occupancy
  Tm  Tm0  1  0.750000  0.000166  0.194964  1
  Tm  Tm1  1  0.250000  0.503683  0.692643  1
  Tm  Tm2  1  0.750000  0.499702  0.304317  1
  Np  Np3  1  0.250000  0.992304  0.800371  1
  Ge  Ge4  1  0.250000  0.286191  0.105222  1
  Ge  Ge5  1  0.750000  0.708739  0.897733  1
  Ge  Ge6  1  0.250000  0.786471  0.391015  1
  Ge  Ge7  1  0.750000  0.219522  0.605138  1
  Rh  Rh8  1  0.750000  0.842922  0.573664  1
  Rh  Rh9  1  0.250000  0.159488  0.432366  1
  Rh  Rh10  1  0.750000  0.343016  0.935301  1
  Rh  Rh11  1  0.250000  0.657798  0.067266  1
