# generated using pymatgen
data_Sr2MoWO6
_symmetry_space_group_name_H-M   'P 1'
_cell_length_a   5.79476515
_cell_length_b   5.78364303
_cell_length_c   10.03064943
_cell_angle_alpha   90.13305523
_cell_angle_beta   73.21454796
_cell_angle_gamma   59.94847422
_symmetry_Int_Tables_number   1
_chemical_formula_structural   Sr2MoWO6
_chemical_formula_sum   'Sr4 Mo2 W2 O12'
_cell_volume   274.17286289
_cell_formula_units_Z   2
loop_
 _symmetry_equiv_pos_site_id
 _symmetry_equiv_pos_as_xyz
  1  'x, y, z'
loop_
 _atom_site_type_symbol
 _atom_site_label
 _atom_site_symmetry_multiplicity
 _atom_site_fract_x
 _atom_site_fract_y
 _atom_site_fract_z
 _atom_site_occupancy
  Sr  Sr0  1  0.250030  0.374969  0.125033  1
  Sr  Sr1  1  0.250094  0.875056  0.624963  1
  Sr  Sr2  1  0.749977  0.624954  0.875017  1
  Sr  Sr3  1  0.749892  0.125047  0.374975  1
  Mo  Mo4  1  0.500039  0.749960  0.249978  1
  Mo  Mo5  1  0.499988  0.250000  0.750030  1
  W  W6  1  0.000072  0.499957  0.499936  1
  W  W7  1  0.999933  0.000012  0.000067  1
  O  O8  1  0.761256  0.358469  0.119384  1
  O  O9  1  0.761266  0.858435  0.619322  1
  O  O10  1  0.238714  0.641462  0.880699  1
  O  O11  1  0.238800  0.141616  0.380554  1
  O  O12  1  0.298788  0.593963  0.406119  1
  O  O13  1  0.298616  0.094078  0.906232  1
  O  O14  1  0.701304  0.405990  0.593795  1
  O  O15  1  0.701197  0.906002  0.093875  1
  O  O16  1  0.812354  0.649403  0.350525  1
  O  O17  1  0.812142  0.149547  0.850696  1
  O  O18  1  0.187746  0.350599  0.649371  1
  O  O19  1  0.187790  0.850480  0.149433  1
