# generated using pymatgen
data_Yb2Y3Ir2
_symmetry_space_group_name_H-M   'P 1'
_cell_length_a   6.54448033
_cell_length_b   7.28440352
_cell_length_c   8.53526752
_cell_angle_alpha   97.00063492
_cell_angle_beta   112.54312931
_cell_angle_gamma   89.99999567
_symmetry_Int_Tables_number   1
_chemical_formula_structural   Yb2Y3Ir2
_chemical_formula_sum   'Yb4 Y6 Ir4'
_cell_volume   372.52145959
_cell_formula_units_Z   2
loop_
 _symmetry_equiv_pos_site_id
 _symmetry_equiv_pos_as_xyz
  1  'x, y, z'
loop_
 _atom_site_type_symbol
 _atom_site_label
 _atom_site_symmetry_multiplicity
 _atom_site_fract_x
 _atom_site_fract_y
 _atom_site_fract_z
 _atom_site_occupancy
  Yb  Yb0  1  0.975628  0.919507  0.182319  1
  Yb  Yb1  1  0.793307  0.580493  0.817681  1
  Yb  Yb2  1  0.024372  0.080493  0.817681  1
  Yb  Yb3  1  0.206693  0.419507  0.182319  1
  Y  Y4  1  0.651991  0.818323  0.439612  1
  Y  Y5  1  0.212379  0.681677  0.560388  1
  Y  Y6  1  0.348009  0.181677  0.560388  1
  Y  Y7  1  0.787621  0.318323  0.439612  1
  Y  Y8  1  0.431559  0.750000  0.000000  1
  Y  Y9  1  0.568441  0.250000  0.000000  1
  Ir  Ir10  1  0.817395  0.573311  0.226425  1
  Ir  Ir11  1  0.590970  0.926689  0.773575  1
  Ir  Ir12  1  0.182605  0.426689  0.773575  1
  Ir  Ir13  1  0.409030  0.073311  0.226425  1
