# generated using pymatgen
data_DyEr3AgRh
_symmetry_space_group_name_H-M   'P 1'
_cell_length_a   9.44902689
_cell_length_b   9.44388656
_cell_length_c   9.45220714
_cell_angle_alpha   60.30188963
_cell_angle_beta   60.34542777
_cell_angle_gamma   60.34483723
_symmetry_Int_Tables_number   1
_chemical_formula_structural   DyEr3AgRh
_chemical_formula_sum   'Dy4 Er12 Ag4 Rh4'
_cell_volume   600.88780532
_cell_formula_units_Z   4
loop_
 _symmetry_equiv_pos_site_id
 _symmetry_equiv_pos_as_xyz
  1  'x, y, z'
loop_
 _atom_site_type_symbol
 _atom_site_label
 _atom_site_symmetry_multiplicity
 _atom_site_fract_x
 _atom_site_fract_y
 _atom_site_fract_z
 _atom_site_occupancy
  Dy  Dy0  1  0.187491  0.187873  0.812613  1
  Dy  Dy1  1  0.435394  0.064444  0.065295  1
  Dy  Dy2  1  0.435204  0.065795  0.434988  1
  Dy  Dy3  1  0.064422  0.435387  0.065433  1
  Er  Er4  1  0.647651  0.058329  0.646566  1
  Er  Er5  1  0.187280  0.813132  0.813126  1
  Er  Er6  1  0.064342  0.064297  0.435875  1
  Er  Er7  1  0.812696  0.187365  0.187907  1
  Er  Er8  1  0.813683  0.813244  0.187070  1
  Er  Er9  1  0.646937  0.646606  0.058879  1
  Er  Er10  1  0.646902  0.646263  0.646090  1
  Er  Er11  1  0.065145  0.435508  0.434934  1
  Er  Er12  1  0.058246  0.647287  0.646531  1
  Er  Er13  1  0.813111  0.187406  0.812789  1
  Er  Er14  1  0.435502  0.436158  0.064920  1
  Er  Er15  1  0.187451  0.812365  0.188264  1
  Ag  Ag16  1  0.417364  0.746341  0.417864  1
  Ag  Ag17  1  0.417928  0.418024  0.746106  1
  Ag  Ag18  1  0.746527  0.417579  0.417942  1
  Ag  Ag19  1  0.417275  0.417739  0.417310  1
  Rh  Rh20  1  0.854707  0.431790  0.856014  1
  Rh  Rh21  1  0.856214  0.855675  0.431215  1
  Rh  Rh22  1  0.431739  0.854416  0.856326  1
  Rh  Rh23  1  0.856786  0.856976  0.855943  1
