# generated using pymatgen
data_Nd7CdSbPd24
_symmetry_space_group_name_H-M   'P 1'
_cell_length_a   8.50311621
_cell_length_b   8.50311621
_cell_length_c   8.50311621
_cell_angle_alpha   90.23672789
_cell_angle_beta   90.23672789
_cell_angle_gamma   89.76327211
_symmetry_Int_Tables_number   1
_chemical_formula_structural   Nd7CdSbPd24
_chemical_formula_sum   'Nd7 Cd1 Sb1 Pd24'
_cell_volume   614.78498762
_cell_formula_units_Z   1
loop_
 _symmetry_equiv_pos_site_id
 _symmetry_equiv_pos_as_xyz
  1  'x, y, z'
loop_
 _atom_site_type_symbol
 _atom_site_label
 _atom_site_symmetry_multiplicity
 _atom_site_fract_x
 _atom_site_fract_y
 _atom_site_fract_z
 _atom_site_occupancy
  Nd  Nd0  1  0.747145  0.252755  0.747245  1
  Nd  Nd1  1  0.252755  0.747145  0.747245  1
  Nd  Nd2  1  0.746131  0.746131  0.747376  1
  Nd  Nd3  1  0.746131  0.252624  0.253869  1
  Nd  Nd4  1  0.253619  0.253619  0.746381  1
  Nd  Nd5  1  0.252624  0.746131  0.253869  1
  Nd  Nd6  1  0.252755  0.252755  0.252855  1
  Cd  Cd7  1  0.747409  0.747409  0.252591  1
  Sb  Sb8  1  0.003401  0.003401  0.996599  1
  Pd  Pd9  1  0.994849  0.994849  0.305351  1
  Pd  Pd10  1  0.733594  0.995735  0.498311  1
  Pd  Pd11  1  0.733594  0.501689  0.004265  1
  Pd  Pd12  1  0.501262  0.000252  0.735004  1
  Pd  Pd13  1  0.995735  0.733594  0.498311  1
  Pd  Pd14  1  0.501689  0.995735  0.266406  1
  Pd  Pd15  1  0.000252  0.264996  0.498738  1
  Pd  Pd16  1  0.501689  0.733594  0.004265  1
  Pd  Pd17  1  0.255131  0.500531  0.499469  1
  Pd  Pd18  1  0.500531  0.500531  0.744869  1
  Pd  Pd19  1  0.503038  0.503038  0.254976  1
  Pd  Pd20  1  0.500531  0.255131  0.499469  1
  Pd  Pd21  1  0.503038  0.745024  0.496962  1
  Pd  Pd22  1  0.745024  0.503038  0.496962  1
  Pd  Pd23  1  0.311505  0.999917  0.000083  1
  Pd  Pd24  1  0.999917  0.999917  0.688495  1
  Pd  Pd25  1  0.995735  0.501689  0.266406  1
  Pd  Pd26  1  0.999917  0.311505  0.000083  1
  Pd  Pd27  1  0.994849  0.694649  0.005151  1
  Pd  Pd28  1  0.694649  0.994849  0.005151  1
  Pd  Pd29  1  0.264996  0.501262  0.999748  1
  Pd  Pd30  1  0.264996  0.000252  0.498738  1
  Pd  Pd31  1  0.000252  0.501262  0.735004  1
  Pd  Pd32  1  0.501262  0.264996  0.999748  1
