# generated using pymatgen
data_Yb10Cd2CuNi2Ir
_symmetry_space_group_name_H-M   'P 1'
_cell_length_a   9.02744977
_cell_length_b   9.02744808
_cell_length_c   8.99468313
_cell_angle_alpha   129.88999650
_cell_angle_beta   129.88999308
_cell_angle_gamma   73.86055784
_symmetry_Int_Tables_number   1
_chemical_formula_structural   Yb10Cd2CuNi2Ir
_chemical_formula_sum   'Yb10 Cd2 Cu1 Ni2 Ir1'
_cell_volume   420.33001271
_cell_formula_units_Z   1
loop_
 _symmetry_equiv_pos_site_id
 _symmetry_equiv_pos_as_xyz
  1  'x, y, z'
loop_
 _atom_site_type_symbol
 _atom_site_label
 _atom_site_symmetry_multiplicity
 _atom_site_fract_x
 _atom_site_fract_y
 _atom_site_fract_z
 _atom_site_occupancy
  Yb  Yb0  1  0.501734  0.505895  0.007629  1
  Yb  Yb1  1  0.994105  0.998266  0.992371  1
  Yb  Yb2  1  0.544690  0.036461  0.840442  1
  Yb  Yb3  1  0.204249  0.696020  0.159558  1
  Yb  Yb4  1  0.030434  0.208671  0.500000  1
  Yb  Yb5  1  0.701486  0.540362  0.500000  1
  Yb  Yb6  1  0.463539  0.955310  0.159558  1
  Yb  Yb7  1  0.803980  0.295751  0.840442  1
  Yb  Yb8  1  0.959638  0.798514  0.500000  1
  Yb  Yb9  1  0.291329  0.469566  0.500000  1
  Cd  Cd10  1  0.251535  0.248465  0.000000  1
  Cd  Cd11  1  0.751535  0.748465  0.000000  1
  Cu  Cu12  1  0.379675  0.120325  0.500000  1
  Ni  Ni13  1  0.115201  0.616118  0.731318  1
  Ni  Ni14  1  0.883882  0.384799  0.268682  1
  Ir  Ir15  1  0.622987  0.877013  0.500000  1
