# generated using pymatgen
data_PtClF8
_symmetry_space_group_name_H-M   'P 1'
_cell_length_a   5.95179584
_cell_length_b   5.95179898
_cell_length_c   10.50777797
_cell_angle_alpha   74.33551163
_cell_angle_beta   74.33573606
_cell_angle_gamma   85.51251593
_symmetry_Int_Tables_number   1
_chemical_formula_structural   PtClF8
_chemical_formula_sum   'Pt2 Cl2 F16'
_cell_volume   345.08499789
_cell_formula_units_Z   2
loop_
 _symmetry_equiv_pos_site_id
 _symmetry_equiv_pos_as_xyz
  1  'x, y, z'
loop_
 _atom_site_type_symbol
 _atom_site_label
 _atom_site_symmetry_multiplicity
 _atom_site_fract_x
 _atom_site_fract_y
 _atom_site_fract_z
 _atom_site_occupancy
  Pt  Pt0  1  0.000000  0.000000  0.500000  1
  Pt  Pt1  1  0.000000  0.000000  0.000000  1
  Cl  Cl2  1  0.327118  0.672881  0.250000  1
  Cl  Cl3  1  0.672882  0.327119  0.750000  1
  F  F4  1  0.605122  0.532912  0.829239  1
  F  F5  1  0.467088  0.394878  0.670761  1
  F  F6  1  0.394878  0.467088  0.170761  1
  F  F7  1  0.532912  0.605122  0.329239  1
  F  F8  1  0.183447  0.222976  0.528576  1
  F  F9  1  0.777024  0.816554  0.971423  1
  F  F10  1  0.816553  0.777024  0.471424  1
  F  F11  1  0.222976  0.183446  0.028577  1
  F  F12  1  0.252412  0.967345  0.340149  1
  F  F13  1  0.032654  0.747588  0.159851  1
  F  F14  1  0.747588  0.032655  0.659851  1
  F  F15  1  0.967346  0.252412  0.840149  1
  F  F16  1  0.874412  0.248359  0.380410  1
  F  F17  1  0.751641  0.125588  0.119590  1
  F  F18  1  0.125588  0.751641  0.619590  1
  F  F19  1  0.248359  0.874412  0.880410  1
