# generated using pymatgen
data_La2Yb5Ni4Sn13
_symmetry_space_group_name_H-M   'P 1'
_cell_length_a   11.25265800
_cell_length_b   11.25265800
_cell_length_c   4.59625600
_cell_angle_alpha   90.00000000
_cell_angle_beta   90.00000000
_cell_angle_gamma   90.00000000
_symmetry_Int_Tables_number   1
_chemical_formula_structural   La2Yb5Ni4Sn13
_chemical_formula_sum   'La2 Yb5 Ni4 Sn13'
_cell_volume   581.98856156
_cell_formula_units_Z   1
loop_
 _symmetry_equiv_pos_site_id
 _symmetry_equiv_pos_as_xyz
  1  'x, y, z'
loop_
 _atom_site_type_symbol
 _atom_site_label
 _atom_site_symmetry_multiplicity
 _atom_site_fract_x
 _atom_site_fract_y
 _atom_site_fract_z
 _atom_site_occupancy
  La  La0  1  0.500000  0.000000  0.500000  1
  La  La1  1  0.000000  0.500000  0.500000  1
  Yb  Yb2  1  0.000000  0.000000  0.000000  1
  Yb  Yb3  1  0.337437  0.671211  0.500000  1
  Yb  Yb4  1  0.662563  0.328789  0.500000  1
  Yb  Yb5  1  0.328789  0.337437  0.500000  1
  Yb  Yb6  1  0.671211  0.662563  0.500000  1
  Ni  Ni7  1  0.120191  0.723135  0.000000  1
  Ni  Ni8  1  0.879809  0.276865  0.000000  1
  Ni  Ni9  1  0.276865  0.120191  0.000000  1
  Ni  Ni10  1  0.723135  0.879809  0.000000  1
  Sn  Sn11  1  0.284062  0.888694  0.000000  1
  Sn  Sn12  1  0.715938  0.111306  0.000000  1
  Sn  Sn13  1  0.111306  0.284062  0.000000  1
  Sn  Sn14  1  0.888694  0.715938  0.000000  1
  Sn  Sn15  1  0.075055  0.810485  0.500000  1
  Sn  Sn16  1  0.924945  0.189515  0.500000  1
  Sn  Sn17  1  0.189515  0.075055  0.500000  1
  Sn  Sn18  1  0.810485  0.924945  0.500000  1
  Sn  Sn19  1  0.518579  0.781178  0.000000  1
  Sn  Sn20  1  0.481421  0.218822  0.000000  1
  Sn  Sn21  1  0.218822  0.518579  0.000000  1
  Sn  Sn22  1  0.781178  0.481421  0.000000  1
  Sn  Sn23  1  0.500000  0.500000  0.000000  1
