# generated using pymatgen
data_Tb2Ge4(AsRh4)3
_symmetry_space_group_name_H-M   'P 1'
_cell_length_a   9.98844500
_cell_length_b   9.98844415
_cell_length_c   3.92909900
_cell_angle_alpha   90.00000000
_cell_angle_beta   90.00000000
_cell_angle_gamma   119.99999288
_symmetry_Int_Tables_number   1
_chemical_formula_structural   Tb2Ge4(AsRh4)3
_chemical_formula_sum   'Tb2 Ge4 As3 Rh12'
_cell_volume   339.48404077
_cell_formula_units_Z   1
loop_
 _symmetry_equiv_pos_site_id
 _symmetry_equiv_pos_as_xyz
  1  'x, y, z'
loop_
 _atom_site_type_symbol
 _atom_site_label
 _atom_site_symmetry_multiplicity
 _atom_site_fract_x
 _atom_site_fract_y
 _atom_site_fract_z
 _atom_site_occupancy
  Tb  Tb0  1  0.666667  0.333333  0.751009  1
  Tb  Tb1  1  0.333333  0.666667  0.249011  1
  Ge  Ge2  1  0.000000  0.000000  0.585529  1
  Ge  Ge3  1  0.287765  0.883412  0.751130  1
  Ge  Ge4  1  0.116588  0.404353  0.751130  1
  Ge  Ge5  1  0.595647  0.712235  0.751130  1
  As  As6  1  0.710657  0.114301  0.250054  1
  As  As7  1  0.885699  0.596356  0.250054  1
  As  As8  1  0.403644  0.289343  0.250054  1
  Rh  Rh9  1  0.062765  0.618376  0.751805  1
  Rh  Rh10  1  0.381624  0.444390  0.751805  1
  Rh  Rh11  1  0.555610  0.937235  0.751805  1
  Rh  Rh12  1  0.937497  0.381960  0.249783  1
  Rh  Rh13  1  0.618040  0.555537  0.249783  1
  Rh  Rh14  1  0.444463  0.062503  0.249783  1
  Rh  Rh15  1  0.271667  0.121788  0.750761  1
  Rh  Rh16  1  0.878212  0.149879  0.750761  1
  Rh  Rh17  1  0.850121  0.728333  0.750761  1
  Rh  Rh18  1  0.741475  0.884510  0.252492  1
  Rh  Rh19  1  0.115490  0.856966  0.252492  1
  Rh  Rh20  1  0.143034  0.258525  0.252492  1
