# generated using pymatgen
data_TmThP7(RuRh)6
_symmetry_space_group_name_H-M   'P 1'
_cell_length_a   3.87211001
_cell_length_b   9.55348866
_cell_length_c   9.55001000
_cell_angle_alpha   119.98258939
_cell_angle_beta   90.00355129
_cell_angle_gamma   90.00080416
_symmetry_Int_Tables_number   1
_chemical_formula_structural   TmThP7(RuRh)6
_chemical_formula_sum   'Tm1 Th1 P7 Ru6 Rh6'
_cell_volume   305.99920798
_cell_formula_units_Z   1
loop_
 _symmetry_equiv_pos_site_id
 _symmetry_equiv_pos_as_xyz
  1  'x, y, z'
loop_
 _atom_site_type_symbol
 _atom_site_label
 _atom_site_symmetry_multiplicity
 _atom_site_fract_x
 _atom_site_fract_y
 _atom_site_fract_z
 _atom_site_occupancy
  Tm  Tm0  1  0.254659  0.666654  0.333337  1
  Th  Th1  1  0.745505  0.333389  0.666661  1
  P  P2  1  0.475462  0.999990  0.999968  1
  P  P3  1  0.755316  0.882697  0.595472  1
  P  P4  1  0.755272  0.404563  0.287303  1
  P  P5  1  0.755231  0.712745  0.117344  1
  P  P6  1  0.246355  0.112589  0.396405  1
  P  P7  1  0.246380  0.603596  0.716125  1
  P  P8  1  0.246366  0.283853  0.887402  1
  Ru  Ru9  1  0.744803  0.115010  0.851742  1
  Ru  Ru10  1  0.744829  0.148226  0.263307  1
  Ru  Ru11  1  0.744796  0.736795  0.885007  1
  Ru  Ru12  1  0.259346  0.881936  0.146196  1
  Ru  Ru13  1  0.259277  0.853798  0.735683  1
  Ru  Ru14  1  0.259281  0.264157  0.118023  1
  Rh  Rh15  1  0.753897  0.619369  0.551648  1
  Rh  Rh16  1  0.753869  0.448389  0.067786  1
  Rh  Rh17  1  0.753936  0.932189  0.380657  1
  Rh  Rh18  1  0.248521  0.384378  0.446741  1
  Rh  Rh19  1  0.248423  0.553225  0.937562  1
  Rh  Rh20  1  0.248477  0.062450  0.615633  1
