# generated using pymatgen
data_Pr(Ga2Pt)2
_symmetry_space_group_name_H-M   'P 1'
_cell_length_a   4.39506700
_cell_length_b   6.70150700
_cell_length_c   17.57607900
_cell_angle_alpha   90.00000000
_cell_angle_beta   90.00000000
_cell_angle_gamma   90.00000000
_symmetry_Int_Tables_number   1
_chemical_formula_structural   Pr(Ga2Pt)2
_chemical_formula_sum   'Pr4 Ga16 Pt8'
_cell_volume   517.67831298
_cell_formula_units_Z   4
loop_
 _symmetry_equiv_pos_site_id
 _symmetry_equiv_pos_as_xyz
  1  'x, y, z'
loop_
 _atom_site_type_symbol
 _atom_site_label
 _atom_site_symmetry_multiplicity
 _atom_site_fract_x
 _atom_site_fract_y
 _atom_site_fract_z
 _atom_site_occupancy
  Pr  Pr0  1  0.250000  0.510359  0.861952  1
  Pr  Pr1  1  0.750000  0.010359  0.638048  1
  Pr  Pr2  1  0.750000  0.489641  0.138048  1
  Pr  Pr3  1  0.250000  0.989641  0.361952  1
  Ga  Ga4  1  0.750000  0.272498  0.307953  1
  Ga  Ga5  1  0.750000  0.488054  0.571946  1
  Ga  Ga6  1  0.750000  0.675649  0.316006  1
  Ga  Ga7  1  0.250000  0.988054  0.928054  1
  Ga  Ga8  1  0.750000  0.330611  0.963497  1
  Ga  Ga9  1  0.250000  0.772498  0.192047  1
  Ga  Ga10  1  0.250000  0.669389  0.036503  1
  Ga  Ga11  1  0.250000  0.830611  0.536503  1
  Ga  Ga12  1  0.750000  0.227502  0.807953  1
  Ga  Ga13  1  0.250000  0.511946  0.428054  1
  Ga  Ga14  1  0.250000  0.175649  0.183994  1
  Ga  Ga15  1  0.750000  0.824351  0.816006  1
  Ga  Ga16  1  0.250000  0.727502  0.692047  1
  Ga  Ga17  1  0.750000  0.011946  0.071946  1
  Ga  Ga18  1  0.250000  0.324351  0.683994  1
  Ga  Ga19  1  0.750000  0.169389  0.463497  1
  Pt  Pt20  1  0.250000  0.254239  0.535631  1
  Pt  Pt21  1  0.750000  0.530936  0.716274  1
  Pt  Pt22  1  0.750000  0.745761  0.464369  1
  Pt  Pt23  1  0.250000  0.245761  0.035631  1
  Pt  Pt24  1  0.750000  0.754239  0.964369  1
  Pt  Pt25  1  0.250000  0.469064  0.283726  1
  Pt  Pt26  1  0.750000  0.969064  0.216274  1
  Pt  Pt27  1  0.250000  0.030936  0.783726  1
