# generated using pymatgen
data_Ho9Lu(SiBi)4
_symmetry_space_group_name_H-M   'P 1'
_cell_length_a   8.61501253
_cell_length_b   8.61501271
_cell_length_c   7.87427200
_cell_angle_alpha   90.00041238
_cell_angle_beta   90.00040950
_cell_angle_gamma   125.74328996
_symmetry_Int_Tables_number   1
_chemical_formula_structural   Ho9Lu(SiBi)4
_chemical_formula_sum   'Ho9 Lu1 Si4 Bi4'
_cell_volume   474.33696917
_cell_formula_units_Z   1
loop_
 _symmetry_equiv_pos_site_id
 _symmetry_equiv_pos_as_xyz
  1  'x, y, z'
loop_
 _atom_site_type_symbol
 _atom_site_label
 _atom_site_symmetry_multiplicity
 _atom_site_fract_x
 _atom_site_fract_y
 _atom_site_fract_z
 _atom_site_occupancy
  Ho  Ho0  1  0.043122  0.286520  0.334882  1
  Ho  Ho1  1  0.956878  0.713480  0.665118  1
  Ho  Ho2  1  0.456260  0.212740  0.835430  1
  Ho  Ho3  1  0.787260  0.543740  0.164570  1
  Ho  Ho4  1  0.543740  0.787260  0.164570  1
  Ho  Ho5  1  0.212740  0.456260  0.835430  1
  Ho  Ho6  1  0.713480  0.956878  0.665118  1
  Ho  Ho7  1  0.286520  0.043122  0.334882  1
  Ho  Ho8  1  0.500000  0.500000  0.500000  1
  Lu  Lu9  1  0.000000  0.000000  0.000000  1
  Si  Si10  1  0.365192  0.365192  0.132554  1
  Si  Si11  1  0.634808  0.634808  0.867446  1
  Si  Si12  1  0.133862  0.133862  0.633702  1
  Si  Si13  1  0.866138  0.866138  0.366298  1
  Bi  Bi14  1  0.792906  0.207094  0.000000  1
  Bi  Bi15  1  0.207094  0.792906  0.000000  1
  Bi  Bi16  1  0.707758  0.292242  0.500000  1
  Bi  Bi17  1  0.292242  0.707758  0.500000  1
