# generated using pymatgen
data_Er3U(B4Ir)4
_symmetry_space_group_name_H-M   'P 1'
_cell_length_a   3.54587600
_cell_length_b   5.97158505
_cell_length_c   11.58532150
_cell_angle_alpha   90.07161524
_cell_angle_beta   90.00000000
_cell_angle_gamma   90.00000000
_symmetry_Int_Tables_number   1
_chemical_formula_structural   Er3U(B4Ir)4
_chemical_formula_sum   'Er3 U1 B16 Ir4'
_cell_volume   245.31319975
_cell_formula_units_Z   1
loop_
 _symmetry_equiv_pos_site_id
 _symmetry_equiv_pos_as_xyz
  1  'x, y, z'
loop_
 _atom_site_type_symbol
 _atom_site_label
 _atom_site_symmetry_multiplicity
 _atom_site_fract_x
 _atom_site_fract_y
 _atom_site_fract_z
 _atom_site_occupancy
  Er  Er0  1  0.500000  0.369677  0.851529  1
  Er  Er1  1  0.500000  0.131432  0.351911  1
  Er  Er2  1  0.500000  0.868391  0.648634  1
  U  U3  1  0.500000  0.630106  0.149868  1
  B  B4  1  0.000000  0.976082  0.192466  1
  B  B5  1  0.000000  0.028554  0.808331  1
  B  B6  1  0.000000  0.475367  0.307967  1
  B  B7  1  0.000000  0.525911  0.691857  1
  B  B8  1  0.000000  0.789443  0.310395  1
  B  B9  1  0.000000  0.207007  0.687540  1
  B  B10  1  0.000000  0.293397  0.187851  1
  B  B11  1  0.000000  0.704187  0.812750  1
  B  B12  1  0.000000  0.864080  0.469783  1
  B  B13  1  0.000000  0.134627  0.530610  1
  B  B14  1  0.000000  0.367792  0.032150  1
  B  B15  1  0.000000  0.634218  0.966756  1
  B  B16  1  0.000000  0.885663  0.046675  1
  B  B17  1  0.000000  0.113662  0.953060  1
  B  B18  1  0.000000  0.385660  0.453832  1
  B  B19  1  0.000000  0.612568  0.547046  1
  Ir  Ir20  1  0.500000  0.645584  0.403903  1
  Ir  Ir21  1  0.500000  0.355414  0.596715  1
  Ir  Ir22  1  0.500000  0.144172  0.095748  1
  Ir  Ir23  1  0.500000  0.857006  0.902625  1
