# generated using pymatgen
data_PrNd9IrOs3
_symmetry_space_group_name_H-M   'P 1'
_cell_length_a   8.91264609
_cell_length_b   8.89789811
_cell_length_c   7.45084753
_cell_angle_alpha   83.57168623
_cell_angle_beta   83.58853110
_cell_angle_gamma   43.93675850
_symmetry_Int_Tables_number   1
_chemical_formula_structural   PrNd9IrOs3
_chemical_formula_sum   'Pr1 Nd9 Ir1 Os3'
_cell_volume   406.99988366
_cell_formula_units_Z   1
loop_
 _symmetry_equiv_pos_site_id
 _symmetry_equiv_pos_as_xyz
  1  'x, y, z'
loop_
 _atom_site_type_symbol
 _atom_site_label
 _atom_site_symmetry_multiplicity
 _atom_site_fract_x
 _atom_site_fract_y
 _atom_site_fract_z
 _atom_site_occupancy
  Pr  Pr0  1  0.022010  0.795927  0.913769  1
  Nd  Nd1  1  0.202227  0.981164  0.585160  1
  Nd  Nd2  1  0.982472  0.203279  0.084741  1
  Nd  Nd3  1  0.799039  0.018791  0.416218  1
  Nd  Nd4  1  0.353356  0.209859  0.816785  1
  Nd  Nd5  1  0.788980  0.646457  0.683305  1
  Nd  Nd6  1  0.645960  0.786514  0.183149  1
  Nd  Nd7  1  0.207626  0.356379  0.318569  1
  Nd  Nd8  1  0.571345  0.430475  0.747512  1
  Nd  Nd9  1  0.429487  0.571058  0.250318  1
  Ir  Ir10  1  0.599715  0.176633  0.075268  1
  Os  Os11  1  0.176745  0.602117  0.573892  1
  Os  Os12  1  0.397039  0.824266  0.926474  1
  Os  Os13  1  0.823998  0.397082  0.424840  1
