# generated using pymatgen
data_Pr2Lu3Tl4
_symmetry_space_group_name_H-M   'P 1'
_cell_length_a   8.02405200
_cell_length_b   8.23479400
_cell_length_c   15.92192800
_cell_angle_alpha   90.00000000
_cell_angle_beta   90.00000000
_cell_angle_gamma   90.00000000
_symmetry_Int_Tables_number   1
_chemical_formula_structural   Pr2Lu3Tl4
_chemical_formula_sum   'Pr8 Lu12 Tl16'
_cell_volume   1052.06392635
_cell_formula_units_Z   4
loop_
 _symmetry_equiv_pos_site_id
 _symmetry_equiv_pos_as_xyz
  1  'x, y, z'
loop_
 _atom_site_type_symbol
 _atom_site_label
 _atom_site_symmetry_multiplicity
 _atom_site_fract_x
 _atom_site_fract_y
 _atom_site_fract_z
 _atom_site_occupancy
  Pr  Pr0  1  0.507658  0.321435  0.904487  1
  Pr  Pr1  1  0.007658  0.178565  0.595513  1
  Pr  Pr2  1  0.492342  0.678565  0.404487  1
  Pr  Pr3  1  0.992342  0.821435  0.095513  1
  Pr  Pr4  1  0.492342  0.678565  0.095513  1
  Pr  Pr5  1  0.992342  0.821435  0.404487  1
  Pr  Pr6  1  0.507658  0.321435  0.595513  1
  Pr  Pr7  1  0.007658  0.178565  0.904487  1
  Lu  Lu8  1  0.347950  0.838064  0.875246  1
  Lu  Lu9  1  0.847950  0.661936  0.624754  1
  Lu  Lu10  1  0.652050  0.161936  0.375246  1
  Lu  Lu11  1  0.152050  0.338064  0.124754  1
  Lu  Lu12  1  0.652050  0.161936  0.124754  1
  Lu  Lu13  1  0.152050  0.338064  0.375246  1
  Lu  Lu14  1  0.347950  0.838064  0.624754  1
  Lu  Lu15  1  0.847950  0.661936  0.875246  1
  Lu  Lu16  1  0.181923  0.502979  0.750000  1
  Lu  Lu17  1  0.681923  0.997021  0.750000  1
  Lu  Lu18  1  0.818077  0.497021  0.250000  1
  Lu  Lu19  1  0.318077  0.002979  0.250000  1
  Tl  Tl20  1  0.316554  0.040732  0.040650  1
  Tl  Tl21  1  0.816554  0.459268  0.459350  1
  Tl  Tl22  1  0.683446  0.959268  0.540650  1
  Tl  Tl23  1  0.183446  0.540732  0.959350  1
  Tl  Tl24  1  0.683446  0.959268  0.959350  1
  Tl  Tl25  1  0.183446  0.540732  0.540650  1
  Tl  Tl26  1  0.316554  0.040732  0.459350  1
  Tl  Tl27  1  0.816554  0.459268  0.040650  1
  Tl  Tl28  1  0.544734  0.623729  0.750000  1
  Tl  Tl29  1  0.044734  0.876271  0.750000  1
  Tl  Tl30  1  0.455266  0.376271  0.250000  1
  Tl  Tl31  1  0.955266  0.123729  0.250000  1
  Tl  Tl32  1  0.313027  0.140900  0.750000  1
  Tl  Tl33  1  0.813027  0.359100  0.750000  1
  Tl  Tl34  1  0.686973  0.859100  0.250000  1
  Tl  Tl35  1  0.186973  0.640900  0.250000  1
