# generated using pymatgen
data_Cr(Te4Ir)3
_symmetry_space_group_name_H-M   'P 1'
_cell_length_a   11.61654200
_cell_length_b   8.32094271
_cell_length_c   11.58643900
_cell_angle_alpha   62.38494044
_cell_angle_beta   90.00000000
_cell_angle_gamma   90.00000000
_symmetry_Int_Tables_number   1
_chemical_formula_structural   Cr(Te4Ir)3
_chemical_formula_sum   'Cr2 Te24 Ir6'
_cell_volume   992.36898564
_cell_formula_units_Z   2
loop_
 _symmetry_equiv_pos_site_id
 _symmetry_equiv_pos_as_xyz
  1  'x, y, z'
loop_
 _atom_site_type_symbol
 _atom_site_label
 _atom_site_symmetry_multiplicity
 _atom_site_fract_x
 _atom_site_fract_y
 _atom_site_fract_z
 _atom_site_occupancy
  Cr  Cr0  1  0.284933  0.965510  0.511379  1
  Cr  Cr1  1  0.784933  0.034490  0.988621  1
  Te  Te2  1  0.095606  0.182574  0.439170  1
  Te  Te3  1  0.595606  0.817426  0.060830  1
  Te  Te4  1  0.894277  0.824839  0.557873  1
  Te  Te5  1  0.394277  0.175161  0.942127  1
  Te  Te6  1  0.671990  0.248413  0.762510  1
  Te  Te7  1  0.171990  0.751587  0.737490  1
  Te  Te8  1  0.333861  0.762192  0.236063  1
  Te  Te9  1  0.833861  0.237808  0.263937  1
  Te  Te10  1  0.835211  0.237490  0.577030  1
  Te  Te11  1  0.335211  0.762510  0.922970  1
  Te  Te12  1  0.170251  0.751551  0.428494  1
  Te  Te13  1  0.670251  0.248449  0.071506  1
  Te  Te14  1  0.381834  0.192987  0.600877  1
  Te  Te15  1  0.881834  0.807013  0.899123  1
  Te  Te16  1  0.618611  0.832212  0.396421  1
  Te  Te17  1  0.118611  0.167788  0.103579  1
  Te  Te18  1  0.553615  0.304773  0.398474  1
  Te  Te19  1  0.053615  0.695227  0.101526  1
  Te  Te20  1  0.446598  0.702458  0.599911  1
  Te  Te21  1  0.946598  0.297542  0.900089  1
  Te  Te22  1  0.381867  0.192415  0.270952  1
  Te  Te23  1  0.881867  0.807585  0.229048  1
  Te  Te24  1  0.618989  0.834108  0.715210  1
  Te  Te25  1  0.118989  0.165892  0.784790  1
  Ir  Ir26  1  0.000404  0.993430  0.321271  1
  Ir  Ir27  1  0.500404  0.006570  0.178729  1
  Ir  Ir28  1  0.000674  0.991669  0.683140  1
  Ir  Ir29  1  0.500674  0.008331  0.816860  1
  Ir  Ir30  1  0.711278  0.055522  0.481422  1
  Ir  Ir31  1  0.211278  0.944478  0.018578  1
