# generated using pymatgen
data_Dy5In2SnSe
_symmetry_space_group_name_H-M   'P 1'
_cell_length_a   9.14572090
_cell_length_b   9.14572059
_cell_length_c   6.78290500
_cell_angle_alpha   90.00000000
_cell_angle_beta   90.00000000
_cell_angle_gamma   120.17690983
_symmetry_Int_Tables_number   1
_chemical_formula_structural   Dy5In2SnSe
_chemical_formula_sum   'Dy10 In4 Sn2 Se2'
_cell_volume   490.46189959
_cell_formula_units_Z   2
loop_
 _symmetry_equiv_pos_site_id
 _symmetry_equiv_pos_as_xyz
  1  'x, y, z'
loop_
 _atom_site_type_symbol
 _atom_site_label
 _atom_site_symmetry_multiplicity
 _atom_site_fract_x
 _atom_site_fract_y
 _atom_site_fract_z
 _atom_site_occupancy
  Dy  Dy0  1  0.668159  0.332448  0.997723  1
  Dy  Dy1  1  0.332448  0.668159  0.997723  1
  Dy  Dy2  1  0.332448  0.668159  0.502277  1
  Dy  Dy3  1  0.668159  0.332448  0.502277  1
  Dy  Dy4  1  0.749251  0.749251  0.750000  1
  Dy  Dy5  1  0.251512  0.997861  0.750000  1
  Dy  Dy6  1  0.997861  0.251512  0.750000  1
  Dy  Dy7  1  0.247943  0.247943  0.250000  1
  Dy  Dy8  1  0.748682  0.000841  0.250000  1
  Dy  Dy9  1  0.000841  0.748682  0.250000  1
  In  In10  1  0.401201  0.401201  0.750000  1
  In  In11  1  0.600852  0.000500  0.750000  1
  In  In12  1  0.000500  0.600852  0.750000  1
  In  In13  1  0.600714  0.600714  0.250000  1
  Sn  Sn14  1  0.398866  0.000677  0.250000  1
  Sn  Sn15  1  0.000677  0.398866  0.250000  1
  Se  Se16  1  0.999942  0.999942  0.000649  1
  Se  Se17  1  0.999942  0.999942  0.499351  1
