# generated using pymatgen
data_Li4CaNd3(Si2Sn)2
_symmetry_space_group_name_H-M   'P 1'
_cell_length_a   9.80858698
_cell_length_b   9.80858628
_cell_length_c   6.93270600
_cell_angle_alpha   90.00000000
_cell_angle_beta   90.00000000
_cell_angle_gamma   153.54672285
_symmetry_Int_Tables_number   1
_chemical_formula_structural   Li4CaNd3(Si2Sn)2
_chemical_formula_sum   'Li4 Ca1 Nd3 Si4 Sn2'
_cell_volume   297.12010367
_cell_formula_units_Z   1
loop_
 _symmetry_equiv_pos_site_id
 _symmetry_equiv_pos_as_xyz
  1  'x, y, z'
loop_
 _atom_site_type_symbol
 _atom_site_label
 _atom_site_symmetry_multiplicity
 _atom_site_fract_x
 _atom_site_fract_y
 _atom_site_fract_z
 _atom_site_occupancy
  Li  Li0  1  0.183680  0.816320  0.056437  1
  Li  Li1  1  0.183680  0.816320  0.443563  1
  Li  Li2  1  0.816423  0.183577  0.946788  1
  Li  Li3  1  0.816423  0.183577  0.553212  1
  Ca  Ca4  1  0.348156  0.651844  0.250000  1
  Nd  Nd5  1  0.651928  0.348072  0.750000  1
  Nd  Nd6  1  0.546952  0.453048  0.250000  1
  Nd  Nd7  1  0.451505  0.548495  0.750000  1
  Si  Si8  1  0.056796  0.943204  0.923650  1
  Si  Si9  1  0.944827  0.055173  0.075664  1
  Si  Si10  1  0.944827  0.055173  0.424336  1
  Si  Si11  1  0.056796  0.943204  0.576350  1
  Sn  Sn12  1  0.718639  0.281361  0.250000  1
  Sn  Sn13  1  0.279368  0.720632  0.750000  1
