# generated using pymatgen
data_Ti2Nb2Co4Si7
_symmetry_space_group_name_H-M   'P 1'
_cell_length_a   9.21222339
_cell_length_b   9.21230957
_cell_length_c   9.21281696
_cell_angle_alpha   94.19761919
_cell_angle_beta   94.19367585
_cell_angle_gamma   148.60988071
_symmetry_Int_Tables_number   1
_chemical_formula_structural   Ti2Nb2Co4Si7
_chemical_formula_sum   'Ti4 Nb4 Co8 Si14'
_cell_volume   392.06160345
_cell_formula_units_Z   2
loop_
 _symmetry_equiv_pos_site_id
 _symmetry_equiv_pos_as_xyz
  1  'x, y, z'
loop_
 _atom_site_type_symbol
 _atom_site_label
 _atom_site_symmetry_multiplicity
 _atom_site_fract_x
 _atom_site_fract_y
 _atom_site_fract_z
 _atom_site_occupancy
  Ti  Ti0  1  0.500025  0.692011  0.192028  1
  Ti  Ti1  1  0.499975  0.307989  0.807972  1
  Ti  Ti2  1  0.307994  0.499981  0.807970  1
  Ti  Ti3  1  0.692006  0.500019  0.192030  1
  Nb  Nb4  1  0.133507  0.133504  0.267017  1
  Nb  Nb5  1  0.866493  0.866496  0.732983  1
  Nb  Nb6  1  0.866475  0.133517  0.999996  1
  Nb  Nb7  1  0.133525  0.866483  0.000004  1
  Co  Co8  1  0.399127  0.899126  0.798236  1
  Co  Co9  1  0.100889  0.600893  0.201764  1
  Co  Co10  1  0.100889  0.899124  0.499999  1
  Co  Co11  1  0.399128  0.600893  0.500004  1
  Co  Co12  1  0.600872  0.399107  0.499996  1
  Co  Co13  1  0.899111  0.100876  0.500001  1
  Co  Co14  1  0.899111  0.399107  0.798236  1
  Co  Co15  1  0.600873  0.100874  0.201764  1
  Si  Si16  1  0.293595  0.293593  0.587256  1
  Si  Si17  1  0.706405  0.706407  0.412744  1
  Si  Si18  1  0.706334  0.293657  0.999999  1
  Si  Si19  1  0.293666  0.706343  0.000001  1
  Si  Si20  1  0.000008  0.296804  0.296835  1
  Si  Si21  1  0.999992  0.703196  0.703165  1
  Si  Si22  1  0.703195  0.999991  0.703164  1
  Si  Si23  1  0.296805  0.000009  0.296836  1
  Si  Si24  1  0.500022  0.905791  0.405794  1
  Si  Si25  1  0.499978  0.094209  0.594206  1
  Si  Si26  1  0.094216  0.499985  0.594208  1
  Si  Si27  1  0.905784  0.500015  0.405792  1
  Si  Si28  1  0.748466  0.748464  0.999997  1
  Si  Si29  1  0.251534  0.251536  0.000003  1
