# generated using pymatgen
data_DyY15Cd4Co3Ni
_symmetry_space_group_name_H-M   'P 1'
_cell_length_a   9.52766201
_cell_length_b   9.54819663
_cell_length_c   9.54819607
_cell_angle_alpha   59.93888571
_cell_angle_beta   59.86649867
_cell_angle_gamma   59.86649128
_symmetry_Int_Tables_number   1
_chemical_formula_structural   DyY15Cd4Co3Ni
_chemical_formula_sum   'Dy1 Y15 Cd4 Co3 Ni1'
_cell_volume   612.68115427
_cell_formula_units_Z   1
loop_
 _symmetry_equiv_pos_site_id
 _symmetry_equiv_pos_as_xyz
  1  'x, y, z'
loop_
 _atom_site_type_symbol
 _atom_site_label
 _atom_site_symmetry_multiplicity
 _atom_site_fract_x
 _atom_site_fract_y
 _atom_site_fract_z
 _atom_site_occupancy
  Dy  Dy0  1  0.593811  0.597354  0.597354  1
  Y  Y1  1  0.596161  0.600126  0.206572  1
  Y  Y2  1  0.596161  0.206572  0.600126  1
  Y  Y3  1  0.209850  0.597203  0.597203  1
  Y  Y4  1  0.063663  0.438832  0.438832  1
  Y  Y5  1  0.436356  0.061595  0.061595  1
  Y  Y6  1  0.438403  0.060574  0.439080  1
  Y  Y7  1  0.064616  0.437351  0.057619  1
  Y  Y8  1  0.438403  0.439080  0.060574  1
  Y  Y9  1  0.064616  0.057619  0.437351  1
  Y  Y10  1  0.188228  0.812442  0.812442  1
  Y  Y11  1  0.810098  0.188044  0.188044  1
  Y  Y12  1  0.810784  0.189299  0.813360  1
  Y  Y13  1  0.187379  0.811682  0.188196  1
  Y  Y14  1  0.810784  0.813360  0.189299  1
  Y  Y15  1  0.187379  0.188196  0.811682  1
  Cd  Cd16  1  0.829613  0.829857  0.829857  1
  Cd  Cd17  1  0.830459  0.830271  0.508092  1
  Cd  Cd18  1  0.830459  0.508092  0.830271  1
  Cd  Cd19  1  0.507102  0.830736  0.830736  1
  Co  Co20  1  0.393031  0.391382  0.391382  1
  Co  Co21  1  0.393598  0.392657  0.825296  1
  Co  Co22  1  0.393598  0.825296  0.392657  1
  Ni  Ni23  1  0.825447  0.392379  0.392379  1
