# generated using pymatgen
data_DyLuCo9P6Ru
_symmetry_space_group_name_H-M   'P 1'
_cell_length_a   3.64922200
_cell_length_b   10.28377500
_cell_length_c   11.70205700
_cell_angle_alpha   90.00000000
_cell_angle_beta   90.00000000
_cell_angle_gamma   90.00000000
_symmetry_Int_Tables_number   1
_chemical_formula_structural   DyLuCo9P6Ru
_chemical_formula_sum   'Dy2 Lu2 Co18 P12 Ru2'
_cell_volume   439.15219692
_cell_formula_units_Z   2
loop_
 _symmetry_equiv_pos_site_id
 _symmetry_equiv_pos_as_xyz
  1  'x, y, z'
loop_
 _atom_site_type_symbol
 _atom_site_label
 _atom_site_symmetry_multiplicity
 _atom_site_fract_x
 _atom_site_fract_y
 _atom_site_fract_z
 _atom_site_occupancy
  Dy  Dy0  1  0.250000  0.582173  0.702426  1
  Dy  Dy1  1  0.250000  0.917827  0.202426  1
  Lu  Lu2  1  0.750000  0.414189  0.295661  1
  Lu  Lu3  1  0.750000  0.085811  0.795661  1
  Co  Co4  1  0.750000  0.283257  0.007991  1
  Co  Co5  1  0.750000  0.216743  0.507991  1
  Co  Co6  1  0.250000  0.405732  0.486103  1
  Co  Co7  1  0.250000  0.094268  0.986103  1
  Co  Co8  1  0.750000  0.590058  0.509713  1
  Co  Co9  1  0.750000  0.909942  0.009713  1
  Co  Co10  1  0.250000  0.221064  0.176839  1
  Co  Co11  1  0.250000  0.278936  0.676839  1
  Co  Co12  1  0.750000  0.778783  0.822851  1
  Co  Co13  1  0.750000  0.721217  0.322851  1
  Co  Co14  1  0.250000  0.887988  0.702420  1
  Co  Co15  1  0.250000  0.612012  0.202420  1
  Co  Co16  1  0.750000  0.117483  0.300837  1
  Co  Co17  1  0.750000  0.382517  0.800837  1
  Co  Co18  1  0.250000  0.463367  0.933003  1
  Co  Co19  1  0.250000  0.036633  0.433003  1
  Co  Co20  1  0.750000  0.531829  0.070247  1
  Co  Co21  1  0.750000  0.968171  0.570247  1
  P  P22  1  0.250000  0.416799  0.113674  1
  P  P23  1  0.250000  0.083201  0.613674  1
  P  P24  1  0.750000  0.578332  0.887554  1
  P  P25  1  0.750000  0.921668  0.387554  1
  P  P26  1  0.250000  0.268573  0.868480  1
  P  P27  1  0.250000  0.231427  0.368480  1
  P  P28  1  0.750000  0.728970  0.132359  1
  P  P29  1  0.750000  0.771030  0.632359  1
  P  P30  1  0.250000  0.593534  0.389743  1
  P  P31  1  0.250000  0.906466  0.889743  1
  P  P32  1  0.750000  0.396945  0.608556  1
  P  P33  1  0.750000  0.103055  0.108556  1
  Ru  Ru34  1  0.250000  0.715583  0.991545  1
  Ru  Ru35  1  0.250000  0.784417  0.491545  1
