# generated using pymatgen
data_YPa5I24
_symmetry_space_group_name_H-M   'P 1'
_cell_length_a   9.18404800
_cell_length_b   9.23874929
_cell_length_c   19.37855698
_cell_angle_alpha   77.03427918
_cell_angle_beta   90.00000000
_cell_angle_gamma   90.00000000
_symmetry_Int_Tables_number   1
_chemical_formula_structural   YPa5I24
_chemical_formula_sum   'Y1 Pa5 I24'
_cell_volume   1602.33234160
_cell_formula_units_Z   1
loop_
 _symmetry_equiv_pos_site_id
 _symmetry_equiv_pos_as_xyz
  1  'x, y, z'
loop_
 _atom_site_type_symbol
 _atom_site_label
 _atom_site_symmetry_multiplicity
 _atom_site_fract_x
 _atom_site_fract_y
 _atom_site_fract_z
 _atom_site_occupancy
  Y  Y0  1  0.390178  0.000000  0.250000  1
  Pa  Pa1  1  0.880383  0.826974  0.581630  1
  Pa  Pa2  1  0.120533  0.174070  0.414469  1
  Pa  Pa3  1  0.627795  0.000000  0.750000  1
  Pa  Pa4  1  0.880383  0.173026  0.918370  1
  Pa  Pa5  1  0.120533  0.825930  0.085531  1
  I  I6  1  0.108175  0.395195  0.907782  1
  I  I7  1  0.587524  0.757976  0.259391  1
  I  I8  1  0.118017  0.070185  0.578429  1
  I  I9  1  0.353826  0.376038  0.427820  1
  I  I10  1  0.120744  0.775017  0.243695  1
  I  I11  1  0.120744  0.224983  0.256305  1
  I  I12  1  0.118017  0.929815  0.921571  1
  I  I13  1  0.412952  0.234874  0.740883  1
  I  I14  1  0.893652  0.605578  0.091602  1
  I  I15  1  0.877389  0.228973  0.754788  1
  I  I16  1  0.412952  0.765126  0.759117  1
  I  I17  1  0.893652  0.394422  0.408398  1
  I  I18  1  0.587524  0.242024  0.240609  1
  I  I19  1  0.652728  0.076999  0.587046  1
  I  I20  1  0.340651  0.925195  0.413258  1
  I  I21  1  0.877389  0.771027  0.745212  1
  I  I22  1  0.108175  0.604805  0.592218  1
  I  I23  1  0.645188  0.377075  0.928790  1
  I  I24  1  0.340651  0.074805  0.086742  1
  I  I25  1  0.879250  0.068360  0.080266  1
  I  I26  1  0.645188  0.622925  0.571210  1
  I  I27  1  0.652728  0.923001  0.912954  1
  I  I28  1  0.353826  0.623962  0.072180  1
  I  I29  1  0.879250  0.931640  0.419734  1
