# generated using pymatgen
data_SrLi2TmPb2
_symmetry_space_group_name_H-M   'P 1'
_cell_length_a   4.87671000
_cell_length_b   4.87670935
_cell_length_c   7.76848700
_cell_angle_alpha   90.00000000
_cell_angle_beta   90.00000000
_cell_angle_gamma   120.00000439
_symmetry_Int_Tables_number   1
_chemical_formula_structural   SrLi2TmPb2
_chemical_formula_sum   'Sr1 Li2 Tm1 Pb2'
_cell_volume   160.00032291
_cell_formula_units_Z   1
loop_
 _symmetry_equiv_pos_site_id
 _symmetry_equiv_pos_as_xyz
  1  'x, y, z'
loop_
 _atom_site_type_symbol
 _atom_site_label
 _atom_site_symmetry_multiplicity
 _atom_site_fract_x
 _atom_site_fract_y
 _atom_site_fract_z
 _atom_site_occupancy
  Sr  Sr0  1  0.000000  0.000000  0.501527  1
  Li  Li1  1  0.666667  0.333333  0.200021  1
  Li  Li2  1  0.333333  0.666667  0.804291  1
  Tm  Tm3  1  0.000000  0.000000  0.002510  1
  Pb  Pb4  1  0.333333  0.666667  0.213616  1
  Pb  Pb5  1  0.666667  0.333333  0.792436  1
