# generated using pymatgen
data_DyY5Er4(In2Pt)4
_symmetry_space_group_name_H-M   'P 1'
_cell_length_a   3.62590000
_cell_length_b   8.17480028
_cell_length_c   18.22775902
_cell_angle_alpha   90.01743761
_cell_angle_beta   90.00000000
_cell_angle_gamma   90.00000000
_symmetry_Int_Tables_number   1
_chemical_formula_structural   DyY5Er4(In2Pt)4
_chemical_formula_sum   'Dy1 Y5 Er4 In8 Pt4'
_cell_volume   540.28913204
_cell_formula_units_Z   1
loop_
 _symmetry_equiv_pos_site_id
 _symmetry_equiv_pos_as_xyz
  1  'x, y, z'
loop_
 _atom_site_type_symbol
 _atom_site_label
 _atom_site_symmetry_multiplicity
 _atom_site_fract_x
 _atom_site_fract_y
 _atom_site_fract_z
 _atom_site_occupancy
  Dy  Dy0  1  0.000000  0.743204  0.279510  1
  Y  Y1  1  0.000000  0.242797  0.220269  1
  Y  Y2  1  0.000000  0.757225  0.779834  1
  Y  Y3  1  0.000000  0.257215  0.720159  1
  Y  Y4  1  0.000000  0.999997  0.000025  1
  Y  Y5  1  0.000000  0.500022  0.499963  1
  Er  Er6  1  0.000000  0.116639  0.414769  1
  Er  Er7  1  0.000000  0.883176  0.585121  1
  Er  Er8  1  0.000000  0.383186  0.914902  1
  Er  Er9  1  0.000000  0.616841  0.085228  1
  In  In10  1  0.500000  0.422665  0.351253  1
  In  In11  1  0.500000  0.577637  0.648795  1
  In  In12  1  0.500000  0.077612  0.851196  1
  In  In13  1  0.500000  0.922520  0.148651  1
  In  In14  1  0.500000  0.293807  0.066818  1
  In  In15  1  0.500000  0.706252  0.933271  1
  In  In16  1  0.500000  0.206093  0.566677  1
  In  In17  1  0.500000  0.793589  0.433104  1
  Pt  Pt18  1  0.500000  0.023788  0.304243  1
  Pt  Pt19  1  0.500000  0.974423  0.695646  1
  Pt  Pt20  1  0.500000  0.474483  0.804405  1
  Pt  Pt21  1  0.500000  0.526828  0.196162  1
