# generated using pymatgen
data_Hf6Zn2CN
_symmetry_space_group_name_H-M   'P 1'
_cell_length_a   5.92339288
_cell_length_b   5.92339331
_cell_length_c   8.90888570
_cell_angle_alpha   89.89958710
_cell_angle_beta   90.10041478
_cell_angle_gamma   147.29625275
_symmetry_Int_Tables_number   1
_chemical_formula_structural   Hf6Zn2CN
_chemical_formula_sum   'Hf6 Zn2 C1 N1'
_cell_volume   168.88652787
_cell_formula_units_Z   1
loop_
 _symmetry_equiv_pos_site_id
 _symmetry_equiv_pos_as_xyz
  1  'x, y, z'
loop_
 _atom_site_type_symbol
 _atom_site_label
 _atom_site_symmetry_multiplicity
 _atom_site_fract_x
 _atom_site_fract_y
 _atom_site_fract_z
 _atom_site_occupancy
  Hf  Hf0  1  0.628820  0.371180  0.952892  1
  Hf  Hf1  1  0.372951  0.627049  0.456123  1
  Hf  Hf2  1  0.371180  0.628820  0.047108  1
  Hf  Hf3  1  0.627049  0.372951  0.543877  1
  Hf  Hf4  1  0.953709  0.046291  0.750192  1
  Hf  Hf5  1  0.046291  0.953709  0.249808  1
  Zn  Zn6  1  0.253864  0.746136  0.748146  1
  Zn  Zn7  1  0.746136  0.253864  0.251854  1
  C  C8  1  0.000000  0.000000  0.000000  1
  N  N9  1  0.000000  0.000000  0.500000  1
