# generated using pymatgen
data_Hf6BI12
_symmetry_space_group_name_H-M   'P 1'
_cell_length_a   9.25696013
_cell_length_b   9.25696055
_cell_length_c   9.25696013
_cell_angle_alpha   106.89904376
_cell_angle_beta   106.89904301
_cell_angle_gamma   106.89903694
_symmetry_Int_Tables_number   1
_chemical_formula_structural   Hf6BI12
_chemical_formula_sum   'Hf6 B1 I12'
_cell_volume   662.42971705
_cell_formula_units_Z   1
loop_
 _symmetry_equiv_pos_site_id
 _symmetry_equiv_pos_as_xyz
  1  'x, y, z'
loop_
 _atom_site_type_symbol
 _atom_site_label
 _atom_site_symmetry_multiplicity
 _atom_site_fract_x
 _atom_site_fract_y
 _atom_site_fract_z
 _atom_site_occupancy
  Hf  Hf0  1  0.973612  0.733087  0.912658  1
  Hf  Hf1  1  0.266913  0.087342  0.026388  1
  Hf  Hf2  1  0.087342  0.026388  0.266913  1
  Hf  Hf3  1  0.912658  0.973612  0.733087  1
  Hf  Hf4  1  0.733087  0.912658  0.973612  1
  Hf  Hf5  1  0.026388  0.266913  0.087342  1
  B  B6  1  0.000000  0.000000  0.000000  1
  I  I7  1  0.922427  0.304571  0.776993  1
  I  I8  1  0.695429  0.223007  0.077573  1
  I  I9  1  0.438686  0.141102  0.365242  1
  I  I10  1  0.858898  0.634758  0.561314  1
  I  I11  1  0.223007  0.077573  0.695429  1
  I  I12  1  0.634758  0.561314  0.858898  1
  I  I13  1  0.365242  0.438686  0.141102  1
  I  I14  1  0.776993  0.922427  0.304571  1
  I  I15  1  0.141102  0.365242  0.438686  1
  I  I16  1  0.561314  0.858898  0.634758  1
  I  I17  1  0.304571  0.776993  0.922427  1
  I  I18  1  0.077573  0.695429  0.223007  1
