# generated using pymatgen
data_TmLuAsBr2
_symmetry_space_group_name_H-M   'P 1'
_cell_length_a   4.00732400
_cell_length_b   4.00732280
_cell_length_c   10.49803900
_cell_angle_alpha   90.00000000
_cell_angle_beta   90.00000000
_cell_angle_gamma   120.00000990
_symmetry_Int_Tables_number   1
_chemical_formula_structural   TmLuAsBr2
_chemical_formula_sum   'Tm1 Lu1 As1 Br2'
_cell_volume   145.99821801
_cell_formula_units_Z   1
loop_
 _symmetry_equiv_pos_site_id
 _symmetry_equiv_pos_as_xyz
  1  'x, y, z'
loop_
 _atom_site_type_symbol
 _atom_site_label
 _atom_site_symmetry_multiplicity
 _atom_site_fract_x
 _atom_site_fract_y
 _atom_site_fract_z
 _atom_site_occupancy
  Tm  Tm0  1  0.333333  0.666667  0.853655  1
  Lu  Lu1  1  0.666666  0.333335  0.145811  1
  As  As2  1  0.000000  0.000000  0.001591  1
  Br  Br3  1  0.333333  0.666667  0.314466  1
  Br  Br4  1  0.666666  0.333335  0.684478  1
