# generated using pymatgen
data_Nd3Sm(OsC2)2
_symmetry_space_group_name_H-M   'P 1'
_cell_length_a   5.37686200
_cell_length_b   6.55551549
_cell_length_c   10.09870786
_cell_angle_alpha   90.16066357
_cell_angle_beta   90.00000000
_cell_angle_gamma   90.00000000
_symmetry_Int_Tables_number   1
_chemical_formula_structural   Nd3Sm(OsC2)2
_chemical_formula_sum   'Nd6 Sm2 Os4 C8'
_cell_volume   355.95888634
_cell_formula_units_Z   2
loop_
 _symmetry_equiv_pos_site_id
 _symmetry_equiv_pos_as_xyz
  1  'x, y, z'
loop_
 _atom_site_type_symbol
 _atom_site_label
 _atom_site_symmetry_multiplicity
 _atom_site_fract_x
 _atom_site_fract_y
 _atom_site_fract_z
 _atom_site_occupancy
  Nd  Nd0  1  0.750000  0.479933  0.779030  1
  Nd  Nd1  1  0.250000  0.020420  0.282855  1
  Nd  Nd2  1  0.750000  0.979580  0.717145  1
  Nd  Nd3  1  0.250000  0.520067  0.220970  1
  Nd  Nd4  1  0.750000  0.806607  0.048925  1
  Nd  Nd5  1  0.250000  0.193393  0.951075  1
  Sm  Sm6  1  0.750000  0.310861  0.451109  1
  Sm  Sm7  1  0.250000  0.689139  0.548891  1
  Os  Os8  1  0.750000  0.768244  0.361267  1
  Os  Os9  1  0.250000  0.731952  0.858242  1
  Os  Os10  1  0.250000  0.231756  0.638733  1
  Os  Os11  1  0.750000  0.268048  0.141758  1
  C  C12  1  0.250000  0.968845  0.741626  1
  C  C13  1  0.750000  0.530252  0.245074  1
  C  C14  1  0.250000  0.469748  0.754926  1
  C  C15  1  0.750000  0.031155  0.258374  1
  C  C16  1  0.250000  0.319592  0.456606  1
  C  C17  1  0.750000  0.184685  0.958621  1
  C  C18  1  0.250000  0.815315  0.041379  1
  C  C19  1  0.750000  0.680408  0.543394  1
