# generated using pymatgen
data_Ho3Tm17Pt16
_symmetry_space_group_name_H-M   'P 1'
_cell_length_a   7.40493201
_cell_length_b   7.49055617
_cell_length_c   14.58860700
_cell_angle_alpha   90.00514782
_cell_angle_beta   89.99765553
_cell_angle_gamma   89.98874843
_symmetry_Int_Tables_number   1
_chemical_formula_structural   Ho3Tm17Pt16
_chemical_formula_sum   'Ho3 Tm17 Pt16'
_cell_volume   809.18710801
_cell_formula_units_Z   1
loop_
 _symmetry_equiv_pos_site_id
 _symmetry_equiv_pos_as_xyz
  1  'x, y, z'
loop_
 _atom_site_type_symbol
 _atom_site_label
 _atom_site_symmetry_multiplicity
 _atom_site_fract_x
 _atom_site_fract_y
 _atom_site_fract_z
 _atom_site_occupancy
  Ho  Ho0  1  0.998857  0.821090  0.092473  1
  Ho  Ho1  1  0.501161  0.320979  0.907299  1
  Ho  Ho2  1  0.498690  0.679087  0.407474  1
  Tm  Tm3  1  0.680996  0.989718  0.250149  1
  Tm  Tm4  1  0.180961  0.510311  0.250064  1
  Tm  Tm5  1  0.818908  0.489549  0.749683  1
  Tm  Tm6  1  0.318991  0.010299  0.749800  1
  Tm  Tm7  1  0.656611  0.833158  0.622329  1
  Tm  Tm8  1  0.156020  0.667139  0.877276  1
  Tm  Tm9  1  0.844588  0.332532  0.377806  1
  Tm  Tm10  1  0.344071  0.167248  0.122416  1
  Tm  Tm11  1  0.344147  0.167324  0.378043  1
  Tm  Tm12  1  0.844174  0.332477  0.122051  1
  Tm  Tm13  1  0.155739  0.667679  0.622031  1
  Tm  Tm14  1  0.655880  0.832400  0.877752  1
  Tm  Tm15  1  0.998112  0.820278  0.407024  1
  Tm  Tm16  1  0.497727  0.680368  0.093182  1
  Tm  Tm17  1  0.502105  0.319298  0.593218  1
  Tm  Tm18  1  0.002094  0.180697  0.906777  1
  Tm  Tm19  1  0.001756  0.179900  0.592795  1
  Pt  Pt20  1  0.818295  0.644140  0.250622  1
  Pt  Pt21  1  0.318320  0.855795  0.249856  1
  Pt  Pt22  1  0.682093  0.143921  0.749276  1
  Pt  Pt23  1  0.180839  0.355377  0.749540  1
  Pt  Pt24  1  0.546930  0.386034  0.249790  1
  Pt  Pt25  1  0.046949  0.113778  0.250294  1
  Pt  Pt26  1  0.953316  0.886804  0.750031  1
  Pt  Pt27  1  0.452716  0.613467  0.749545  1
  Pt  Pt28  1  0.815252  0.531441  0.542510  1
  Pt  Pt29  1  0.314686  0.966984  0.958083  1
  Pt  Pt30  1  0.685132  0.033494  0.458829  1
  Pt  Pt31  1  0.185205  0.467114  0.041450  1
  Pt  Pt32  1  0.183411  0.466584  0.458580  1
  Pt  Pt33  1  0.683233  0.032643  0.041713  1
  Pt  Pt34  1  0.315208  0.968522  0.542357  1
  Pt  Pt35  1  0.816831  0.532368  0.957880  1
