# generated using pymatgen
data_Pr4TmGa2Pb
_symmetry_space_group_name_H-M   'P 1'
_cell_length_a   8.18184100
_cell_length_b   8.18184100
_cell_length_c   14.37459400
_cell_angle_alpha   90.00000000
_cell_angle_beta   90.00000000
_cell_angle_gamma   90.00000000
_symmetry_Int_Tables_number   1
_chemical_formula_structural   Pr4TmGa2Pb
_chemical_formula_sum   'Pr16 Tm4 Ga8 Pb4'
_cell_volume   962.27157723
_cell_formula_units_Z   4
loop_
 _symmetry_equiv_pos_site_id
 _symmetry_equiv_pos_as_xyz
  1  'x, y, z'
loop_
 _atom_site_type_symbol
 _atom_site_label
 _atom_site_symmetry_multiplicity
 _atom_site_fract_x
 _atom_site_fract_y
 _atom_site_fract_z
 _atom_site_occupancy
  Pr  Pr0  1  0.836977  0.835355  0.892726  1
  Pr  Pr1  1  0.164645  0.163023  0.607274  1
  Pr  Pr2  1  0.836977  0.164645  0.392726  1
  Pr  Pr3  1  0.163023  0.835355  0.392726  1
  Pr  Pr4  1  0.335355  0.336977  0.392726  1
  Pr  Pr5  1  0.835355  0.163023  0.107274  1
  Pr  Pr6  1  0.335355  0.663023  0.892726  1
  Pr  Pr7  1  0.164645  0.836977  0.107274  1
  Pr  Pr8  1  0.336977  0.664645  0.607274  1
  Pr  Pr9  1  0.663023  0.664645  0.107274  1
  Pr  Pr10  1  0.663023  0.335355  0.607274  1
  Pr  Pr11  1  0.835355  0.836977  0.607274  1
  Pr  Pr12  1  0.664645  0.336977  0.892726  1
  Pr  Pr13  1  0.163023  0.164645  0.892726  1
  Pr  Pr14  1  0.664645  0.663023  0.392726  1
  Pr  Pr15  1  0.336977  0.335355  0.107274  1
  Tm  Tm16  1  0.500000  0.000000  0.752422  1
  Tm  Tm17  1  0.000000  0.500000  0.247578  1
  Tm  Tm18  1  0.000000  0.500000  0.747578  1
  Tm  Tm19  1  0.500000  0.000000  0.252422  1
  Ga  Ga20  1  0.633689  0.366311  0.250000  1
  Ga  Ga21  1  0.366311  0.633689  0.250000  1
  Ga  Ga22  1  0.133689  0.133689  0.250000  1
  Ga  Ga23  1  0.366311  0.366311  0.750000  1
  Ga  Ga24  1  0.133689  0.866311  0.750000  1
  Ga  Ga25  1  0.866311  0.866311  0.250000  1
  Ga  Ga26  1  0.633689  0.633689  0.750000  1
  Ga  Ga27  1  0.866311  0.133689  0.750000  1
  Pb  Pb28  1  0.000000  0.500000  0.000360  1
  Pb  Pb29  1  0.500000  0.000000  0.999640  1
  Pb  Pb30  1  0.500000  0.000000  0.499640  1
  Pb  Pb31  1  0.000000  0.500000  0.500360  1
