# generated using pymatgen
data_Ba2VIO4
_symmetry_space_group_name_H-M   'P 1'
_cell_length_a   9.71138700
_cell_length_b   9.13386894
_cell_length_c   9.83415789
_cell_angle_alpha   66.51504823
_cell_angle_beta   90.00000000
_cell_angle_gamma   90.00000000
_symmetry_Int_Tables_number   1
_chemical_formula_structural   Ba2VIO4
_chemical_formula_sum   'Ba8 V4 I4 O16'
_cell_volume   800.05635293
_cell_formula_units_Z   4
loop_
 _symmetry_equiv_pos_site_id
 _symmetry_equiv_pos_as_xyz
  1  'x, y, z'
loop_
 _atom_site_type_symbol
 _atom_site_label
 _atom_site_symmetry_multiplicity
 _atom_site_fract_x
 _atom_site_fract_y
 _atom_site_fract_z
 _atom_site_occupancy
  Ba  Ba0  1  0.306656  0.455982  0.153126  1
  Ba  Ba1  1  0.806656  0.044018  0.846874  1
  Ba  Ba2  1  0.693344  0.544018  0.846874  1
  Ba  Ba3  1  0.193344  0.955982  0.153126  1
  Ba  Ba4  1  0.326805  0.952725  0.746905  1
  Ba  Ba5  1  0.826805  0.547275  0.253095  1
  Ba  Ba6  1  0.673195  0.047275  0.253095  1
  Ba  Ba7  1  0.173195  0.452725  0.746905  1
  V  V8  1  0.052442  0.739522  0.958015  1
  V  V9  1  0.552442  0.760478  0.041985  1
  V  V10  1  0.947558  0.260478  0.041985  1
  V  V11  1  0.447558  0.239522  0.958015  1
  I  I12  1  0.901814  0.740220  0.506793  1
  I  I13  1  0.401814  0.759780  0.493207  1
  I  I14  1  0.098186  0.259780  0.493207  1
  I  I15  1  0.598186  0.240220  0.506793  1
  O  O16  1  0.083535  0.655898  0.148866  1
  O  O17  1  0.583535  0.844102  0.851134  1
  O  O18  1  0.916465  0.344102  0.851134  1
  O  O19  1  0.416465  0.155898  0.148866  1
  O  O20  1  0.121443  0.288363  0.066179  1
  O  O21  1  0.621443  0.211637  0.933821  1
  O  O22  1  0.878557  0.711637  0.933821  1
  O  O23  1  0.378557  0.788363  0.066179  1
  O  O24  1  0.672302  0.834930  0.130541  1
  O  O25  1  0.172302  0.665070  0.869459  1
  O  O26  1  0.327698  0.165070  0.869459  1
  O  O27  1  0.827698  0.334930  0.130541  1
  O  O28  1  0.417538  0.443420  0.895049  1
  O  O29  1  0.917538  0.056580  0.104951  1
  O  O30  1  0.582462  0.556580  0.104951  1
  O  O31  1  0.082462  0.943420  0.895049  1
