# generated using pymatgen
data_CaTb6SI12
_symmetry_space_group_name_H-M   'P 1'
_cell_length_a   9.66945174
_cell_length_b   9.66945214
_cell_length_c   9.66945100
_cell_angle_alpha   107.21833131
_cell_angle_beta   107.21832585
_cell_angle_gamma   107.21832022
_symmetry_Int_Tables_number   1
_chemical_formula_structural   CaTb6SI12
_chemical_formula_sum   'Ca1 Tb6 S1 I12'
_cell_volume   748.39472226
_cell_formula_units_Z   1
loop_
 _symmetry_equiv_pos_site_id
 _symmetry_equiv_pos_as_xyz
  1  'x, y, z'
loop_
 _atom_site_type_symbol
 _atom_site_label
 _atom_site_symmetry_multiplicity
 _atom_site_fract_x
 _atom_site_fract_y
 _atom_site_fract_z
 _atom_site_occupancy
  Ca  Ca0  1  0.500000  0.500000  0.500000  1
  Tb  Tb1  1  0.903535  0.703807  0.973691  1
  Tb  Tb2  1  0.973691  0.903535  0.703807  1
  Tb  Tb3  1  0.703807  0.973691  0.903535  1
  Tb  Tb4  1  0.096465  0.296193  0.026309  1
  Tb  Tb5  1  0.026309  0.096465  0.296193  1
  Tb  Tb6  1  0.296193  0.026309  0.096465  1
  S  S7  1  0.000000  0.000000  0.000000  1
  I  I8  1  0.622464  0.853117  0.542946  1
  I  I9  1  0.542946  0.622464  0.853117  1
  I  I10  1  0.853117  0.542946  0.622464  1
  I  I11  1  0.377536  0.146883  0.457054  1
  I  I12  1  0.457054  0.377536  0.146883  1
  I  I13  1  0.146883  0.457054  0.377536  1
  I  I14  1  0.683458  0.074325  0.225691  1
  I  I15  1  0.225691  0.683458  0.074325  1
  I  I16  1  0.074325  0.225691  0.683458  1
  I  I17  1  0.316542  0.925675  0.774309  1
  I  I18  1  0.774309  0.316542  0.925675  1
  I  I19  1  0.925675  0.774309  0.316542  1
