# generated using pymatgen
data_Lu3Pa(Al3Pt4)2
_symmetry_space_group_name_H-M   'P 1'
_cell_length_a   8.14251738
_cell_length_b   8.14251726
_cell_length_c   7.59460200
_cell_angle_alpha   90.35281823
_cell_angle_beta   89.64718177
_cell_angle_gamma   140.13007540
_symmetry_Int_Tables_number   1
_chemical_formula_structural   Lu3Pa(Al3Pt4)2
_chemical_formula_sum   'Lu3 Pa1 Al6 Pt8'
_cell_volume   322.77720205
_cell_formula_units_Z   1
loop_
 _symmetry_equiv_pos_site_id
 _symmetry_equiv_pos_as_xyz
  1  'x, y, z'
loop_
 _atom_site_type_symbol
 _atom_site_label
 _atom_site_symmetry_multiplicity
 _atom_site_fract_x
 _atom_site_fract_y
 _atom_site_fract_z
 _atom_site_occupancy
  Lu  Lu0  1  0.605019  0.394981  0.907120  1
  Lu  Lu1  1  0.396109  0.603891  0.095222  1
  Lu  Lu2  1  0.892604  0.107396  0.407642  1
  Pa  Pa3  1  0.103693  0.896307  0.594617  1
  Al  Al4  1  0.492079  0.507921  0.489546  1
  Al  Al5  1  0.998292  0.001708  0.003387  1
  Al  Al6  1  0.523626  0.976241  0.754338  1
  Al  Al7  1  0.980824  0.520949  0.247686  1
  Al  Al8  1  0.479051  0.019176  0.247686  1
  Al  Al9  1  0.023759  0.476374  0.754338  1
  Pt  Pt10  1  0.693719  0.807662  0.747697  1
  Pt  Pt11  1  0.812382  0.689756  0.250154  1
  Pt  Pt12  1  0.310244  0.187618  0.250154  1
  Pt  Pt13  1  0.192338  0.306281  0.747697  1
  Pt  Pt14  1  0.681935  0.318065  0.531760  1
  Pt  Pt15  1  0.316062  0.683938  0.473283  1
  Pt  Pt16  1  0.820534  0.179466  0.029869  1
  Pt  Pt17  1  0.177730  0.822270  0.967805  1
