# generated using pymatgen
data_Sr4InSnPd4
_symmetry_space_group_name_H-M   'P 1'
_cell_length_a   6.05413225
_cell_length_b   6.05413160
_cell_length_c   8.47196441
_cell_angle_alpha   78.56570932
_cell_angle_beta   78.56571130
_cell_angle_gamma   60.36239096
_symmetry_Int_Tables_number   1
_chemical_formula_structural   Sr4InSnPd4
_chemical_formula_sum   'Sr4 In1 Sn1 Pd4'
_cell_volume   262.70061917
_cell_formula_units_Z   1
loop_
 _symmetry_equiv_pos_site_id
 _symmetry_equiv_pos_as_xyz
  1  'x, y, z'
loop_
 _atom_site_type_symbol
 _atom_site_label
 _atom_site_symmetry_multiplicity
 _atom_site_fract_x
 _atom_site_fract_y
 _atom_site_fract_z
 _atom_site_occupancy
  Sr  Sr0  1  0.509989  0.787776  0.350581  1
  Sr  Sr1  1  0.212224  0.490011  0.149419  1
  Sr  Sr2  1  0.492725  0.210136  0.646626  1
  Sr  Sr3  1  0.789864  0.507275  0.853374  1
  In  In4  1  0.133318  0.866682  0.750000  1
  Sn  Sn5  1  0.864548  0.135452  0.250000  1
  Pd  Pd6  1  0.729856  0.003244  0.002148  1
  Pd  Pd7  1  0.996756  0.270144  0.497852  1
  Pd  Pd8  1  0.268598  0.997877  0.998203  1
  Pd  Pd9  1  0.002123  0.731402  0.501797  1
