# generated using pymatgen
data_Y3Th(NiB10)2
_symmetry_space_group_name_H-M   'P 1'
_cell_length_a   4.15495400
_cell_length_b   5.57733076
_cell_length_c   11.13300635
_cell_angle_alpha   90.13235130
_cell_angle_beta   90.00000000
_cell_angle_gamma   90.00000000
_symmetry_Int_Tables_number   1
_chemical_formula_structural   Y3Th(NiB10)2
_chemical_formula_sum   'Y3 Th1 Ni2 B20'
_cell_volume   257.99062152
_cell_formula_units_Z   1
loop_
 _symmetry_equiv_pos_site_id
 _symmetry_equiv_pos_as_xyz
  1  'x, y, z'
loop_
 _atom_site_type_symbol
 _atom_site_label
 _atom_site_symmetry_multiplicity
 _atom_site_fract_x
 _atom_site_fract_y
 _atom_site_fract_z
 _atom_site_occupancy
  Y  Y0  1  0.500000  0.313267  0.863407  1
  Y  Y1  1  0.500000  0.689327  0.134654  1
  Y  Y2  1  0.500000  0.812120  0.639451  1
  Th  Th3  1  0.500000  0.188272  0.362578  1
  Ni  Ni4  1  0.000000  0.499628  0.501027  1
  Ni  Ni5  1  0.000000  0.999527  0.999770  1
  B  B6  1  0.000000  0.124893  0.542129  1
  B  B7  1  0.000000  0.873511  0.459658  1
  B  B8  1  0.000000  0.625554  0.958644  1
  B  B9  1  0.000000  0.374562  0.039848  1
  B  B10  1  0.000000  0.158224  0.699432  1
  B  B11  1  0.000000  0.844517  0.302420  1
  B  B12  1  0.301069  0.202312  0.112822  1
  B  B13  1  0.301154  0.798218  0.885417  1
  B  B14  1  0.698831  0.699009  0.385139  1
  B  B15  1  0.698538  0.296906  0.615329  1
  B  B16  1  0.698846  0.798218  0.885417  1
  B  B17  1  0.698931  0.202312  0.112822  1
  B  B18  1  0.301462  0.296906  0.615329  1
  B  B19  1  0.301169  0.699009  0.385139  1
  B  B20  1  0.000000  0.032123  0.186912  1
  B  B21  1  0.000000  0.969171  0.813639  1
  B  B22  1  0.000000  0.531919  0.312646  1
  B  B23  1  0.000000  0.468855  0.687536  1
  B  B24  1  0.000000  0.343960  0.196684  1
  B  B25  1  0.000000  0.657684  0.802153  1
