# generated using pymatgen
data_Zr7Nb(Co4As3)4
_symmetry_space_group_name_H-M   'P 1'
_cell_length_a   12.54316339
_cell_length_b   12.54316264
_cell_length_c   3.79127500
_cell_angle_alpha   90.00000000
_cell_angle_beta   90.00000000
_cell_angle_gamma   120.10618813
_symmetry_Int_Tables_number   1
_chemical_formula_structural   Zr7Nb(Co4As3)4
_chemical_formula_sum   'Zr7 Nb1 Co16 As12'
_cell_volume   516.01740664
_cell_formula_units_Z   1
loop_
 _symmetry_equiv_pos_site_id
 _symmetry_equiv_pos_as_xyz
  1  'x, y, z'
loop_
 _atom_site_type_symbol
 _atom_site_label
 _atom_site_symmetry_multiplicity
 _atom_site_fract_x
 _atom_site_fract_y
 _atom_site_fract_z
 _atom_site_occupancy
  Zr  Zr0  1  0.821963  0.821963  0.500000  1
  Zr  Zr1  1  0.999926  0.175201  0.500000  1
  Zr  Zr2  1  0.557057  0.999648  0.000000  1
  Zr  Zr3  1  0.333969  0.665742  0.000000  1
  Zr  Zr4  1  0.665742  0.333969  0.000000  1
  Zr  Zr5  1  0.999648  0.557057  0.000000  1
  Zr  Zr6  1  0.175201  0.999926  0.500000  1
  Nb  Nb7  1  0.443407  0.443407  0.000000  1
  Co  Co8  1  0.626256  0.820257  0.000000  1
  Co  Co9  1  0.375271  0.198322  0.000000  1
  Co  Co10  1  0.000542  0.720148  0.500000  1
  Co  Co11  1  0.280881  0.280881  0.500000  1
  Co  Co12  1  0.876784  0.355735  0.500000  1
  Co  Co13  1  0.720148  0.000542  0.500000  1
  Co  Co14  1  0.820257  0.626256  0.000000  1
  Co  Co15  1  0.178606  0.805384  0.000000  1
  Co  Co16  1  0.355735  0.876784  0.500000  1
  Co  Co17  1  0.124980  0.479446  0.500000  1
  Co  Co18  1  0.642367  0.519161  0.500000  1
  Co  Co19  1  0.000250  0.000250  0.000000  1
  Co  Co20  1  0.519161  0.642367  0.500000  1
  Co  Co21  1  0.479446  0.124980  0.500000  1
  Co  Co22  1  0.198322  0.375271  0.000000  1
  Co  Co23  1  0.805384  0.178606  0.000000  1
  As  As24  1  0.002143  0.346455  0.000000  1
  As  As25  1  0.824595  0.515283  0.500000  1
  As  As26  1  0.689898  0.175113  0.500000  1
  As  As27  1  0.176989  0.176989  0.000000  1
  As  As28  1  0.648895  0.648895  0.000000  1
  As  As29  1  0.823762  0.999333  0.000000  1
  As  As30  1  0.515283  0.824595  0.500000  1
  As  As31  1  0.175113  0.689898  0.500000  1
  As  As32  1  0.346455  0.002143  0.000000  1
  As  As33  1  0.483512  0.312722  0.500000  1
  As  As34  1  0.999333  0.823762  0.000000  1
  As  As35  1  0.312722  0.483512  0.500000  1
