# generated using pymatgen
data_U4CoNi3
_symmetry_space_group_name_H-M   'P 1'
_cell_length_a   5.53399972
_cell_length_b   5.53400025
_cell_length_c   5.53399937
_cell_angle_alpha   109.82411332
_cell_angle_beta   109.82411129
_cell_angle_gamma   109.82411271
_symmetry_Int_Tables_number   1
_chemical_formula_structural   U4CoNi3
_chemical_formula_sum   'U4 Co1 Ni3'
_cell_volume   128.73265606
_cell_formula_units_Z   1
loop_
 _symmetry_equiv_pos_site_id
 _symmetry_equiv_pos_as_xyz
  1  'x, y, z'
loop_
 _atom_site_type_symbol
 _atom_site_label
 _atom_site_symmetry_multiplicity
 _atom_site_fract_x
 _atom_site_fract_y
 _atom_site_fract_z
 _atom_site_occupancy
  U  U0  1  0.080126  0.500851  0.996803  1
  U  U1  1  0.996803  0.080126  0.500851  1
  U  U2  1  0.500851  0.996803  0.080126  1
  U  U3  1  0.420417  0.420417  0.420417  1
  Co  Co4  1  0.896686  0.896686  0.896686  1
  Ni  Ni5  1  0.605484  0.498474  0.001160  1
  Ni  Ni6  1  0.001160  0.605484  0.498474  1
  Ni  Ni7  1  0.498474  0.001160  0.605484  1
