# generated using pymatgen
data_Gd5Y2Er5Co5Sn
_symmetry_space_group_name_H-M   'P 1'
_cell_length_a   8.28119637
_cell_length_b   8.27986968
_cell_length_c   8.28119644
_cell_angle_alpha   106.96207078
_cell_angle_beta   110.47279605
_cell_angle_gamma   111.01442274
_symmetry_Int_Tables_number   1
_chemical_formula_structural   Gd5Y2Er5Co5Sn
_chemical_formula_sum   'Gd5 Y2 Er5 Co5 Sn1'
_cell_volume   436.43634422
_cell_formula_units_Z   1
loop_
 _symmetry_equiv_pos_site_id
 _symmetry_equiv_pos_as_xyz
  1  'x, y, z'
loop_
 _atom_site_type_symbol
 _atom_site_label
 _atom_site_symmetry_multiplicity
 _atom_site_fract_x
 _atom_site_fract_y
 _atom_site_fract_z
 _atom_site_occupancy
  Gd  Gd0  1  0.693852  0.005268  0.311418  1
  Gd  Gd1  1  0.193525  0.207953  0.401857  1
  Gd  Gd2  1  0.806897  0.791838  0.599715  1
  Gd  Gd3  1  0.192123  0.791838  0.984940  1
  Gd  Gd4  1  0.806096  0.207953  0.014428  1
  Y  Y5  1  0.480061  0.294706  0.187250  1
  Y  Y6  1  0.107457  0.294706  0.814645  1
  Er  Er7  1  0.893609  0.706441  0.184179  1
  Er  Er8  1  0.522263  0.706441  0.812832  1
  Er  Er9  1  0.306095  0.622477  0.316384  1
  Er  Er10  1  0.307192  0.991387  0.684193  1
  Er  Er11  1  0.692142  0.378683  0.686540  1
  Co  Co12  1  0.502409  0.614901  0.112492  1
  Co  Co13  1  0.502297  0.389869  0.887573  1
  Co  Co14  1  0.375996  0.998834  0.377453  1
  Co  Co15  1  0.621383  0.998834  0.622838  1
  Co  Co16  1  0.996012  0.996620  0.000610  1
  Sn  Sn17  1  0.000592  0.501248  0.500655  1
