# generated using pymatgen
data_Dy2SiGe(Ru2C)2
_symmetry_space_group_name_H-M   'P 1'
_cell_length_a   5.89858089
_cell_length_b   5.89858082
_cell_length_c   7.23455200
_cell_angle_alpha   90.00000000
_cell_angle_beta   90.00000000
_cell_angle_gamma   141.99282931
_symmetry_Int_Tables_number   1
_chemical_formula_structural   Dy2SiGe(Ru2C)2
_chemical_formula_sum   'Dy2 Si1 Ge1 Ru4 C2'
_cell_volume   154.99520197
_cell_formula_units_Z   1
loop_
 _symmetry_equiv_pos_site_id
 _symmetry_equiv_pos_as_xyz
  1  'x, y, z'
loop_
 _atom_site_type_symbol
 _atom_site_label
 _atom_site_symmetry_multiplicity
 _atom_site_fract_x
 _atom_site_fract_y
 _atom_site_fract_z
 _atom_site_occupancy
  Dy  Dy0  1  0.546761  0.453239  0.250000  1
  Dy  Dy1  1  0.453641  0.546359  0.750000  1
  Si  Si2  1  0.267654  0.732346  0.250000  1
  Ge  Ge3  1  0.732944  0.267056  0.750000  1
  Ru  Ru4  1  0.837019  0.162981  0.061830  1
  Ru  Ru5  1  0.163014  0.836986  0.948799  1
  Ru  Ru6  1  0.163014  0.836986  0.551201  1
  Ru  Ru7  1  0.837019  0.162981  0.438170  1
  C  C8  1  0.999467  0.000533  0.000693  1
  C  C9  1  0.999467  0.000533  0.499307  1
