# generated using pymatgen
data_KErSiSe4
_symmetry_space_group_name_H-M   'P 1'
_cell_length_a   6.97683500
_cell_length_b   6.68765868
_cell_length_c   9.09704151
_cell_angle_alpha   72.35201559
_cell_angle_beta   90.00000000
_cell_angle_gamma   90.00000000
_symmetry_Int_Tables_number   1
_chemical_formula_structural   KErSiSe4
_chemical_formula_sum   'K2 Er2 Si2 Se8'
_cell_volume   404.47991871
_cell_formula_units_Z   2
loop_
 _symmetry_equiv_pos_site_id
 _symmetry_equiv_pos_as_xyz
  1  'x, y, z'
loop_
 _atom_site_type_symbol
 _atom_site_label
 _atom_site_symmetry_multiplicity
 _atom_site_fract_x
 _atom_site_fract_y
 _atom_site_fract_z
 _atom_site_occupancy
  K  K0  1  0.979447  0.732655  0.064543  1
  K  K1  1  0.479447  0.267345  0.935457  1
  Er  Er2  1  0.500291  0.231181  0.450175  1
  Er  Er3  1  0.000291  0.768819  0.549825  1
  Si  Si4  1  0.463138  0.780440  0.328138  1
  Si  Si5  1  0.963138  0.219560  0.671862  1
  Se  Se6  1  0.463454  0.577905  0.168680  1
  Se  Se7  1  0.226897  0.030277  0.280125  1
  Se  Se8  1  0.733634  0.984980  0.299031  1
  Se  Se9  1  0.900139  0.428417  0.427173  1
  Se  Se10  1  0.400139  0.571583  0.572827  1
  Se  Se11  1  0.233634  0.015020  0.700969  1
  Se  Se12  1  0.726897  0.969723  0.719875  1
  Se  Se13  1  0.963454  0.422095  0.831320  1
