# generated using pymatgen
data_K2Si3PbO9
_symmetry_space_group_name_H-M   'P 1'
_cell_length_a   7.08093900
_cell_length_b   7.08093957
_cell_length_c   10.33831200
_cell_angle_alpha   90.00000000
_cell_angle_beta   90.00000000
_cell_angle_gamma   119.99999268
_symmetry_Int_Tables_number   1
_chemical_formula_structural   K2Si3PbO9
_chemical_formula_sum   'K4 Si6 Pb2 O18'
_cell_volume   448.91285224
_cell_formula_units_Z   2
loop_
 _symmetry_equiv_pos_site_id
 _symmetry_equiv_pos_as_xyz
  1  'x, y, z'
loop_
 _atom_site_type_symbol
 _atom_site_label
 _atom_site_symmetry_multiplicity
 _atom_site_fract_x
 _atom_site_fract_y
 _atom_site_fract_z
 _atom_site_occupancy
  K  K0  1  0.333333  0.666667  0.057072  1
  K  K1  1  0.666667  0.333333  0.557072  1
  K  K2  1  0.333333  0.666667  0.442928  1
  K  K3  1  0.666667  0.333333  0.942928  1
  Si  Si4  1  0.610716  0.739199  0.750000  1
  Si  Si5  1  0.871517  0.610716  0.250000  1
  Si  Si6  1  0.739199  0.128483  0.250000  1
  Si  Si7  1  0.260801  0.871517  0.750000  1
  Si  Si8  1  0.128483  0.389284  0.750000  1
  Si  Si9  1  0.389284  0.260801  0.250000  1
  Pb  Pb10  1  0.000000  0.000000  0.000000  1
  Pb  Pb11  1  0.000000  0.000000  0.500000  1
  O  O12  1  0.265999  0.248425  0.384825  1
  O  O13  1  0.017574  0.265999  0.884825  1
  O  O14  1  0.248425  0.982426  0.884825  1
  O  O15  1  0.751575  0.017574  0.384825  1
  O  O16  1  0.982426  0.734001  0.384825  1
  O  O17  1  0.734001  0.751575  0.884825  1
  O  O18  1  0.734001  0.751575  0.615175  1
  O  O19  1  0.982426  0.734001  0.115175  1
  O  O20  1  0.751575  0.017574  0.115175  1
  O  O21  1  0.248425  0.982426  0.615175  1
  O  O22  1  0.017574  0.265999  0.615175  1
  O  O23  1  0.265999  0.248425  0.115175  1
  O  O24  1  0.486447  0.090833  0.250000  1
  O  O25  1  0.395614  0.486447  0.750000  1
  O  O26  1  0.090833  0.604386  0.750000  1
  O  O27  1  0.909167  0.395614  0.250000  1
  O  O28  1  0.604386  0.513553  0.250000  1
  O  O29  1  0.513553  0.909167  0.750000  1
