# generated using pymatgen
data_Ti9Re(Ge3N)2
_symmetry_space_group_name_H-M   'P 1'
_cell_length_a   7.50999800
_cell_length_b   7.50999746
_cell_length_c   5.22616800
_cell_angle_alpha   90.00000000
_cell_angle_beta   90.00000000
_cell_angle_gamma   119.99999359
_symmetry_Int_Tables_number   1
_chemical_formula_structural   Ti9Re(Ge3N)2
_chemical_formula_sum   'Ti9 Re1 Ge6 N2'
_cell_volume   255.26639050
_cell_formula_units_Z   1
loop_
 _symmetry_equiv_pos_site_id
 _symmetry_equiv_pos_as_xyz
  1  'x, y, z'
loop_
 _atom_site_type_symbol
 _atom_site_label
 _atom_site_symmetry_multiplicity
 _atom_site_fract_x
 _atom_site_fract_y
 _atom_site_fract_z
 _atom_site_occupancy
  Ti  Ti0  1  0.225248  0.000278  0.750348  1
  Ti  Ti1  1  0.775030  0.000278  0.249652  1
  Ti  Ti2  1  0.999722  0.224970  0.750348  1
  Ti  Ti3  1  0.999722  0.774752  0.249652  1
  Ti  Ti4  1  0.775030  0.774752  0.750348  1
  Ti  Ti5  1  0.225248  0.224970  0.249652  1
  Ti  Ti6  1  0.666667  0.333333  0.500000  1
  Ti  Ti7  1  0.666667  0.333333  0.000000  1
  Ti  Ti8  1  0.333333  0.666667  0.000000  1
  Re  Re9  1  0.333333  0.666667  0.500000  1
  Ge  Ge10  1  0.593127  0.000088  0.748472  1
  Ge  Ge11  1  0.406961  0.000088  0.251528  1
  Ge  Ge12  1  0.999912  0.593039  0.748472  1
  Ge  Ge13  1  0.999912  0.406873  0.251528  1
  Ge  Ge14  1  0.406961  0.406873  0.748472  1
  Ge  Ge15  1  0.593127  0.593039  0.251528  1
  N  N16  1  0.000000  0.000000  0.500000  1
  N  N17  1  0.000000  0.000000  0.000000  1
