# generated using pymatgen
data_Er12Co4TcBi
_symmetry_space_group_name_H-M   'P 1'
_cell_length_a   8.26229768
_cell_length_b   8.26229687
_cell_length_c   8.26229698
_cell_angle_alpha   110.51567665
_cell_angle_beta   111.72360554
_cell_angle_gamma   106.22480325
_symmetry_Int_Tables_number   1
_chemical_formula_structural   Er12Co4TcBi
_chemical_formula_sum   'Er12 Co4 Tc1 Bi1'
_cell_volume   433.10168355
_cell_formula_units_Z   1
loop_
 _symmetry_equiv_pos_site_id
 _symmetry_equiv_pos_as_xyz
  1  'x, y, z'
loop_
 _atom_site_type_symbol
 _atom_site_label
 _atom_site_symmetry_multiplicity
 _atom_site_fract_x
 _atom_site_fract_y
 _atom_site_fract_z
 _atom_site_occupancy
  Er  Er0  1  0.283137  0.182273  0.465409  1
  Er  Er1  1  0.716863  0.817727  0.534591  1
  Er  Er2  1  0.283137  0.817727  0.100864  1
  Er  Er3  1  0.716863  0.182273  0.899136  1
  Er  Er4  1  0.618852  0.310567  0.308285  1
  Er  Er5  1  0.381148  0.689433  0.691715  1
  Er  Er6  1  0.002284  0.310567  0.691715  1
  Er  Er7  1  0.997716  0.689433  0.308285  1
  Er  Er8  1  0.213981  0.410987  0.197006  1
  Er  Er9  1  0.786019  0.589013  0.802994  1
  Er  Er10  1  0.213981  0.016975  0.802994  1
  Er  Er11  1  0.786019  0.983025  0.197006  1
  Co  Co12  1  0.000000  0.377405  0.377405  1
  Co  Co13  1  0.000000  0.622595  0.622595  1
  Co  Co14  1  0.388696  0.888696  0.500000  1
  Co  Co15  1  0.611304  0.111304  0.500000  1
  Tc  Tc16  1  0.000000  0.000000  0.000000  1
  Bi  Bi17  1  0.500000  0.500000  0.000000  1
