# generated using pymatgen
data_Zr8Tl4CuNi7
_symmetry_space_group_name_H-M   'P 1'
_cell_length_a   7.23793912
_cell_length_b   7.23998294
_cell_length_c   6.71283114
_cell_angle_alpha   89.99765194
_cell_angle_beta   89.97711926
_cell_angle_gamma   89.50346377
_symmetry_Int_Tables_number   1
_chemical_formula_structural   Zr8Tl4CuNi7
_chemical_formula_sum   'Zr8 Tl4 Cu1 Ni7'
_cell_volume   351.75627023
_cell_formula_units_Z   1
loop_
 _symmetry_equiv_pos_site_id
 _symmetry_equiv_pos_as_xyz
  1  'x, y, z'
loop_
 _atom_site_type_symbol
 _atom_site_label
 _atom_site_symmetry_multiplicity
 _atom_site_fract_x
 _atom_site_fract_y
 _atom_site_fract_z
 _atom_site_occupancy
  Zr  Zr0  1  0.661595  0.343355  0.995708  1
  Zr  Zr1  1  0.343391  0.661566  0.995692  1
  Zr  Zr2  1  0.840251  0.840271  0.499281  1
  Zr  Zr3  1  0.153588  0.153617  0.504513  1
  Zr  Zr4  1  0.173175  0.173223  0.997476  1
  Zr  Zr5  1  0.822609  0.822630  0.000231  1
  Zr  Zr6  1  0.323366  0.682772  0.503700  1
  Zr  Zr7  1  0.682771  0.323339  0.503691  1
  Tl  Tl8  1  0.500181  0.000074  0.249527  1
  Tl  Tl9  1  0.000003  0.500134  0.249499  1
  Tl  Tl10  1  0.002616  0.500745  0.750561  1
  Tl  Tl11  1  0.500777  0.002666  0.750559  1
  Cu  Cu12  1  0.375490  0.375488  0.279344  1
  Ni  Ni13  1  0.621660  0.621671  0.272798  1
  Ni  Ni14  1  0.124159  0.874918  0.225561  1
  Ni  Ni15  1  0.874985  0.124120  0.225453  1
  Ni  Ni16  1  0.624709  0.624699  0.725675  1
  Ni  Ni17  1  0.376195  0.376192  0.725760  1
  Ni  Ni18  1  0.123430  0.875081  0.772485  1
  Ni  Ni19  1  0.875048  0.123438  0.772486  1
