# generated using pymatgen
data_Yb3Pr5Tl4
_symmetry_space_group_name_H-M   'P 1'
_cell_length_a   7.03808918
_cell_length_b   5.55604500
_cell_length_c   9.69174153
_cell_angle_alpha   90.00000000
_cell_angle_beta   90.03054820
_cell_angle_gamma   90.00000000
_symmetry_Int_Tables_number   1
_chemical_formula_structural   Yb3Pr5Tl4
_chemical_formula_sum   'Yb3 Pr5 Tl4'
_cell_volume   378.98522708
_cell_formula_units_Z   1
loop_
 _symmetry_equiv_pos_site_id
 _symmetry_equiv_pos_as_xyz
  1  'x, y, z'
loop_
 _atom_site_type_symbol
 _atom_site_label
 _atom_site_symmetry_multiplicity
 _atom_site_fract_x
 _atom_site_fract_y
 _atom_site_fract_z
 _atom_site_occupancy
  Yb  Yb0  1  0.500459  0.750001  0.242185  1
  Yb  Yb1  1  0.500352  0.250002  0.758141  1
  Yb  Yb2  1  0.000684  0.750001  0.258097  1
  Pr  Pr3  1  0.752739  0.250002  0.086129  1
  Pr  Pr4  1  0.733604  0.750001  0.580528  1
  Pr  Pr5  1  0.264475  0.250002  0.413476  1
  Pr  Pr6  1  0.246105  0.750001  0.919852  1
  Pr  Pr7  1  0.000903  0.250002  0.741994  1
  Tl  Tl8  1  0.248701  0.250002  0.083484  1
  Tl  Tl9  1  0.241793  0.750001  0.586347  1
  Tl  Tl10  1  0.759362  0.250002  0.416183  1
  Tl  Tl11  1  0.750820  0.750001  0.913584  1
