# generated using pymatgen
data_Tb3Ho3Al24(OsRh)4
_symmetry_space_group_name_H-M   'P 1'
_cell_length_a   8.77600595
_cell_length_b   8.82033936
_cell_length_c   9.56728600
_cell_angle_alpha   90.00000000
_cell_angle_beta   90.00000000
_cell_angle_gamma   119.49636123
_symmetry_Int_Tables_number   1
_chemical_formula_structural   Tb3Ho3Al24(OsRh)4
_chemical_formula_sum   'Tb3 Ho3 Al24 Os4 Rh4'
_cell_volume   644.58966810
_cell_formula_units_Z   1
loop_
 _symmetry_equiv_pos_site_id
 _symmetry_equiv_pos_as_xyz
  1  'x, y, z'
loop_
 _atom_site_type_symbol
 _atom_site_label
 _atom_site_symmetry_multiplicity
 _atom_site_fract_x
 _atom_site_fract_y
 _atom_site_fract_z
 _atom_site_occupancy
  Tb  Tb0  1  0.190457  0.382086  0.250000  1
  Tb  Tb1  1  0.809486  0.617843  0.750000  1
  Tb  Tb2  1  0.614422  0.813609  0.250000  1
  Ho  Ho3  1  0.386472  0.186688  0.750000  1
  Ho  Ho4  1  0.199020  0.812544  0.250000  1
  Ho  Ho5  1  0.800763  0.187329  0.750000  1
  Al  Al6  1  0.333156  0.667609  0.025059  1
  Al  Al7  1  0.666533  0.332241  0.974666  1
  Al  Al8  1  0.666533  0.332241  0.525334  1
  Al  Al9  1  0.333156  0.667609  0.474941  1
  Al  Al10  1  0.162926  0.325520  0.577655  1
  Al  Al11  1  0.837204  0.674394  0.422498  1
  Al  Al12  1  0.672210  0.836766  0.577053  1
  Al  Al13  1  0.837204  0.674394  0.077502  1
  Al  Al14  1  0.327795  0.163235  0.423227  1
  Al  Al15  1  0.162926  0.325520  0.922345  1
  Al  Al16  1  0.164702  0.836659  0.576933  1
  Al  Al17  1  0.327795  0.163235  0.076773  1
  Al  Al18  1  0.835449  0.163604  0.423225  1
  Al  Al19  1  0.672210  0.836766  0.922947  1
  Al  Al20  1  0.835449  0.163604  0.076775  1
  Al  Al21  1  0.164702  0.836659  0.923067  1
  Al  Al22  1  0.562966  0.127465  0.250000  1
  Al  Al23  1  0.436930  0.872857  0.750000  1
  Al  Al24  1  0.878322  0.440706  0.250000  1
  Al  Al25  1  0.121715  0.559275  0.750000  1
  Al  Al26  1  0.562169  0.439823  0.250000  1
  Al  Al27  1  0.437755  0.559755  0.750000  1
  Al  Al28  1  0.001080  0.002071  0.250000  1
  Al  Al29  1  0.999318  0.998120  0.750000  1
  Os  Os30  1  0.499822  0.000204  0.999750  1
  Os  Os31  1  0.499822  0.000204  0.500250  1
  Os  Os32  1  0.000069  0.000052  0.999939  1
  Os  Os33  1  0.000069  0.000052  0.500061  1
  Rh  Rh34  1  0.999851  0.499936  0.999944  1
  Rh  Rh35  1  0.499846  0.499695  0.999833  1
  Rh  Rh36  1  0.999851  0.499936  0.500056  1
  Rh  Rh37  1  0.499846  0.499695  0.500167  1
