# generated using pymatgen
data_Gd3Ga2Sn
_symmetry_space_group_name_H-M   'P 1'
_cell_length_a   6.39981200
_cell_length_b   9.35498800
_cell_length_c   9.91719800
_cell_angle_alpha   90.00000000
_cell_angle_beta   90.00000000
_cell_angle_gamma   90.00000000
_symmetry_Int_Tables_number   1
_chemical_formula_structural   Gd3Ga2Sn
_chemical_formula_sum   'Gd12 Ga8 Sn4'
_cell_volume   593.74427526
_cell_formula_units_Z   4
loop_
 _symmetry_equiv_pos_site_id
 _symmetry_equiv_pos_as_xyz
  1  'x, y, z'
loop_
 _atom_site_type_symbol
 _atom_site_label
 _atom_site_symmetry_multiplicity
 _atom_site_fract_x
 _atom_site_fract_y
 _atom_site_fract_z
 _atom_site_occupancy
  Gd  Gd0  1  0.000000  0.750000  0.122261  1
  Gd  Gd1  1  0.500000  0.250000  0.877739  1
  Gd  Gd2  1  0.000000  0.250000  0.877739  1
  Gd  Gd3  1  0.500000  0.750000  0.122261  1
  Gd  Gd4  1  0.750000  0.476870  0.608750  1
  Gd  Gd5  1  0.250000  0.523130  0.391250  1
  Gd  Gd6  1  0.750000  0.976870  0.391250  1
  Gd  Gd7  1  0.250000  0.023130  0.608750  1
  Gd  Gd8  1  0.750000  0.369318  0.204978  1
  Gd  Gd9  1  0.250000  0.630682  0.795022  1
  Gd  Gd10  1  0.750000  0.869318  0.795022  1
  Gd  Gd11  1  0.250000  0.130682  0.204978  1
  Ga  Ga12  1  0.000000  0.750000  0.548880  1
  Ga  Ga13  1  0.500000  0.250000  0.451120  1
  Ga  Ga14  1  0.000000  0.250000  0.451120  1
  Ga  Ga15  1  0.500000  0.750000  0.548880  1
  Ga  Ga16  1  0.750000  0.140827  0.642006  1
  Ga  Ga17  1  0.250000  0.859173  0.357994  1
  Ga  Ga18  1  0.750000  0.640827  0.357994  1
  Ga  Ga19  1  0.250000  0.359173  0.642006  1
  Sn  Sn20  1  0.750000  0.053439  0.088559  1
  Sn  Sn21  1  0.250000  0.946561  0.911441  1
  Sn  Sn22  1  0.750000  0.553439  0.911441  1
  Sn  Sn23  1  0.250000  0.446561  0.088559  1
