# generated using pymatgen
data_B4PdPt3Rh4
_symmetry_space_group_name_H-M   'P 1'
_cell_length_a   6.11520483
_cell_length_b   5.51745079
_cell_length_c   6.76070467
_cell_angle_alpha   58.34777823
_cell_angle_beta   50.40625231
_cell_angle_gamma   69.96647466
_symmetry_Int_Tables_number   1
_chemical_formula_structural   B4PdPt3Rh4
_chemical_formula_sum   'B4 Pd1 Pt3 Rh4'
_cell_volume   149.61808840
_cell_formula_units_Z   1
loop_
 _symmetry_equiv_pos_site_id
 _symmetry_equiv_pos_as_xyz
  1  'x, y, z'
loop_
 _atom_site_type_symbol
 _atom_site_label
 _atom_site_symmetry_multiplicity
 _atom_site_fract_x
 _atom_site_fract_y
 _atom_site_fract_z
 _atom_site_occupancy
  B  B0  1  0.458445  0.104488  0.997539  1
  B  B1  1  0.807784  0.248524  0.149690  1
  B  B2  1  0.107409  0.454424  0.436089  1
  B  B3  1  0.254949  0.814103  0.794276  1
  Pd  Pd4  1  0.025598  0.629952  0.711186  1
  Pt  Pt5  1  0.536500  0.616282  0.225547  1
  Pt  Pt6  1  0.616131  0.536632  0.619869  1
  Pt  Pt7  1  0.626188  0.023465  0.635167  1
  Rh  Rh8  1  0.096719  0.409984  0.141357  1
  Rh  Rh9  1  0.107079  0.899499  0.152226  1
  Rh  Rh10  1  0.408878  0.098118  0.350021  1
  Rh  Rh11  1  0.899093  0.109298  0.842260  1
