# generated using pymatgen
data_Dy2YV(Co4P3)2
_symmetry_space_group_name_H-M   'P 1'
_cell_length_a   3.69551800
_cell_length_b   10.57052500
_cell_length_c   12.25251700
_cell_angle_alpha   90.00000000
_cell_angle_beta   90.00000000
_cell_angle_gamma   90.00000000
_symmetry_Int_Tables_number   1
_chemical_formula_structural   Dy2YV(Co4P3)2
_chemical_formula_sum   'Dy4 Y2 V2 Co16 P12'
_cell_volume   478.62699923
_cell_formula_units_Z   2
loop_
 _symmetry_equiv_pos_site_id
 _symmetry_equiv_pos_as_xyz
  1  'x, y, z'
loop_
 _atom_site_type_symbol
 _atom_site_label
 _atom_site_symmetry_multiplicity
 _atom_site_fract_x
 _atom_site_fract_y
 _atom_site_fract_z
 _atom_site_occupancy
  Dy  Dy0  1  0.500000  0.818333  0.204456  1
  Dy  Dy1  1  0.500000  0.181667  0.204456  1
  Dy  Dy2  1  0.000000  0.681667  0.795544  1
  Dy  Dy3  1  0.000000  0.318333  0.795544  1
  Y  Y4  1  0.000000  0.500000  0.523094  1
  Y  Y5  1  0.500000  0.000000  0.476906  1
  V  V6  1  0.500000  0.500000  0.154011  1
  V  V7  1  0.000000  0.000000  0.845989  1
  Co  Co8  1  0.500000  0.500000  0.702181  1
  Co  Co9  1  0.000000  0.000000  0.297819  1
  Co  Co10  1  0.000000  0.500000  0.986593  1
  Co  Co11  1  0.500000  0.000000  0.013407  1
  Co  Co12  1  0.500000  0.332474  0.992946  1
  Co  Co13  1  0.500000  0.667526  0.992946  1
  Co  Co14  1  0.000000  0.167526  0.007054  1
  Co  Co15  1  0.000000  0.832474  0.007054  1
  Co  Co16  1  0.500000  0.295975  0.431119  1
  Co  Co17  1  0.500000  0.704025  0.431119  1
  Co  Co18  1  0.000000  0.204025  0.568881  1
  Co  Co19  1  0.000000  0.795975  0.568881  1
  Co  Co20  1  0.500000  0.878939  0.707894  1
  Co  Co21  1  0.500000  0.121061  0.707894  1
  Co  Co22  1  0.000000  0.621061  0.292106  1
  Co  Co23  1  0.000000  0.378939  0.292106  1
  P  P24  1  0.500000  0.500000  0.882083  1
  P  P25  1  0.000000  0.000000  0.117917  1
  P  P26  1  0.500000  0.500000  0.346641  1
  P  P27  1  0.000000  0.000000  0.653359  1
  P  P28  1  0.500000  0.310788  0.615990  1
  P  P29  1  0.500000  0.689212  0.615990  1
  P  P30  1  0.000000  0.189212  0.384010  1
  P  P31  1  0.000000  0.810788  0.384010  1
  P  P32  1  0.500000  0.846124  0.892247  1
  P  P33  1  0.500000  0.153876  0.892247  1
  P  P34  1  0.000000  0.653876  0.107753  1
  P  P35  1  0.000000  0.346124  0.107753  1
