# generated using pymatgen
data_YbEr11Tc4
_symmetry_space_group_name_H-M   'P 1'
_cell_length_a   6.20559715
_cell_length_b   7.41742239
_cell_length_c   9.06482200
_cell_angle_alpha   90.00000000
_cell_angle_beta   90.00000000
_cell_angle_gamma   90.55393094
_symmetry_Int_Tables_number   1
_chemical_formula_structural   YbEr11Tc4
_chemical_formula_sum   'Yb1 Er11 Tc4'
_cell_volume   417.23004384
_cell_formula_units_Z   1
loop_
 _symmetry_equiv_pos_site_id
 _symmetry_equiv_pos_as_xyz
  1  'x, y, z'
loop_
 _atom_site_type_symbol
 _atom_site_label
 _atom_site_symmetry_multiplicity
 _atom_site_fract_x
 _atom_site_fract_y
 _atom_site_fract_z
 _atom_site_occupancy
  Yb  Yb0  1  0.375523  0.963838  0.750000  1
  Er  Er1  1  0.342383  0.672650  0.062509  1
  Er  Er2  1  0.153091  0.177763  0.436791  1
  Er  Er3  1  0.659296  0.327431  0.563746  1
  Er  Er4  1  0.844911  0.822018  0.937313  1
  Er  Er5  1  0.659296  0.327431  0.936254  1
  Er  Er6  1  0.844911  0.822018  0.562687  1
  Er  Er7  1  0.342383  0.672650  0.437491  1
  Er  Er8  1  0.153091  0.177763  0.063209  1
  Er  Er9  1  0.872327  0.541929  0.250000  1
  Er  Er10  1  0.629183  0.041396  0.250000  1
  Er  Er11  1  0.124929  0.457503  0.750000  1
  Tc  Tc12  1  0.047063  0.885144  0.250000  1
  Tc  Tc13  1  0.456694  0.383682  0.250000  1
  Tc  Tc14  1  0.950458  0.115662  0.750000  1
  Tc  Tc15  1  0.544457  0.611121  0.750000  1
