# generated using pymatgen
data_Tb7Yb(SiPt)8
_symmetry_space_group_name_H-M   'P 1'
_cell_length_a   4.31416000
_cell_length_b   7.41989660
_cell_length_c   14.12653200
_cell_angle_alpha   89.97702731
_cell_angle_beta   90.00000000
_cell_angle_gamma   90.00000000
_symmetry_Int_Tables_number   1
_chemical_formula_structural   Tb7Yb(SiPt)8
_chemical_formula_sum   'Tb7 Yb1 Si8 Pt8'
_cell_volume   452.19902697
_cell_formula_units_Z   1
loop_
 _symmetry_equiv_pos_site_id
 _symmetry_equiv_pos_as_xyz
  1  'x, y, z'
loop_
 _atom_site_type_symbol
 _atom_site_label
 _atom_site_symmetry_multiplicity
 _atom_site_fract_x
 _atom_site_fract_y
 _atom_site_fract_z
 _atom_site_occupancy
  Tb  Tb0  1  0.000000  0.200708  0.751870  1
  Tb  Tb1  1  0.500000  0.794478  0.250809  1
  Tb  Tb2  1  0.000000  0.205868  0.249100  1
  Tb  Tb3  1  0.500000  0.705728  0.998073  1
  Tb  Tb4  1  0.000000  0.293260  0.500783  1
  Tb  Tb5  1  0.500000  0.699413  0.501402  1
  Tb  Tb6  1  0.000000  0.301452  0.999767  1
  Yb  Yb7  1  0.500000  0.795465  0.748225  1
  Si  Si8  1  0.500000  0.409285  0.652555  1
  Si  Si9  1  0.000000  0.591228  0.851120  1
  Si  Si10  1  0.500000  0.410277  0.349971  1
  Si  Si11  1  0.000000  0.590663  0.148617  1
  Si  Si12  1  0.500000  0.091765  0.091578  1
  Si  Si13  1  0.000000  0.908530  0.407878  1
  Si  Si14  1  0.500000  0.089982  0.908517  1
  Si  Si15  1  0.000000  0.909900  0.591048  1
  Pt  Pt16  1  0.500000  0.079829  0.606731  1
  Pt  Pt17  1  0.000000  0.919737  0.893085  1
  Pt  Pt18  1  0.500000  0.078167  0.391319  1
  Pt  Pt19  1  0.000000  0.923256  0.108412  1
  Pt  Pt20  1  0.500000  0.420662  0.154005  1
  Pt  Pt21  1  0.000000  0.580757  0.348076  1
  Pt  Pt22  1  0.500000  0.418562  0.844688  1
  Pt  Pt23  1  0.000000  0.581028  0.652371  1
