# generated using pymatgen
data_Er2Ga5Co3
_symmetry_space_group_name_H-M   'P 1'
_cell_length_a   8.31155152
_cell_length_b   8.31155122
_cell_length_c   5.46895582
_cell_angle_alpha   70.79445072
_cell_angle_beta   70.79446066
_cell_angle_gamma   97.03841328
_symmetry_Int_Tables_number   1
_chemical_formula_structural   Er2Ga5Co3
_chemical_formula_sum   'Er4 Ga10 Co6'
_cell_volume   325.44819622
_cell_formula_units_Z   2
loop_
 _symmetry_equiv_pos_site_id
 _symmetry_equiv_pos_as_xyz
  1  'x, y, z'
loop_
 _atom_site_type_symbol
 _atom_site_label
 _atom_site_symmetry_multiplicity
 _atom_site_fract_x
 _atom_site_fract_y
 _atom_site_fract_z
 _atom_site_occupancy
  Er  Er0  1  0.424468  0.130630  0.722087  1
  Er  Er1  1  0.130630  0.424468  0.222087  1
  Er  Er2  1  0.575532  0.869370  0.277913  1
  Er  Er3  1  0.869370  0.575532  0.777913  1
  Ga  Ga4  1  0.264425  0.101727  0.316659  1
  Ga  Ga5  1  0.898273  0.735575  0.183341  1
  Ga  Ga6  1  0.735575  0.898273  0.683341  1
  Ga  Ga7  1  0.101727  0.264425  0.816659  1
  Ga  Ga8  1  0.202209  0.797791  0.750000  1
  Ga  Ga9  1  0.797791  0.202209  0.250000  1
  Ga  Ga10  1  0.500024  0.499976  0.750000  1
  Ga  Ga11  1  0.499976  0.500024  0.250000  1
  Ga  Ga12  1  0.797901  0.202099  0.750000  1
  Ga  Ga13  1  0.202099  0.797901  0.250000  1
  Co  Co14  1  0.000025  0.999975  0.750000  1
  Co  Co15  1  0.999975  0.000025  0.250000  1
  Co  Co16  1  0.734018  0.431732  0.417353  1
  Co  Co17  1  0.431732  0.734018  0.917353  1
  Co  Co18  1  0.265982  0.568268  0.582647  1
  Co  Co19  1  0.568268  0.265982  0.082647  1
