# generated using pymatgen
data_Ac2TlSi2
_symmetry_space_group_name_H-M   'P 1'
_cell_length_a   7.96650200
_cell_length_b   7.96650200
_cell_length_c   4.55667200
_cell_angle_alpha   90.00000000
_cell_angle_beta   90.00000000
_cell_angle_gamma   90.00000000
_symmetry_Int_Tables_number   1
_chemical_formula_structural   Ac2TlSi2
_chemical_formula_sum   'Ac4 Tl2 Si4'
_cell_volume   289.18989074
_cell_formula_units_Z   2
loop_
 _symmetry_equiv_pos_site_id
 _symmetry_equiv_pos_as_xyz
  1  'x, y, z'
loop_
 _atom_site_type_symbol
 _atom_site_label
 _atom_site_symmetry_multiplicity
 _atom_site_fract_x
 _atom_site_fract_y
 _atom_site_fract_z
 _atom_site_occupancy
  Ac  Ac0  1  0.682149  0.182149  0.500000  1
  Ac  Ac1  1  0.317851  0.817851  0.500000  1
  Ac  Ac2  1  0.182149  0.317851  0.500000  1
  Ac  Ac3  1  0.817851  0.682149  0.500000  1
  Tl  Tl4  1  0.500000  0.500000  0.000000  1
  Tl  Tl5  1  0.000000  0.000000  0.000000  1
  Si  Si6  1  0.106502  0.606502  0.000000  1
  Si  Si7  1  0.893498  0.393498  0.000000  1
  Si  Si8  1  0.606502  0.893498  0.000000  1
  Si  Si9  1  0.393498  0.106502  0.000000  1
