# generated using pymatgen
data_Lu12Fe2Sn2Ru
_symmetry_space_group_name_H-M   'P 1'
_cell_length_a   8.20269057
_cell_length_b   8.20274182
_cell_length_c   8.20269084
_cell_angle_alpha   108.65980808
_cell_angle_beta   108.65980864
_cell_angle_gamma   111.10625878
_symmetry_Int_Tables_number   1
_chemical_formula_structural   Lu12Fe2Sn2Ru
_chemical_formula_sum   'Lu12 Fe2 Sn2 Ru1'
_cell_volume   424.60492419
_cell_formula_units_Z   1
loop_
 _symmetry_equiv_pos_site_id
 _symmetry_equiv_pos_as_xyz
  1  'x, y, z'
loop_
 _atom_site_type_symbol
 _atom_site_label
 _atom_site_symmetry_multiplicity
 _atom_site_fract_x
 _atom_site_fract_y
 _atom_site_fract_z
 _atom_site_occupancy
  Lu  Lu0  1  0.308195  0.308196  0.616391  1
  Lu  Lu1  1  0.691805  0.691804  0.383609  1
  Lu  Lu2  1  0.691805  0.308196  0.000001  1
  Lu  Lu3  1  0.308195  0.691804  0.999999  1
  Lu  Lu4  1  0.193931  0.430674  0.236742  1
  Lu  Lu5  1  0.806069  0.569326  0.763258  1
  Lu  Lu6  1  0.193932  0.957187  0.763256  1
  Lu  Lu7  1  0.957201  0.193934  0.763265  1
  Lu  Lu8  1  0.806068  0.042813  0.236744  1
  Lu  Lu9  1  0.042799  0.806066  0.236735  1
  Lu  Lu10  1  0.430670  0.193934  0.236732  1
  Lu  Lu11  1  0.569330  0.806066  0.763268  1
  Fe  Fe12  1  0.383204  0.383210  0.000006  1
  Fe  Fe13  1  0.616796  0.616790  0.999994  1
  Sn  Sn14  1  0.000000  0.500000  0.500000  1
  Sn  Sn15  1  0.500000  0.000000  0.500000  1
  Ru  Ru16  1  0.000000  0.000000  0.000000  1
