# generated using pymatgen
data_TmCu4AgO8
_symmetry_space_group_name_H-M   'P 1'
_cell_length_a   6.21437343
_cell_length_b   6.21437437
_cell_length_c   6.21437446
_cell_angle_alpha   125.06920524
_cell_angle_beta   125.06921175
_cell_angle_gamma   81.42343085
_symmetry_Int_Tables_number   1
_chemical_formula_structural   TmCu4AgO8
_chemical_formula_sum   'Tm1 Cu4 Ag1 O8'
_cell_volume   154.78350081
_cell_formula_units_Z   1
loop_
 _symmetry_equiv_pos_site_id
 _symmetry_equiv_pos_as_xyz
  1  'x, y, z'
loop_
 _atom_site_type_symbol
 _atom_site_label
 _atom_site_symmetry_multiplicity
 _atom_site_fract_x
 _atom_site_fract_y
 _atom_site_fract_z
 _atom_site_occupancy
  Tm  Tm0  1  0.000000  0.000000  0.000000  1
  Cu  Cu1  1  0.386278  0.625906  0.263230  1
  Cu  Cu2  1  0.374094  0.637324  0.760372  1
  Cu  Cu3  1  0.876951  0.613722  0.239628  1
  Cu  Cu4  1  0.362676  0.123049  0.736770  1
  Ag  Ag5  1  0.750000  0.250000  0.500000  1
  O  O6  1  0.173360  0.607079  0.881375  1
  O  O7  1  0.725704  0.291986  0.118625  1
  O  O8  1  0.320900  0.981818  0.911631  1
  O  O9  1  0.708014  0.826640  0.433718  1
  O  O10  1  0.070187  0.409268  0.088369  1
  O  O11  1  0.392921  0.274296  0.566282  1
  O  O12  1  0.018182  0.929813  0.339082  1
  O  O13  1  0.590732  0.679100  0.660918  1
