# generated using pymatgen
data_Tb12Nd7ThSn16
_symmetry_space_group_name_H-M   'P 1'
_cell_length_a   8.15635128
_cell_length_b   8.30690119
_cell_length_c   15.67373465
_cell_angle_alpha   90.01978473
_cell_angle_beta   90.02633298
_cell_angle_gamma   89.98583274
_symmetry_Int_Tables_number   1
_chemical_formula_structural   Tb12Nd7ThSn16
_chemical_formula_sum   'Tb12 Nd7 Th1 Sn16'
_cell_volume   1061.95807386
_cell_formula_units_Z   1
loop_
 _symmetry_equiv_pos_site_id
 _symmetry_equiv_pos_as_xyz
  1  'x, y, z'
loop_
 _atom_site_type_symbol
 _atom_site_label
 _atom_site_symmetry_multiplicity
 _atom_site_fract_x
 _atom_site_fract_y
 _atom_site_fract_z
 _atom_site_occupancy
  Tb  Tb0  1  0.362232  0.834869  0.877889  1
  Tb  Tb1  1  0.861952  0.664814  0.622956  1
  Tb  Tb2  1  0.637969  0.164083  0.377345  1
  Tb  Tb3  1  0.137728  0.336169  0.122741  1
  Tb  Tb4  1  0.637783  0.163213  0.122376  1
  Tb  Tb5  1  0.138882  0.336426  0.377511  1
  Tb  Tb6  1  0.361181  0.836292  0.623073  1
  Tb  Tb7  1  0.861365  0.663969  0.877759  1
  Tb  Tb8  1  0.194324  0.501409  0.749834  1
  Tb  Tb9  1  0.694356  0.997392  0.749501  1
  Tb  Tb10  1  0.804710  0.497442  0.250413  1
  Tb  Tb11  1  0.304694  0.002037  0.249292  1
  Nd  Nd12  1  0.516408  0.320209  0.902805  1
  Nd  Nd13  1  0.015578  0.179385  0.597925  1
  Nd  Nd14  1  0.485233  0.679382  0.402732  1
  Nd  Nd15  1  0.985003  0.821052  0.097443  1
  Nd  Nd16  1  0.485655  0.678753  0.097147  1
  Nd  Nd17  1  0.985554  0.820381  0.402860  1
  Nd  Nd18  1  0.514776  0.321843  0.597171  1
  Th  Th19  1  0.014248  0.180144  0.902461  1
  Sn  Sn20  1  0.297881  0.040623  0.040401  1
  Sn  Sn21  1  0.800954  0.460594  0.458385  1
  Sn  Sn22  1  0.699328  0.961112  0.542120  1
  Sn  Sn23  1  0.199530  0.536237  0.956911  1
  Sn  Sn24  1  0.701493  0.962445  0.957665  1
  Sn  Sn25  1  0.198872  0.540371  0.541913  1
  Sn  Sn26  1  0.301343  0.039520  0.458345  1
  Sn  Sn27  1  0.801609  0.458322  0.040912  1
  Sn  Sn28  1  0.560881  0.621757  0.750099  1
  Sn  Sn29  1  0.060758  0.879011  0.751928  1
  Sn  Sn30  1  0.438717  0.377646  0.249788  1
  Sn  Sn31  1  0.938543  0.121867  0.250201  1
  Sn  Sn32  1  0.323455  0.143787  0.750322  1
  Sn  Sn33  1  0.823439  0.357576  0.749839  1
  Sn  Sn34  1  0.676748  0.856771  0.249986  1
  Sn  Sn35  1  0.176820  0.643099  0.249954  1
