# generated using pymatgen
data_TbYbBPd6
_symmetry_space_group_name_H-M   'P 1'
_cell_length_a   5.91305489
_cell_length_b   5.91305461
_cell_length_c   5.91305500
_cell_angle_alpha   60.00000341
_cell_angle_beta   60.00000495
_cell_angle_gamma   60.00000176
_symmetry_Int_Tables_number   1
_chemical_formula_structural   TbYbBPd6
_chemical_formula_sum   'Tb1 Yb1 B1 Pd6'
_cell_volume   146.19103945
_cell_formula_units_Z   1
loop_
 _symmetry_equiv_pos_site_id
 _symmetry_equiv_pos_as_xyz
  1  'x, y, z'
loop_
 _atom_site_type_symbol
 _atom_site_label
 _atom_site_symmetry_multiplicity
 _atom_site_fract_x
 _atom_site_fract_y
 _atom_site_fract_z
 _atom_site_occupancy
  Tb  Tb0  1  0.250000  0.250000  0.250000  1
  Yb  Yb1  1  0.750000  0.750000  0.750000  1
  B  B2  1  0.000000  0.000000  0.000000  1
  Pd  Pd3  1  0.744028  0.255972  0.255972  1
  Pd  Pd4  1  0.255972  0.744028  0.255972  1
  Pd  Pd5  1  0.744028  0.744028  0.255972  1
  Pd  Pd6  1  0.255972  0.255972  0.744028  1
  Pd  Pd7  1  0.744028  0.255972  0.744028  1
  Pd  Pd8  1  0.255972  0.744028  0.744028  1
