# generated using pymatgen
data_LiTaNb2(SbRh)4
_symmetry_space_group_name_H-M   'P 1'
_cell_length_a   7.56759885
_cell_length_b   7.56759804
_cell_length_c   6.20995000
_cell_angle_alpha   65.77640525
_cell_angle_beta   65.77640801
_cell_angle_gamma   48.44718900
_symmetry_Int_Tables_number   1
_chemical_formula_structural   LiTaNb2(SbRh)4
_chemical_formula_sum   'Li1 Ta1 Nb2 Sb4 Rh4'
_cell_volume   237.67998685
_cell_formula_units_Z   1
loop_
 _symmetry_equiv_pos_site_id
 _symmetry_equiv_pos_as_xyz
  1  'x, y, z'
loop_
 _atom_site_type_symbol
 _atom_site_label
 _atom_site_symmetry_multiplicity
 _atom_site_fract_x
 _atom_site_fract_y
 _atom_site_fract_z
 _atom_site_occupancy
  Li  Li0  1  0.500000  0.500000  0.500000  1
  Ta  Ta1  1  0.750000  0.750000  0.749999  1
  Nb  Nb2  1  0.000000  0.000000  0.000000  1
  Nb  Nb3  1  0.250000  0.250000  0.249999  1
  Sb  Sb4  1  0.500049  0.500049  0.999951  1
  Sb  Sb5  1  0.737571  0.737571  0.262429  1
  Sb  Sb6  1  0.999951  0.999951  0.500048  1
  Sb  Sb7  1  0.262428  0.262428  0.737572  1
  Rh  Rh8  1  0.367411  0.894960  0.102929  1
  Rh  Rh9  1  0.634702  0.102928  0.367409  1
  Rh  Rh10  1  0.894960  0.367411  0.634700  1
  Rh  Rh11  1  0.102928  0.634702  0.894961  1
