# generated using pymatgen
data_Sc4Re2(MoOs)3
_symmetry_space_group_name_H-M   'P 1'
_cell_length_a   5.27286100
_cell_length_b   5.25757775
_cell_length_c   8.75788100
_cell_angle_alpha   90.00000000
_cell_angle_beta   90.00000000
_cell_angle_gamma   120.48127789
_symmetry_Int_Tables_number   1
_chemical_formula_structural   Sc4Re2(MoOs)3
_chemical_formula_sum   'Sc4 Re2 Mo3 Os3'
_cell_volume   209.23532878
_cell_formula_units_Z   1
loop_
 _symmetry_equiv_pos_site_id
 _symmetry_equiv_pos_as_xyz
  1  'x, y, z'
loop_
 _atom_site_type_symbol
 _atom_site_label
 _atom_site_symmetry_multiplicity
 _atom_site_fract_x
 _atom_site_fract_y
 _atom_site_fract_z
 _atom_site_occupancy
  Sc  Sc0  1  0.333670  0.665819  0.440194  1
  Sc  Sc1  1  0.668303  0.333469  0.561525  1
  Sc  Sc2  1  0.668303  0.333469  0.938475  1
  Sc  Sc3  1  0.333670  0.665819  0.059806  1
  Re  Re4  1  0.175278  0.829518  0.750000  1
  Re  Re5  1  0.657379  0.830542  0.750000  1
  Mo  Mo6  1  0.171698  0.341361  0.750000  1
  Mo  Mo7  1  0.338297  0.168926  0.250000  1
  Mo  Mo8  1  0.830875  0.662749  0.250000  1
  Os  Os9  1  0.999434  0.996643  0.998993  1
  Os  Os10  1  0.823659  0.175040  0.250000  1
  Os  Os11  1  0.999434  0.996643  0.501007  1
