# generated using pymatgen
data_Cs6Tb(NpBr6)3
_symmetry_space_group_name_H-M   'P 1'
_cell_length_a   10.55496597
_cell_length_b   10.55496614
_cell_length_c   10.55496630
_cell_angle_alpha   83.73006743
_cell_angle_beta   83.73006651
_cell_angle_gamma   83.73005878
_symmetry_Int_Tables_number   1
_chemical_formula_structural   Cs6Tb(NpBr6)3
_chemical_formula_sum   'Cs6 Tb1 Np3 Br18'
_cell_volume   1156.22942027
_cell_formula_units_Z   1
loop_
 _symmetry_equiv_pos_site_id
 _symmetry_equiv_pos_as_xyz
  1  'x, y, z'
loop_
 _atom_site_type_symbol
 _atom_site_label
 _atom_site_symmetry_multiplicity
 _atom_site_fract_x
 _atom_site_fract_y
 _atom_site_fract_z
 _atom_site_occupancy
  Cs  Cs0  1  0.752029  0.411070  0.087936  1
  Cs  Cs1  1  0.087936  0.752029  0.411070  1
  Cs  Cs2  1  0.251326  0.585780  0.911787  1
  Cs  Cs3  1  0.411070  0.087936  0.752029  1
  Cs  Cs4  1  0.911787  0.251326  0.585780  1
  Cs  Cs5  1  0.585780  0.911787  0.251326  1
  Tb  Tb6  1  0.151857  0.151857  0.151857  1
  Np  Np7  1  0.348281  0.348281  0.348281  1
  Np  Np8  1  0.650619  0.650619  0.650619  1
  Np  Np9  1  0.847362  0.847362  0.847362  1
  Br  Br10  1  0.412697  0.772616  0.581286  1
  Br  Br11  1  0.232700  0.419732  0.586490  1
  Br  Br12  1  0.402415  0.247834  0.092352  1
  Br  Br13  1  0.092352  0.402415  0.247834  1
  Br  Br14  1  0.920363  0.733619  0.084833  1
  Br  Br15  1  0.920481  0.082578  0.264827  1
  Br  Br16  1  0.591381  0.748915  0.906836  1
  Br  Br17  1  0.748915  0.906836  0.591381  1
  Br  Br18  1  0.581286  0.412697  0.772616  1
  Br  Br19  1  0.247834  0.092352  0.402415  1
  Br  Br20  1  0.772616  0.581286  0.412697  1
  Br  Br21  1  0.733619  0.084833  0.920363  1
  Br  Br22  1  0.082578  0.264827  0.920481  1
  Br  Br23  1  0.419732  0.586490  0.232700  1
  Br  Br24  1  0.586490  0.232700  0.419732  1
  Br  Br25  1  0.906836  0.591381  0.748915  1
  Br  Br26  1  0.264827  0.920481  0.082578  1
  Br  Br27  1  0.084833  0.920363  0.733619  1
