# generated using pymatgen
data_Tb2TmTh11Ru6
_symmetry_space_group_name_H-M   'P 1'
_cell_length_a   9.82002547
_cell_length_b   9.89841526
_cell_length_c   6.40583448
_cell_angle_alpha   90.22192260
_cell_angle_beta   89.86694450
_cell_angle_gamma   120.50290566
_symmetry_Int_Tables_number   1
_chemical_formula_structural   Tb2TmTh11Ru6
_chemical_formula_sum   'Tb2 Tm1 Th11 Ru6'
_cell_volume   536.48565808
_cell_formula_units_Z   1
loop_
 _symmetry_equiv_pos_site_id
 _symmetry_equiv_pos_as_xyz
  1  'x, y, z'
loop_
 _atom_site_type_symbol
 _atom_site_label
 _atom_site_symmetry_multiplicity
 _atom_site_fract_x
 _atom_site_fract_y
 _atom_site_fract_z
 _atom_site_occupancy
  Tb  Tb0  1  0.074475  0.535798  0.299818  1
  Tb  Tb1  1  0.925907  0.462469  0.798814  1
  Tm  Tm2  1  0.460658  0.537089  0.297292  1
  Th  Th3  1  0.249277  0.126344  0.510326  1
  Th  Th4  1  0.542095  0.083195  0.796164  1
  Th  Th5  1  0.747352  0.873405  0.013452  1
  Th  Th6  1  0.665771  0.333345  0.278998  1
  Th  Th7  1  0.125444  0.870789  0.008877  1
  Th  Th8  1  0.459743  0.916728  0.295903  1
  Th  Th9  1  0.538602  0.463991  0.798736  1
  Th  Th10  1  0.876443  0.128508  0.511585  1
  Th  Th11  1  0.124266  0.252159  0.014332  1
  Th  Th12  1  0.874087  0.748657  0.508568  1
  Th  Th13  1  0.334454  0.666258  0.775068  1
  Ru  Ru14  1  0.810646  0.631085  0.047937  1
  Ru  Ru15  1  0.813861  0.180885  0.045576  1
  Ru  Ru16  1  0.631181  0.814204  0.545006  1
  Ru  Ru17  1  0.370273  0.188463  0.042454  1
  Ru  Ru18  1  0.186211  0.366467  0.551697  1
  Ru  Ru19  1  0.189253  0.820165  0.543392  1
