# generated using pymatgen
data_Th3Cd2HgC
_symmetry_space_group_name_H-M   'P 1'
_cell_length_a   9.95145958
_cell_length_b   9.95102329
_cell_length_c   9.94806600
_cell_angle_alpha   119.74377959
_cell_angle_beta   90.44532027
_cell_angle_gamma   119.75070171
_symmetry_Int_Tables_number   1
_chemical_formula_structural   Th3Cd2HgC
_chemical_formula_sum   'Th12 Cd8 Hg4 C4'
_cell_volume   699.18780276
_cell_formula_units_Z   4
loop_
 _symmetry_equiv_pos_site_id
 _symmetry_equiv_pos_as_xyz
  1  'x, y, z'
loop_
 _atom_site_type_symbol
 _atom_site_label
 _atom_site_symmetry_multiplicity
 _atom_site_fract_x
 _atom_site_fract_y
 _atom_site_fract_z
 _atom_site_occupancy
  Th  Th0  1  0.937283  0.374625  0.186357  1
  Th  Th1  1  0.936565  0.749462  0.185931  1
  Th  Th2  1  0.311758  0.749092  0.186385  1
  Th  Th3  1  0.686365  0.250088  0.436484  1
  Th  Th4  1  0.687370  0.874747  0.437928  1
  Th  Th5  1  0.063153  0.250514  0.437874  1
  Th  Th6  1  0.311314  0.122699  0.562687  1
  Th  Th7  1  0.311924  0.750671  0.562604  1
  Th  Th8  1  0.939977  0.751393  0.562699  1
  Th  Th9  1  0.687694  0.249176  0.810231  1
  Th  Th10  1  0.061035  0.622569  0.810223  1
  Th  Th11  1  0.062115  0.249184  0.811286  1
  Cd  Cd12  1  0.000419  0.998919  0.997563  1
  Cd  Cd13  1  0.498715  0.999028  0.997737  1
  Cd  Cd14  1  0.498625  0.497128  0.997572  1
  Cd  Cd15  1  0.499569  0.499440  0.498993  1
  Cd  Cd16  1  0.382716  0.588614  0.793783  1
  Cd  Cd17  1  0.705798  0.588431  0.794258  1
  Cd  Cd18  1  0.705186  0.911089  0.793810  1
  Cd  Cd19  1  0.294622  0.089764  0.884407  1
  Hg  Hg20  1  0.709925  0.918867  0.128838  1
  Hg  Hg21  1  0.290319  0.080019  0.209248  1
  Hg  Hg22  1  0.289516  0.418809  0.208371  1
  Hg  Hg23  1  0.629248  0.418969  0.209251  1
  C  C24  1  0.000574  0.501165  0.001704  1
  C  C25  1  0.998883  0.999149  0.497959  1
  C  C26  1  0.500472  0.998989  0.497947  1
  C  C27  1  0.998869  0.497409  0.497879  1
