# generated using pymatgen
data_Sm2Fe3Tc14C3
_symmetry_space_group_name_H-M   'P 1'
_cell_length_a   6.90827508
_cell_length_b   6.90827606
_cell_length_c   6.90827626
_cell_angle_alpha   82.58449637
_cell_angle_beta   82.58449578
_cell_angle_gamma   82.58449547
_symmetry_Int_Tables_number   1
_chemical_formula_structural   Sm2Fe3Tc14C3
_chemical_formula_sum   'Sm2 Fe3 Tc14 C3'
_cell_volume   322.07548454
_cell_formula_units_Z   1
loop_
 _symmetry_equiv_pos_site_id
 _symmetry_equiv_pos_as_xyz
  1  'x, y, z'
loop_
 _atom_site_type_symbol
 _atom_site_label
 _atom_site_symmetry_multiplicity
 _atom_site_fract_x
 _atom_site_fract_y
 _atom_site_fract_z
 _atom_site_occupancy
  Sm  Sm0  1  0.651290  0.651290  0.651290  1
  Sm  Sm1  1  0.348710  0.348710  0.348710  1
  Fe  Fe2  1  0.000000  0.000000  0.500000  1
  Fe  Fe3  1  0.500000  0.000000  0.000000  1
  Fe  Fe4  1  0.000000  0.500000  0.000000  1
  Tc  Tc5  1  0.724178  0.275822  0.000000  1
  Tc  Tc6  1  0.000000  0.724178  0.275822  1
  Tc  Tc7  1  0.275822  0.000000  0.724178  1
  Tc  Tc8  1  0.000000  0.275822  0.724178  1
  Tc  Tc9  1  0.724178  0.000000  0.275822  1
  Tc  Tc10  1  0.275822  0.724178  0.000000  1
  Tc  Tc11  1  0.347182  0.347182  0.862428  1
  Tc  Tc12  1  0.862428  0.347182  0.347182  1
  Tc  Tc13  1  0.347182  0.862428  0.347182  1
  Tc  Tc14  1  0.652818  0.652818  0.137572  1
  Tc  Tc15  1  0.137572  0.652818  0.652818  1
  Tc  Tc16  1  0.652818  0.137572  0.652818  1
  Tc  Tc17  1  0.899645  0.899645  0.899645  1
  Tc  Tc18  1  0.100355  0.100355  0.100355  1
  C  C19  1  0.500000  0.500000  0.000000  1
  C  C20  1  0.000000  0.500000  0.500000  1
  C  C21  1  0.500000  0.000000  0.500000  1
