# generated using pymatgen
data_Er4Fe3Co9(P3Ru2)4
_symmetry_space_group_name_H-M   'P 1'
_cell_length_a   3.74169900
_cell_length_b   10.48436781
_cell_length_c   11.88950837
_cell_angle_alpha   90.24020040
_cell_angle_beta   90.00000000
_cell_angle_gamma   90.00000000
_symmetry_Int_Tables_number   1
_chemical_formula_structural   Er4Fe3Co9(P3Ru2)4
_chemical_formula_sum   'Er4 Fe3 Co9 P12 Ru8'
_cell_volume   466.41356941
_cell_formula_units_Z   1
loop_
 _symmetry_equiv_pos_site_id
 _symmetry_equiv_pos_as_xyz
  1  'x, y, z'
loop_
 _atom_site_type_symbol
 _atom_site_label
 _atom_site_symmetry_multiplicity
 _atom_site_fract_x
 _atom_site_fract_y
 _atom_site_fract_z
 _atom_site_occupancy
  Er  Er0  1  0.250000  0.583995  0.708699  1
  Er  Er1  1  0.250000  0.916325  0.208897  1
  Er  Er2  1  0.750000  0.416357  0.290900  1
  Er  Er3  1  0.750000  0.083213  0.791243  1
  Fe  Fe4  1  0.250000  0.037354  0.433207  1
  Fe  Fe5  1  0.750000  0.536898  0.066130  1
  Fe  Fe6  1  0.750000  0.962626  0.566753  1
  Co  Co7  1  0.250000  0.226803  0.178173  1
  Co  Co8  1  0.250000  0.273042  0.677995  1
  Co  Co9  1  0.750000  0.774091  0.821691  1
  Co  Co10  1  0.750000  0.727007  0.322217  1
  Co  Co11  1  0.250000  0.881893  0.700613  1
  Co  Co12  1  0.250000  0.618116  0.200073  1
  Co  Co13  1  0.750000  0.118418  0.299417  1
  Co  Co14  1  0.750000  0.382694  0.800317  1
  Co  Co15  1  0.250000  0.461855  0.932479  1
  P  P16  1  0.250000  0.425675  0.114033  1
  P  P17  1  0.250000  0.074224  0.613273  1
  P  P18  1  0.750000  0.576591  0.886645  1
  P  P19  1  0.750000  0.925946  0.386580  1
  P  P20  1  0.250000  0.271055  0.863551  1
  P  P21  1  0.250000  0.227713  0.363617  1
  P  P22  1  0.750000  0.727630  0.136154  1
  P  P23  1  0.750000  0.772199  0.636287  1
  P  P24  1  0.250000  0.601434  0.386584  1
  P  P25  1  0.250000  0.898538  0.886689  1
  P  P26  1  0.750000  0.398780  0.613454  1
  P  P27  1  0.750000  0.100887  0.113636  1
  Ru  Ru28  1  0.250000  0.704813  0.983207  1
  Ru  Ru29  1  0.250000  0.796089  0.484081  1
  Ru  Ru30  1  0.750000  0.293885  0.017414  1
  Ru  Ru31  1  0.750000  0.204077  0.515640  1
  Ru  Ru32  1  0.250000  0.402624  0.485849  1
  Ru  Ru33  1  0.250000  0.096985  0.985484  1
  Ru  Ru34  1  0.750000  0.597389  0.514270  1
  Ru  Ru35  1  0.750000  0.902780  0.014749  1
