# generated using pymatgen
data_Li2Ho6Co(P4Ir5)3
_symmetry_space_group_name_H-M   'P 1'
_cell_length_a   3.91512800
_cell_length_b   11.25171100
_cell_length_c   12.75070800
_cell_angle_alpha   90.00000000
_cell_angle_beta   90.00000000
_cell_angle_gamma   90.00000000
_symmetry_Int_Tables_number   1
_chemical_formula_structural   Li2Ho6Co(P4Ir5)3
_chemical_formula_sum   'Li2 Ho6 Co1 P12 Ir15'
_cell_volume   561.69277073
_cell_formula_units_Z   1
loop_
 _symmetry_equiv_pos_site_id
 _symmetry_equiv_pos_as_xyz
  1  'x, y, z'
loop_
 _atom_site_type_symbol
 _atom_site_label
 _atom_site_symmetry_multiplicity
 _atom_site_fract_x
 _atom_site_fract_y
 _atom_site_fract_z
 _atom_site_occupancy
  Li  Li0  1  0.500000  0.500000  0.154100  1
  Li  Li1  1  0.000000  0.000000  0.844081  1
  Ho  Ho2  1  0.000000  0.500000  0.516077  1
  Ho  Ho3  1  0.500000  0.000000  0.483700  1
  Ho  Ho4  1  0.500000  0.821313  0.201491  1
  Ho  Ho5  1  0.500000  0.178687  0.201491  1
  Ho  Ho6  1  0.000000  0.685885  0.798545  1
  Ho  Ho7  1  0.000000  0.314115  0.798545  1
  Co  Co8  1  0.500000  0.000000  0.016017  1
  P  P9  1  0.500000  0.313978  0.619594  1
  P  P10  1  0.500000  0.686022  0.619594  1
  P  P11  1  0.000000  0.185576  0.380577  1
  P  P12  1  0.000000  0.814424  0.380577  1
  P  P13  1  0.500000  0.500000  0.879686  1
  P  P14  1  0.000000  0.000000  0.118518  1
  P  P15  1  0.500000  0.851220  0.895660  1
  P  P16  1  0.500000  0.148780  0.895660  1
  P  P17  1  0.000000  0.658811  0.107126  1
  P  P18  1  0.000000  0.341189  0.107126  1
  P  P19  1  0.500000  0.500000  0.343282  1
  P  P20  1  0.000000  0.000000  0.655295  1
  Ir  Ir21  1  0.000000  0.500000  0.980247  1
  Ir  Ir22  1  0.500000  0.287637  0.428430  1
  Ir  Ir23  1  0.500000  0.712363  0.428430  1
  Ir  Ir24  1  0.000000  0.211459  0.571159  1
  Ir  Ir25  1  0.000000  0.788541  0.571159  1
  Ir  Ir26  1  0.500000  0.874677  0.712360  1
  Ir  Ir27  1  0.500000  0.125323  0.712360  1
  Ir  Ir28  1  0.000000  0.626082  0.287819  1
  Ir  Ir29  1  0.000000  0.373918  0.287819  1
  Ir  Ir30  1  0.500000  0.329975  0.996267  1
  Ir  Ir31  1  0.500000  0.670025  0.996267  1
  Ir  Ir32  1  0.000000  0.160701  0.005203  1
  Ir  Ir33  1  0.000000  0.839299  0.005203  1
  Ir  Ir34  1  0.500000  0.500000  0.700142  1
  Ir  Ir35  1  0.000000  0.000000  0.300394  1
