# generated using pymatgen
data_LiHo(ReH9)2
_symmetry_space_group_name_H-M   'P 1'
_cell_length_a   5.18802547
_cell_length_b   5.18772588
_cell_length_c   8.14925307
_cell_angle_alpha   90.03224267
_cell_angle_beta   89.96613162
_cell_angle_gamma   126.08412858
_symmetry_Int_Tables_number   1
_chemical_formula_structural   LiHo(ReH9)2
_chemical_formula_sum   'Li1 Ho1 Re2 H18'
_cell_volume   177.25171982
_cell_formula_units_Z   1
loop_
 _symmetry_equiv_pos_site_id
 _symmetry_equiv_pos_as_xyz
  1  'x, y, z'
loop_
 _atom_site_type_symbol
 _atom_site_label
 _atom_site_symmetry_multiplicity
 _atom_site_fract_x
 _atom_site_fract_y
 _atom_site_fract_z
 _atom_site_occupancy
  Li  Li0  1  0.000000  0.000000  0.000000  1
  Ho  Ho1  1  0.000000  0.000000  0.500000  1
  Re  Re2  1  0.346232  0.653742  0.733581  1
  Re  Re3  1  0.653768  0.346258  0.266419  1
  H  H4  1  0.391846  0.608197  0.528786  1
  H  H5  1  0.608154  0.391803  0.471214  1
  H  H6  1  0.427597  0.572373  0.916131  1
  H  H7  1  0.572403  0.427627  0.083869  1
  H  H8  1  0.485176  0.948991  0.872036  1
  H  H9  1  0.948982  0.485141  0.127964  1
  H  H10  1  0.604382  0.019617  0.654140  1
  H  H11  1  0.019585  0.604296  0.345872  1
  H  H12  1  0.514824  0.051009  0.127964  1
  H  H13  1  0.051018  0.514859  0.872036  1
  H  H14  1  0.395618  0.980383  0.345860  1
  H  H15  1  0.980415  0.395704  0.654128  1
  H  H16  1  0.718527  0.729320  0.734789  1
  H  H17  1  0.729393  0.718560  0.265205  1
  H  H18  1  0.281473  0.270680  0.265211  1
  H  H19  1  0.270607  0.281440  0.734795  1
  H  H20  1  0.163783  0.836367  0.705689  1
  H  H21  1  0.836217  0.163633  0.294311  1
