# generated using pymatgen
data_Zr10InGa3Sb4
_symmetry_space_group_name_H-M   'P 1'
_cell_length_a   8.64996200
_cell_length_b   8.66492489
_cell_length_c   5.88365700
_cell_angle_alpha   90.00000000
_cell_angle_beta   90.00000000
_cell_angle_gamma   120.09894625
_symmetry_Int_Tables_number   1
_chemical_formula_structural   Zr10InGa3Sb4
_chemical_formula_sum   'Zr10 In1 Ga3 Sb4'
_cell_volume   381.52509056
_cell_formula_units_Z   1
loop_
 _symmetry_equiv_pos_site_id
 _symmetry_equiv_pos_as_xyz
  1  'x, y, z'
loop_
 _atom_site_type_symbol
 _atom_site_label
 _atom_site_symmetry_multiplicity
 _atom_site_fract_x
 _atom_site_fract_y
 _atom_site_fract_z
 _atom_site_occupancy
  Zr  Zr0  1  0.277425  0.278654  0.750000  1
  Zr  Zr1  1  0.735598  0.735442  0.250000  1
  Zr  Zr2  1  0.725616  0.989425  0.750000  1
  Zr  Zr3  1  0.001057  0.267049  0.250000  1
  Zr  Zr4  1  0.335460  0.663988  0.503722  1
  Zr  Zr5  1  0.667263  0.337666  0.503181  1
  Zr  Zr6  1  0.988051  0.723190  0.750000  1
  Zr  Zr7  1  0.335460  0.663988  0.996278  1
  Zr  Zr8  1  0.264987  0.001214  0.250000  1
  Zr  Zr9  1  0.667263  0.337666  0.996819  1
  In  In10  1  0.381032  0.998213  0.750000  1
  Ga  Ga11  1  0.003056  0.001177  0.510224  1
  Ga  Ga12  1  0.613375  0.613013  0.750000  1
  Ga  Ga13  1  0.003056  0.001177  0.989776  1
  Sb  Sb14  1  0.608130  0.999704  0.250000  1
  Sb  Sb15  1  0.393636  0.392263  0.250000  1
  Sb  Sb16  1  0.998174  0.384283  0.750000  1
  Sb  Sb17  1  0.001359  0.611886  0.250000  1
