# generated using pymatgen
data_Tm12Tc3Au2
_symmetry_space_group_name_H-M   'P 1'
_cell_length_a   8.20902155
_cell_length_b   8.20902180
_cell_length_c   8.20902187
_cell_angle_alpha   110.43677923
_cell_angle_beta   110.43677884
_cell_angle_gamma   107.55689280
_symmetry_Int_Tables_number   1
_chemical_formula_structural   Tm12Tc3Au2
_chemical_formula_sum   'Tm12 Tc3 Au2'
_cell_volume   425.49072476
_cell_formula_units_Z   1
loop_
 _symmetry_equiv_pos_site_id
 _symmetry_equiv_pos_as_xyz
  1  'x, y, z'
loop_
 _atom_site_type_symbol
 _atom_site_label
 _atom_site_symmetry_multiplicity
 _atom_site_fract_x
 _atom_site_fract_y
 _atom_site_fract_z
 _atom_site_occupancy
  Tm  Tm0  1  0.183288  0.434481  0.251193  1
  Tm  Tm1  1  0.816712  0.565519  0.748807  1
  Tm  Tm2  1  0.183288  0.932096  0.748807  1
  Tm  Tm3  1  0.932096  0.183288  0.748807  1
  Tm  Tm4  1  0.816712  0.067904  0.251193  1
  Tm  Tm5  1  0.067904  0.816712  0.251193  1
  Tm  Tm6  1  0.434481  0.183288  0.251193  1
  Tm  Tm7  1  0.565519  0.816712  0.748807  1
  Tm  Tm8  1  0.319303  0.319303  0.638607  1
  Tm  Tm9  1  0.680697  0.680697  0.361393  1
  Tm  Tm10  1  0.680697  0.319303  0.000000  1
  Tm  Tm11  1  0.319303  0.680697  0.000000  1
  Tc  Tc12  1  0.337161  0.337161  0.000000  1
  Tc  Tc13  1  0.662839  0.662839  0.000000  1
  Tc  Tc14  1  0.000000  0.000000  0.000000  1
  Au  Au15  1  0.000000  0.500000  0.500000  1
  Au  Au16  1  0.500000  0.000000  0.500000  1
