# generated using pymatgen
data_Ir(BrF)2
_symmetry_space_group_name_H-M   'P 1'
_cell_length_a   5.26312943
_cell_length_b   5.26313045
_cell_length_c   3.69875627
_cell_angle_alpha   88.54442158
_cell_angle_beta   88.54441680
_cell_angle_gamma   92.24720320
_symmetry_Int_Tables_number   1
_chemical_formula_structural   Ir(BrF)2
_chemical_formula_sum   'Ir1 Br2 F2'
_cell_volume   102.30995945
_cell_formula_units_Z   1
loop_
 _symmetry_equiv_pos_site_id
 _symmetry_equiv_pos_as_xyz
  1  'x, y, z'
loop_
 _atom_site_type_symbol
 _atom_site_label
 _atom_site_symmetry_multiplicity
 _atom_site_fract_x
 _atom_site_fract_y
 _atom_site_fract_z
 _atom_site_occupancy
  Ir  Ir0  1  0.000000  0.000000  0.000000  1
  Br  Br1  1  0.226848  0.226848  0.483053  1
  Br  Br2  1  0.773152  0.773152  0.516947  1
  F  F3  1  0.741139  0.258861  0.000000  1
  F  F4  1  0.258861  0.741139  0.000000  1
