# generated using pymatgen
data_YbHo2Er5(B6Ru)4
_symmetry_space_group_name_H-M   'P 1'
_cell_length_a   3.63924900
_cell_length_b   9.10289971
_cell_length_c   11.48493000
_cell_angle_alpha   89.91692415
_cell_angle_beta   90.00000000
_cell_angle_gamma   90.00000000
_symmetry_Int_Tables_number   1
_chemical_formula_structural   YbHo2Er5(B6Ru)4
_chemical_formula_sum   'Yb1 Ho2 Er5 B24 Ru4'
_cell_volume   380.46913010
_cell_formula_units_Z   1
loop_
 _symmetry_equiv_pos_site_id
 _symmetry_equiv_pos_as_xyz
  1  'x, y, z'
loop_
 _atom_site_type_symbol
 _atom_site_label
 _atom_site_symmetry_multiplicity
 _atom_site_fract_x
 _atom_site_fract_y
 _atom_site_fract_z
 _atom_site_occupancy
  Yb  Yb0  1  0.000000  0.323208  0.413816  1
  Ho  Ho1  1  0.000000  0.676206  0.584944  1
  Ho  Ho2  1  0.000000  0.822170  0.086209  1
  Er  Er3  1  0.000000  0.178409  0.914643  1
  Er  Er4  1  0.000000  0.943852  0.371101  1
  Er  Er5  1  0.000000  0.058275  0.628047  1
  Er  Er6  1  0.000000  0.442669  0.129571  1
  Er  Er7  1  0.000000  0.556273  0.872160  1
  B  B8  1  0.500000  0.553899  0.432746  1
  B  B9  1  0.500000  0.445989  0.567352  1
  B  B10  1  0.500000  0.053239  0.066309  1
  B  B11  1  0.500000  0.946128  0.932652  1
  B  B12  1  0.500000  0.748457  0.419273  1
  B  B13  1  0.500000  0.252186  0.581029  1
  B  B14  1  0.500000  0.247678  0.080287  1
  B  B15  1  0.500000  0.751652  0.919606  1
  B  B16  1  0.500000  0.791248  0.265803  1
  B  B17  1  0.500000  0.209732  0.734594  1
  B  B18  1  0.500000  0.289747  0.233761  1
  B  B19  1  0.500000  0.709368  0.766033  1
  B  B20  1  0.500000  0.631418  0.185620  1
  B  B21  1  0.500000  0.368928  0.815510  1
  B  B22  1  0.500000  0.130638  0.314130  1
  B  B23  1  0.500000  0.869098  0.684940  1
  B  B24  1  0.500000  0.982652  0.211762  1
  B  B25  1  0.500000  0.017375  0.787357  1
  B  B26  1  0.500000  0.483297  0.287755  1
  B  B27  1  0.500000  0.517037  0.712754  1
  B  B28  1  0.500000  0.606967  0.029806  1
  B  B29  1  0.500000  0.392973  0.970831  1
  B  B30  1  0.500000  0.103529  0.471241  1
  B  B31  1  0.500000  0.895293  0.528926  1
  Ru  Ru32  1  0.000000  0.639218  0.320495  1
  Ru  Ru33  1  0.000000  0.362171  0.680443  1
  Ru  Ru34  1  0.000000  0.136490  0.177608  1
  Ru  Ru35  1  0.000000  0.862529  0.820887  1
