# generated using pymatgen
data_Tb4Y2OsRh
_symmetry_space_group_name_H-M   'P 1'
_cell_length_a   6.43679631
_cell_length_b   7.34023398
_cell_length_c   9.22451203
_cell_angle_alpha   89.94567358
_cell_angle_beta   89.99814067
_cell_angle_gamma   90.59352460
_symmetry_Int_Tables_number   1
_chemical_formula_structural   Tb4Y2OsRh
_chemical_formula_sum   'Tb8 Y4 Os2 Rh2'
_cell_volume   435.81239087
_cell_formula_units_Z   2
loop_
 _symmetry_equiv_pos_site_id
 _symmetry_equiv_pos_as_xyz
  1  'x, y, z'
loop_
 _atom_site_type_symbol
 _atom_site_label
 _atom_site_symmetry_multiplicity
 _atom_site_fract_x
 _atom_site_fract_y
 _atom_site_fract_z
 _atom_site_occupancy
  Tb  Tb0  1  0.633428  0.037197  0.250243  1
  Tb  Tb1  1  0.366131  0.962767  0.750004  1
  Tb  Tb2  1  0.128529  0.462008  0.749986  1
  Tb  Tb3  1  0.871673  0.538645  0.249869  1
  Tb  Tb4  1  0.175636  0.179378  0.066494  1
  Tb  Tb5  1  0.824396  0.820937  0.934305  1
  Tb  Tb6  1  0.667461  0.326576  0.938681  1
  Tb  Tb7  1  0.824411  0.820895  0.566032  1
  Y  Y8  1  0.333103  0.673611  0.061507  1
  Y  Y9  1  0.175631  0.179453  0.434110  1
  Y  Y10  1  0.333069  0.672985  0.438628  1
  Y  Y11  1  0.667341  0.326789  0.560535  1
  Os  Os12  1  0.465835  0.382460  0.249725  1
  Os  Os13  1  0.534861  0.616929  0.750408  1
  Rh  Rh14  1  0.953243  0.114255  0.750068  1
  Rh  Rh15  1  0.045251  0.885116  0.249406  1
