# generated using pymatgen
data_Zr5GaGe2O
_symmetry_space_group_name_H-M   'P 1'
_cell_length_a   8.08986200
_cell_length_b   8.05816981
_cell_length_c   5.66765100
_cell_angle_alpha   90.00000000
_cell_angle_beta   90.00000000
_cell_angle_gamma   120.13018566
_symmetry_Int_Tables_number   1
_chemical_formula_structural   Zr5GaGe2O
_chemical_formula_sum   'Zr10 Ga2 Ge4 O2'
_cell_volume   319.55089639
_cell_formula_units_Z   2
loop_
 _symmetry_equiv_pos_site_id
 _symmetry_equiv_pos_as_xyz
  1  'x, y, z'
loop_
 _atom_site_type_symbol
 _atom_site_label
 _atom_site_symmetry_multiplicity
 _atom_site_fract_x
 _atom_site_fract_y
 _atom_site_fract_z
 _atom_site_occupancy
  Zr  Zr0  1  0.999565  0.760542  0.750000  1
  Zr  Zr1  1  0.000435  0.239458  0.250000  1
  Zr  Zr2  1  0.332918  0.665838  0.000000  1
  Zr  Zr3  1  0.332918  0.665838  0.500000  1
  Zr  Zr4  1  0.239023  0.239458  0.750000  1
  Zr  Zr5  1  0.239784  0.000000  0.250000  1
  Zr  Zr6  1  0.760977  0.760542  0.250000  1
  Zr  Zr7  1  0.667082  0.334162  0.000000  1
  Zr  Zr8  1  0.667082  0.334162  0.500000  1
  Zr  Zr9  1  0.760216  0.000000  0.750000  1
  Ga  Ga10  1  0.401915  0.000000  0.750000  1
  Ga  Ga11  1  0.598085  0.000000  0.250000  1
  Ge  Ge12  1  0.000192  0.599324  0.250000  1
  Ge  Ge13  1  0.999808  0.400676  0.750000  1
  Ge  Ge14  1  0.400868  0.400676  0.250000  1
  Ge  Ge15  1  0.599132  0.599324  0.750000  1
  O  O16  1  0.000000  0.000000  0.000000  1
  O  O17  1  0.000000  0.000000  0.500000  1
