# generated using pymatgen
data_Dy20Cd6IrRu
_symmetry_space_group_name_H-M   'P 1'
_cell_length_a   9.61726500
_cell_length_b   9.61726405
_cell_length_c   9.86805800
_cell_angle_alpha   90.00000000
_cell_angle_beta   90.00000000
_cell_angle_gamma   119.99999982
_symmetry_Int_Tables_number   1
_chemical_formula_structural   Dy20Cd6IrRu
_chemical_formula_sum   'Dy20 Cd6 Ir1 Ru1'
_cell_volume   790.43370209
_cell_formula_units_Z   1
loop_
 _symmetry_equiv_pos_site_id
 _symmetry_equiv_pos_as_xyz
  1  'x, y, z'
loop_
 _atom_site_type_symbol
 _atom_site_label
 _atom_site_symmetry_multiplicity
 _atom_site_fract_x
 _atom_site_fract_y
 _atom_site_fract_z
 _atom_site_occupancy
  Dy  Dy0  1  0.000000  0.000000  0.499673  1
  Dy  Dy1  1  0.000000  0.000000  0.000327  1
  Dy  Dy2  1  0.209568  0.790432  0.440695  1
  Dy  Dy3  1  0.209568  0.419136  0.440695  1
  Dy  Dy4  1  0.580864  0.790432  0.440695  1
  Dy  Dy5  1  0.790168  0.209832  0.560115  1
  Dy  Dy6  1  0.790168  0.580335  0.560115  1
  Dy  Dy7  1  0.419665  0.209832  0.560115  1
  Dy  Dy8  1  0.790168  0.209832  0.939885  1
  Dy  Dy9  1  0.790168  0.580335  0.939885  1
  Dy  Dy10  1  0.419665  0.209832  0.939885  1
  Dy  Dy11  1  0.209568  0.790432  0.059305  1
  Dy  Dy12  1  0.209568  0.419136  0.059305  1
  Dy  Dy13  1  0.580864  0.790432  0.059305  1
  Dy  Dy14  1  0.541337  0.458663  0.250000  1
  Dy  Dy15  1  0.541337  0.082673  0.250000  1
  Dy  Dy16  1  0.917327  0.458663  0.250000  1
  Dy  Dy17  1  0.458731  0.541269  0.750000  1
  Dy  Dy18  1  0.458731  0.917462  0.750000  1
  Dy  Dy19  1  0.082538  0.541269  0.750000  1
  Cd  Cd20  1  0.885385  0.114615  0.250000  1
  Cd  Cd21  1  0.885385  0.770770  0.250000  1
  Cd  Cd22  1  0.229230  0.114615  0.250000  1
  Cd  Cd23  1  0.114626  0.885374  0.750000  1
  Cd  Cd24  1  0.114626  0.229250  0.750000  1
  Cd  Cd25  1  0.770750  0.885374  0.750000  1
  Ir  Ir26  1  0.333333  0.666667  0.250000  1
  Ru  Ru27  1  0.666667  0.333333  0.750000  1
