# generated using pymatgen
data_Zn7Cu20Ni
_symmetry_space_group_name_H-M   'P 1'
_cell_length_a   5.16023415
_cell_length_b   5.15569538
_cell_length_c   14.91475797
_cell_angle_alpha   90.00000020
_cell_angle_beta   90.15039894
_cell_angle_gamma   119.97091779
_symmetry_Int_Tables_number   1
_chemical_formula_structural   Zn7Cu20Ni
_chemical_formula_sum   'Zn7 Cu20 Ni1'
_cell_volume   343.73891547
_cell_formula_units_Z   1
loop_
 _symmetry_equiv_pos_site_id
 _symmetry_equiv_pos_as_xyz
  1  'x, y, z'
loop_
 _atom_site_type_symbol
 _atom_site_label
 _atom_site_symmetry_multiplicity
 _atom_site_fract_x
 _atom_site_fract_y
 _atom_site_fract_z
 _atom_site_occupancy
  Zn  Zn0  1  0.000000  0.000000  0.000000  1
  Zn  Zn1  1  0.329286  0.664642  0.140910  1
  Zn  Zn2  1  0.999815  0.999908  0.283954  1
  Zn  Zn3  1  0.666215  0.333108  0.428641  1
  Zn  Zn4  1  0.333786  0.666892  0.571359  1
  Zn  Zn5  1  0.000185  0.000092  0.716047  1
  Zn  Zn6  1  0.670715  0.335358  0.859090  1
  Cu  Cu7  1  0.500001  0.000000  0.000000  1
  Cu  Cu8  1  0.500000  0.500000  0.000000  1
  Cu  Cu9  1  0.337017  0.168509  0.142237  1
  Cu  Cu10  1  0.830817  0.168971  0.142056  1
  Cu  Cu11  1  0.830818  0.661847  0.142056  1
  Cu  Cu12  1  0.499749  0.999261  0.285450  1
  Cu  Cu13  1  0.000001  0.500001  0.286101  1
  Cu  Cu14  1  0.499748  0.500488  0.285450  1
  Cu  Cu15  1  0.166428  0.332810  0.428404  1
  Cu  Cu16  1  0.166427  0.833617  0.428404  1
  Cu  Cu17  1  0.667263  0.833631  0.428087  1
  Cu  Cu18  1  0.332737  0.166369  0.571913  1
  Cu  Cu19  1  0.833572  0.166383  0.571596  1
  Cu  Cu20  1  0.833573  0.667190  0.571596  1
  Cu  Cu21  1  0.500253  0.499513  0.714550  1
  Cu  Cu22  1  0.999998  0.500000  0.713899  1
  Cu  Cu23  1  0.500252  0.000740  0.714550  1
  Cu  Cu24  1  0.169183  0.338154  0.857944  1
  Cu  Cu25  1  0.169184  0.831029  0.857944  1
  Cu  Cu26  1  0.662982  0.831491  0.857763  1
  Ni  Ni27  1  0.000000  0.500000  0.000000  1
