# generated using pymatgen
data_La8Zn3Si12Hg
_symmetry_space_group_name_H-M   'P 1'
_cell_length_a   11.35387987
_cell_length_b   9.70760013
_cell_length_c   8.31432700
_cell_angle_alpha   77.73375276
_cell_angle_beta   56.59734754
_cell_angle_gamma   45.70924130
_symmetry_Int_Tables_number   1
_chemical_formula_structural   La8Zn3Si12Hg
_chemical_formula_sum   'La8 Zn3 Si12 Hg1'
_cell_volume   524.44423015
_cell_formula_units_Z   1
loop_
 _symmetry_equiv_pos_site_id
 _symmetry_equiv_pos_as_xyz
  1  'x, y, z'
loop_
 _atom_site_type_symbol
 _atom_site_label
 _atom_site_symmetry_multiplicity
 _atom_site_fract_x
 _atom_site_fract_y
 _atom_site_fract_z
 _atom_site_occupancy
  La  La0  1  0.121300  0.124825  0.879965  1
  La  La1  1  0.879589  0.874155  0.121213  1
  La  La2  1  0.122297  0.126996  0.374104  1
  La  La3  1  0.374063  0.376302  0.123004  1
  La  La4  1  0.624880  0.618325  0.376783  1
  La  La5  1  0.376423  0.380138  0.624722  1
  La  La6  1  0.625735  0.627191  0.874596  1
  La  La7  1  0.874711  0.872704  0.625910  1
  Zn  Zn8  1  0.083146  0.417528  0.082085  1
  Zn  Zn9  1  0.833333  0.167786  0.832182  1
  Zn  Zn10  1  0.166692  0.832429  0.167949  1
  Si  Si11  1  0.921094  0.585333  0.411678  1
  Si  Si12  1  0.065126  0.428037  0.593966  1
  Si  Si13  1  0.411128  0.081631  0.921661  1
  Si  Si14  1  0.594764  0.913376  0.064489  1
  Si  Si15  1  0.331559  0.664223  0.834222  1
  Si  Si16  1  0.662201  0.328957  0.171983  1
  Si  Si17  1  0.834739  0.170383  0.330903  1
  Si  Si18  1  0.171639  0.835955  0.662568  1
  Si  Si19  1  0.917106  0.582182  0.918211  1
  Si  Si20  1  0.591138  0.909647  0.590163  1
  Si  Si21  1  0.334165  0.666364  0.333272  1
  Si  Si22  1  0.666415  0.333287  0.666565  1
  Hg  Hg23  1  0.416763  0.082250  0.417802  1
