# generated using pymatgen
data_Y17Tm3Cd3Ni2Au3
_symmetry_space_group_name_H-M   'P 1'
_cell_length_a   9.60824000
_cell_length_b   9.60825803
_cell_length_c   9.55522000
_cell_angle_alpha   90.00000000
_cell_angle_beta   90.00000000
_cell_angle_gamma   120.00013757
_symmetry_Int_Tables_number   1
_chemical_formula_structural   Y17Tm3Cd3Ni2Au3
_chemical_formula_sum   'Y17 Tm3 Cd3 Ni2 Au3'
_cell_volume   763.93994742
_cell_formula_units_Z   1
loop_
 _symmetry_equiv_pos_site_id
 _symmetry_equiv_pos_as_xyz
  1  'x, y, z'
loop_
 _atom_site_type_symbol
 _atom_site_label
 _atom_site_symmetry_multiplicity
 _atom_site_fract_x
 _atom_site_fract_y
 _atom_site_fract_z
 _atom_site_occupancy
  Y  Y0  1  0.000017  0.999991  0.458679  1
  Y  Y1  1  0.000017  0.999991  0.041321  1
  Y  Y2  1  0.456818  0.543150  0.750000  1
  Y  Y3  1  0.456871  0.913696  0.750000  1
  Y  Y4  1  0.086300  0.543157  0.750000  1
  Y  Y5  1  0.209546  0.790486  0.436637  1
  Y  Y6  1  0.209503  0.419048  0.436621  1
  Y  Y7  1  0.580955  0.790462  0.436621  1
  Y  Y8  1  0.790771  0.209232  0.559195  1
  Y  Y9  1  0.790756  0.581538  0.559204  1
  Y  Y10  1  0.418467  0.209238  0.559204  1
  Y  Y11  1  0.790771  0.209232  0.940805  1
  Y  Y12  1  0.790756  0.581538  0.940796  1
  Y  Y13  1  0.418467  0.209238  0.940796  1
  Y  Y14  1  0.209546  0.790486  0.063363  1
  Y  Y15  1  0.209503  0.419048  0.063379  1
  Y  Y16  1  0.580955  0.790462  0.063379  1
  Tm  Tm17  1  0.542292  0.457650  0.250000  1
  Tm  Tm18  1  0.542340  0.084643  0.250000  1
  Tm  Tm19  1  0.915351  0.457714  0.250000  1
  Cd  Cd20  1  0.109845  0.890168  0.750000  1
  Cd  Cd21  1  0.109837  0.219663  0.750000  1
  Cd  Cd22  1  0.780340  0.890152  0.750000  1
  Ni  Ni23  1  0.333326  0.666679  0.250000  1
  Ni  Ni24  1  0.666674  0.333334  0.750000  1
  Au  Au25  1  0.867413  0.132611  0.250000  1
  Au  Au26  1  0.867360  0.734793  0.250000  1
  Au  Au27  1  0.265207  0.132606  0.250000  1
