# generated using pymatgen
data_NaHfZrSe4
_symmetry_space_group_name_H-M   'P 1'
_cell_length_a   3.78708200
_cell_length_b   6.53701244
_cell_length_c   7.72106078
_cell_angle_alpha   73.68674729
_cell_angle_beta   90.00000000
_cell_angle_gamma   90.00000000
_symmetry_Int_Tables_number   1
_chemical_formula_structural   NaHfZrSe4
_chemical_formula_sum   'Na1 Hf1 Zr1 Se4'
_cell_volume   183.44874473
_cell_formula_units_Z   1
loop_
 _symmetry_equiv_pos_site_id
 _symmetry_equiv_pos_as_xyz
  1  'x, y, z'
loop_
 _atom_site_type_symbol
 _atom_site_label
 _atom_site_symmetry_multiplicity
 _atom_site_fract_x
 _atom_site_fract_y
 _atom_site_fract_z
 _atom_site_occupancy
  Na  Na0  1  0.000000  0.500000  0.500000  1
  Hf  Hf1  1  0.500000  0.500000  0.000000  1
  Zr  Zr2  1  0.000000  0.000000  0.000000  1
  Se  Se3  1  0.500000  0.758263  0.220098  1
  Se  Se4  1  0.000000  0.264278  0.215571  1
  Se  Se5  1  0.500000  0.241737  0.779902  1
  Se  Se6  1  0.000000  0.735722  0.784429  1
