# generated using pymatgen
data_Nd8Si12IrPt3
_symmetry_space_group_name_H-M   'P 1'
_cell_length_a   8.25131600
_cell_length_b   8.25131663
_cell_length_c   8.55751100
_cell_angle_alpha   90.00000000
_cell_angle_beta   90.00000000
_cell_angle_gamma   119.99999747
_symmetry_Int_Tables_number   1
_chemical_formula_structural   Nd8Si12IrPt3
_chemical_formula_sum   'Nd8 Si12 Ir1 Pt3'
_cell_volume   504.57366664
_cell_formula_units_Z   1
loop_
 _symmetry_equiv_pos_site_id
 _symmetry_equiv_pos_as_xyz
  1  'x, y, z'
loop_
 _atom_site_type_symbol
 _atom_site_label
 _atom_site_symmetry_multiplicity
 _atom_site_fract_x
 _atom_site_fract_y
 _atom_site_fract_z
 _atom_site_occupancy
  Nd  Nd0  1  0.501473  0.498527  0.752147  1
  Nd  Nd1  1  0.501446  0.498554  0.247863  1
  Nd  Nd2  1  0.997053  0.498527  0.752147  1
  Nd  Nd3  1  0.997109  0.498554  0.247863  1
  Nd  Nd4  1  0.501473  0.002947  0.752147  1
  Nd  Nd5  1  0.501446  0.002891  0.247863  1
  Nd  Nd6  1  0.000000  0.000000  0.749705  1
  Nd  Nd7  1  0.000000  0.000000  0.250209  1
  Si  Si8  1  0.832564  0.167436  0.000132  1
  Si  Si9  1  0.165355  0.834645  0.999931  1
  Si  Si10  1  0.334873  0.167436  0.000132  1
  Si  Si11  1  0.165996  0.834004  0.500255  1
  Si  Si12  1  0.669290  0.834645  0.999931  1
  Si  Si13  1  0.834596  0.165404  0.499632  1
  Si  Si14  1  0.832564  0.665127  0.000132  1
  Si  Si15  1  0.668007  0.834004  0.500255  1
  Si  Si16  1  0.165355  0.330710  0.999931  1
  Si  Si17  1  0.330806  0.165404  0.499632  1
  Si  Si18  1  0.165996  0.331993  0.500255  1
  Si  Si19  1  0.834596  0.669194  0.499632  1
  Ir  Ir20  1  0.666667  0.333333  0.999263  1
  Pt  Pt21  1  0.333333  0.666667  0.000596  1
  Pt  Pt22  1  0.333333  0.666667  0.500562  1
  Pt  Pt23  1  0.666667  0.333333  0.499785  1
