# generated using pymatgen
data_Sr6HoB6RhO18
_symmetry_space_group_name_H-M   'P 1'
_cell_length_a   7.77908949
_cell_length_b   7.77908950
_cell_length_c   7.77908937
_cell_angle_alpha   105.50339306
_cell_angle_beta   105.50338768
_cell_angle_gamma   105.50338367
_symmetry_Int_Tables_number   1
_chemical_formula_structural   Sr6HoB6RhO18
_chemical_formula_sum   'Sr6 Ho1 B6 Rh1 O18'
_cell_volume   406.98805348
_cell_formula_units_Z   1
loop_
 _symmetry_equiv_pos_site_id
 _symmetry_equiv_pos_as_xyz
  1  'x, y, z'
loop_
 _atom_site_type_symbol
 _atom_site_label
 _atom_site_symmetry_multiplicity
 _atom_site_fract_x
 _atom_site_fract_y
 _atom_site_fract_z
 _atom_site_occupancy
  Sr  Sr0  1  0.652155  0.269451  0.165662  1
  Sr  Sr1  1  0.165662  0.652155  0.269451  1
  Sr  Sr2  1  0.730548  0.834339  0.347845  1
  Sr  Sr3  1  0.269452  0.165661  0.652155  1
  Sr  Sr4  1  0.834339  0.347845  0.730549  1
  Sr  Sr5  1  0.347845  0.730549  0.834338  1
  Ho  Ho6  1  0.000000  0.000000  0.000000  1
  B  B7  1  0.295099  0.379484  0.047906  1
  B  B8  1  0.379483  0.047906  0.295099  1
  B  B9  1  0.047906  0.295099  0.379483  1
  B  B10  1  0.952094  0.704902  0.620517  1
  B  B11  1  0.620517  0.952095  0.704901  1
  B  B12  1  0.704902  0.620517  0.952095  1
  Rh  Rh13  1  0.500000  0.500000  0.500000  1
  O  O14  1  0.725053  0.812643  0.009856  1
  O  O15  1  0.806202  0.550616  0.070825  1
  O  O16  1  0.990144  0.274947  0.187355  1
  O  O17  1  0.449383  0.929175  0.193797  1
  O  O18  1  0.432289  0.511168  0.226003  1
  O  O19  1  0.187356  0.990144  0.274946  1
  O  O20  1  0.511167  0.226003  0.432289  1
  O  O21  1  0.929175  0.193797  0.449384  1
  O  O22  1  0.226003  0.432289  0.511168  1
  O  O23  1  0.773997  0.567711  0.488833  1
  O  O24  1  0.070825  0.806202  0.550616  1
  O  O25  1  0.488833  0.773997  0.567711  1
  O  O26  1  0.812643  0.009855  0.725053  1
  O  O27  1  0.567711  0.488833  0.773998  1
  O  O28  1  0.550616  0.070825  0.806203  1
  O  O29  1  0.009855  0.725052  0.812644  1
  O  O30  1  0.193797  0.449383  0.929175  1
  O  O31  1  0.274947  0.187356  0.990144  1
