# generated using pymatgen
data_Ca5La11(InIr)4
_symmetry_space_group_name_H-M   'P 1'
_cell_length_a   10.07085304
_cell_length_b   10.12055283
_cell_length_c   10.12029286
_cell_angle_alpha   60.26991947
_cell_angle_beta   60.18560020
_cell_angle_gamma   60.18673540
_symmetry_Int_Tables_number   1
_chemical_formula_structural   Ca5La11(InIr)4
_chemical_formula_sum   'Ca5 La11 In4 Ir4'
_cell_volume   732.90554914
_cell_formula_units_Z   1
loop_
 _symmetry_equiv_pos_site_id
 _symmetry_equiv_pos_as_xyz
  1  'x, y, z'
loop_
 _atom_site_type_symbol
 _atom_site_label
 _atom_site_symmetry_multiplicity
 _atom_site_fract_x
 _atom_site_fract_y
 _atom_site_fract_z
 _atom_site_occupancy
  Ca  Ca0  1  0.438704  0.438225  0.059440  1
  Ca  Ca1  1  0.062501  0.439464  0.058507  1
  Ca  Ca2  1  0.440106  0.060089  0.060078  1
  Ca  Ca3  1  0.062517  0.058510  0.439471  1
  Ca  Ca4  1  0.438740  0.059456  0.438178  1
  La  La5  1  0.065148  0.435480  0.435494  1
  La  La6  1  0.806999  0.806373  0.194131  1
  La  La7  1  0.193792  0.805381  0.196022  1
  La  La8  1  0.802958  0.196454  0.196466  1
  La  La9  1  0.193810  0.196030  0.805355  1
  La  La10  1  0.807003  0.194114  0.806406  1
  La  La11  1  0.196498  0.803865  0.803839  1
  La  La12  1  0.653045  0.653322  0.041495  1
  La  La13  1  0.653075  0.041458  0.653333  1
  La  La14  1  0.041308  0.653000  0.652972  1
  La  La15  1  0.650242  0.653336  0.653325  1
  In  In16  1  0.417240  0.418508  0.745893  1
  In  In17  1  0.417233  0.745921  0.418502  1
  In  In18  1  0.742528  0.420567  0.420600  1
  In  In19  1  0.417457  0.421012  0.420996  1
  Ir  Ir20  1  0.860041  0.859203  0.418854  1
  Ir  Ir21  1  0.860102  0.418853  0.859197  1
  Ir  Ir22  1  0.419868  0.860332  0.860375  1
  Ir  Ir23  1  0.859084  0.861048  0.861068  1
