# generated using pymatgen
data_Ba10Si5Bi
_symmetry_space_group_name_H-M   'P 1'
_cell_length_a   8.56755700
_cell_length_b   8.56755700
_cell_length_c   16.96719200
_cell_angle_alpha   90.00000000
_cell_angle_beta   90.00000000
_cell_angle_gamma   90.00000000
_symmetry_Int_Tables_number   1
_chemical_formula_structural   Ba10Si5Bi
_chemical_formula_sum   'Ba20 Si10 Bi2'
_cell_volume   1245.44335342
_cell_formula_units_Z   2
loop_
 _symmetry_equiv_pos_site_id
 _symmetry_equiv_pos_as_xyz
  1  'x, y, z'
loop_
 _atom_site_type_symbol
 _atom_site_label
 _atom_site_symmetry_multiplicity
 _atom_site_fract_x
 _atom_site_fract_y
 _atom_site_fract_z
 _atom_site_occupancy
  Ba  Ba0  1  0.313430  0.668098  0.114408  1
  Ba  Ba1  1  0.168098  0.186570  0.114408  1
  Ba  Ba2  1  0.500000  0.000000  0.718788  1
  Ba  Ba3  1  0.330209  0.688830  0.394436  1
  Ba  Ba4  1  0.668098  0.686570  0.885592  1
  Ba  Ba5  1  0.188830  0.169791  0.394436  1
  Ba  Ba6  1  0.669791  0.311170  0.394436  1
  Ba  Ba7  1  0.169791  0.811170  0.605564  1
  Ba  Ba8  1  0.331902  0.313430  0.885592  1
  Ba  Ba9  1  0.186570  0.831902  0.885592  1
  Ba  Ba10  1  0.500000  0.000000  0.240459  1
  Ba  Ba11  1  0.830209  0.188830  0.605564  1
  Ba  Ba12  1  0.311170  0.330209  0.605564  1
  Ba  Ba13  1  0.811170  0.830209  0.394436  1
  Ba  Ba14  1  0.813430  0.168098  0.885592  1
  Ba  Ba15  1  0.831902  0.813430  0.114408  1
  Ba  Ba16  1  0.000000  0.500000  0.281212  1
  Ba  Ba17  1  0.000000  0.500000  0.759541  1
  Ba  Ba18  1  0.686570  0.331902  0.114408  1
  Ba  Ba19  1  0.688830  0.669791  0.605564  1
  Si  Si20  1  0.101020  0.102126  0.747938  1
  Si  Si21  1  0.397874  0.601020  0.747938  1
  Si  Si22  1  0.601020  0.602126  0.252062  1
  Si  Si23  1  0.102126  0.898980  0.252062  1
  Si  Si24  1  0.602126  0.398980  0.747938  1
  Si  Si25  1  0.898980  0.897874  0.747938  1
  Si  Si26  1  0.398980  0.397874  0.252062  1
  Si  Si27  1  0.897874  0.101020  0.252062  1
  Si  Si28  1  0.500000  0.000000  0.511060  1
  Si  Si29  1  0.000000  0.500000  0.488940  1
  Bi  Bi30  1  0.000000  0.500000  0.987241  1
  Bi  Bi31  1  0.500000  0.000000  0.012759  1
