# generated using pymatgen
data_Sm4DyTa3(Co4P3)4
_symmetry_space_group_name_H-M   'P 1'
_cell_length_a   12.25384904
_cell_length_b   12.25206552
_cell_length_c   3.73235900
_cell_angle_alpha   90.00000000
_cell_angle_beta   90.00000000
_cell_angle_gamma   119.99517450
_symmetry_Int_Tables_number   1
_chemical_formula_structural   Sm4DyTa3(Co4P3)4
_chemical_formula_sum   'Sm4 Dy1 Ta3 Co16 P12'
_cell_volume   485.30748947
_cell_formula_units_Z   1
loop_
 _symmetry_equiv_pos_site_id
 _symmetry_equiv_pos_as_xyz
  1  'x, y, z'
loop_
 _atom_site_type_symbol
 _atom_site_label
 _atom_site_symmetry_multiplicity
 _atom_site_fract_x
 _atom_site_fract_y
 _atom_site_fract_z
 _atom_site_occupancy
  Sm  Sm0  1  0.666625  0.333397  0.000000  1
  Sm  Sm1  1  0.333375  0.666773  0.000000  1
  Sm  Sm2  1  0.183902  0.183666  0.500000  1
  Sm  Sm3  1  0.816098  0.999764  0.500000  1
  Dy  Dy4  1  0.000000  0.815773  0.500000  1
  Ta  Ta5  1  0.557591  0.557476  0.000000  1
  Ta  Ta6  1  0.442409  0.999886  0.000000  1
  Ta  Ta7  1  0.000000  0.443309  0.000000  1
  Co  Co8  1  0.823680  0.198711  0.000000  1
  Co  Co9  1  0.802673  0.626058  0.000000  1
  Co  Co10  1  0.374806  0.176178  0.000000  1
  Co  Co11  1  0.197327  0.823386  0.000000  1
  Co  Co12  1  0.625194  0.801373  0.000000  1
  Co  Co13  1  0.176320  0.375032  0.000000  1
  Co  Co14  1  0.644532  0.125399  0.500000  1
  Co  Co15  1  0.874846  0.519781  0.500000  1
  Co  Co16  1  0.480805  0.355429  0.500000  1
  Co  Co17  1  0.125154  0.644936  0.500000  1
  Co  Co18  1  0.519195  0.874625  0.500000  1
  Co  Co19  1  0.355468  0.480867  0.500000  1
  Co  Co20  1  0.719897  0.719128  0.500000  1
  Co  Co21  1  0.280103  0.999231  0.500000  1
  Co  Co22  1  0.000000  0.281190  0.500000  1
  Co  Co23  1  0.000000  0.998933  0.000000  1
  P  P24  1  0.358229  0.358166  0.000000  1
  P  P25  1  0.641771  0.999937  0.000000  1
  P  P26  1  0.000000  0.643472  0.000000  1
  P  P27  1  0.832995  0.311120  0.500000  1
  P  P28  1  0.688995  0.521973  0.500000  1
  P  P29  1  0.477670  0.166833  0.500000  1
  P  P30  1  0.311005  0.832978  0.500000  1
  P  P31  1  0.522330  0.689163  0.500000  1
  P  P32  1  0.167005  0.478125  0.500000  1
  P  P33  1  0.822176  0.820452  0.000000  1
  P  P34  1  0.177824  0.998276  0.000000  1
  P  P35  1  0.000000  0.179205  0.000000  1
