# generated using pymatgen
data_Li3Y14Tm2InRh4
_symmetry_space_group_name_H-M   'P 1'
_cell_length_a   9.71666516
_cell_length_b   9.71763714
_cell_length_c   9.72256401
_cell_angle_alpha   59.66112438
_cell_angle_beta   59.66137979
_cell_angle_gamma   59.67779679
_symmetry_Int_Tables_number   1
_chemical_formula_structural   Li3Y14Tm2InRh4
_chemical_formula_sum   'Li3 Y14 Tm2 In1 Rh4'
_cell_volume   644.23333629
_cell_formula_units_Z   1
loop_
 _symmetry_equiv_pos_site_id
 _symmetry_equiv_pos_as_xyz
  1  'x, y, z'
loop_
 _atom_site_type_symbol
 _atom_site_label
 _atom_site_symmetry_multiplicity
 _atom_site_fract_x
 _atom_site_fract_y
 _atom_site_fract_z
 _atom_site_occupancy
  Li  Li0  1  0.424704  0.424682  0.426977  1
  Li  Li1  1  0.725384  0.424677  0.427501  1
  Li  Li2  1  0.424815  0.725361  0.427324  1
  Y  Y3  1  0.064038  0.063990  0.436594  1
  Y  Y4  1  0.437384  0.061712  0.437582  1
  Y  Y5  1  0.063083  0.436010  0.066611  1
  Y  Y6  1  0.043582  0.650931  0.653426  1
  Y  Y7  1  0.436411  0.436463  0.063083  1
  Y  Y8  1  0.650889  0.043677  0.653414  1
  Y  Y9  1  0.187069  0.816897  0.183093  1
  Y  Y10  1  0.189722  0.189834  0.811432  1
  Y  Y11  1  0.814859  0.814838  0.184266  1
  Y  Y12  1  0.435909  0.063341  0.066414  1
  Y  Y13  1  0.816992  0.186892  0.183134  1
  Y  Y14  1  0.061809  0.437287  0.437625  1
  Y  Y15  1  0.809036  0.189948  0.811731  1
  Y  Y16  1  0.189967  0.809097  0.811671  1
  Tm  Tm17  1  0.656691  0.656620  0.027132  1
  Tm  Tm18  1  0.652041  0.651993  0.655205  1
  In  In19  1  0.418983  0.419126  0.744770  1
  Rh  Rh20  1  0.855455  0.855489  0.426713  1
  Rh  Rh21  1  0.857804  0.857804  0.857212  1
  Rh  Rh22  1  0.428621  0.854746  0.853620  1
  Rh  Rh23  1  0.854754  0.428583  0.853473  1
