# generated using pymatgen
data_Dy3Lu2In(TeO6)3
_symmetry_space_group_name_H-M   'P 1'
_cell_length_a   9.07337233
_cell_length_b   9.07337261
_cell_length_c   5.16671887
_cell_angle_alpha   90.26295261
_cell_angle_beta   89.73705045
_cell_angle_gamma   120.18753677
_symmetry_Int_Tables_number   1
_chemical_formula_structural   Dy3Lu2In(TeO6)3
_chemical_formula_sum   'Dy3 Lu2 In1 Te3 O18'
_cell_volume   367.66563876
_cell_formula_units_Z   1
loop_
 _symmetry_equiv_pos_site_id
 _symmetry_equiv_pos_as_xyz
  1  'x, y, z'
loop_
 _atom_site_type_symbol
 _atom_site_label
 _atom_site_symmetry_multiplicity
 _atom_site_fract_x
 _atom_site_fract_y
 _atom_site_fract_z
 _atom_site_occupancy
  Dy  Dy0  1  0.619511  0.001318  0.998251  1
  Dy  Dy1  1  0.001318  0.619511  0.001749  1
  Dy  Dy2  1  0.378249  0.378249  0.000000  1
  Lu  Lu3  1  0.283196  0.000156  0.500032  1
  Lu  Lu4  1  0.000156  0.283196  0.499968  1
  In  In5  1  0.710044  0.710044  0.500000  1
  Te  Te6  1  0.997642  0.997642  0.000000  1
  Te  Te7  1  0.334945  0.667683  0.499299  1
  Te  Te8  1  0.667683  0.334945  0.500701  1
  O  O9  1  0.088404  0.880848  0.798060  1
  O  O10  1  0.118421  0.199648  0.784301  1
  O  O11  1  0.796235  0.913622  0.779608  1
  O  O12  1  0.199648  0.118421  0.215699  1
  O  O13  1  0.913622  0.796235  0.220392  1
  O  O14  1  0.880848  0.088404  0.201940  1
  O  O15  1  0.459102  0.591297  0.716031  1
  O  O16  1  0.408581  0.870026  0.712356  1
  O  O17  1  0.131777  0.539483  0.712365  1
  O  O18  1  0.870026  0.408581  0.287644  1
  O  O19  1  0.539483  0.131777  0.287635  1
  O  O20  1  0.591297  0.459102  0.283969  1
  O  O21  1  0.229743  0.766516  0.283741  1
  O  O22  1  0.235246  0.461357  0.285503  1
  O  O23  1  0.541431  0.775519  0.285214  1
  O  O24  1  0.461357  0.235246  0.714497  1
  O  O25  1  0.775519  0.541431  0.714786  1
  O  O26  1  0.766516  0.229743  0.716259  1
