# generated using pymatgen
data_CeU(AsP)2
_symmetry_space_group_name_H-M   'P 1'
_cell_length_a   3.91208700
_cell_length_b   3.91208700
_cell_length_c   8.04901400
_cell_angle_alpha   90.00000000
_cell_angle_beta   90.00000000
_cell_angle_gamma   90.00000000
_symmetry_Int_Tables_number   1
_chemical_formula_structural   CeU(AsP)2
_chemical_formula_sum   'Ce1 U1 As2 P2'
_cell_volume   123.18552864
_cell_formula_units_Z   1
loop_
 _symmetry_equiv_pos_site_id
 _symmetry_equiv_pos_as_xyz
  1  'x, y, z'
loop_
 _atom_site_type_symbol
 _atom_site_label
 _atom_site_symmetry_multiplicity
 _atom_site_fract_x
 _atom_site_fract_y
 _atom_site_fract_z
 _atom_site_occupancy
  Ce  Ce0  1  0.000000  0.500000  0.706253  1
  U  U1  1  0.500000  0.000000  0.295843  1
  As  As2  1  0.000000  0.000000  0.009194  1
  As  As3  1  0.500000  0.500000  0.009194  1
  P  P4  1  0.000000  0.500000  0.348702  1
  P  P5  1  0.500000  0.000000  0.630814  1
