# generated using pymatgen
data_Pu(Ni5P3)2
_symmetry_space_group_name_H-M   'P 1'
_cell_length_a   8.55998976
_cell_length_b   8.55999069
_cell_length_c   8.64280000
_cell_angle_alpha   90.00000000
_cell_angle_beta   90.00000000
_cell_angle_gamma   44.25912331
_symmetry_Int_Tables_number   1
_chemical_formula_structural   Pu(Ni5P3)2
_chemical_formula_sum   'Pu2 Ni20 P12'
_cell_volume   441.97428788
_cell_formula_units_Z   2
loop_
 _symmetry_equiv_pos_site_id
 _symmetry_equiv_pos_as_xyz
  1  'x, y, z'
loop_
 _atom_site_type_symbol
 _atom_site_label
 _atom_site_symmetry_multiplicity
 _atom_site_fract_x
 _atom_site_fract_y
 _atom_site_fract_z
 _atom_site_occupancy
  Pu  Pu0  1  0.500000  0.500000  0.000000  1
  Pu  Pu1  1  0.000000  0.000000  0.500000  1
  Ni  Ni2  1  0.204824  0.204824  0.290371  1
  Ni  Ni3  1  0.295177  0.295177  0.790371  1
  Ni  Ni4  1  0.795177  0.795177  0.709630  1
  Ni  Ni5  1  0.704823  0.704823  0.209628  1
  Ni  Ni6  1  0.086162  0.586162  0.250000  1
  Ni  Ni7  1  0.413838  0.913838  0.750000  1
  Ni  Ni8  1  0.913838  0.413838  0.750000  1
  Ni  Ni9  1  0.586162  0.086162  0.250000  1
  Ni  Ni10  1  0.373220  0.971937  0.030723  1
  Ni  Ni11  1  0.126780  0.528063  0.530723  1
  Ni  Ni12  1  0.028063  0.626780  0.969276  1
  Ni  Ni13  1  0.471937  0.873220  0.469276  1
  Ni  Ni14  1  0.626780  0.028063  0.969276  1
  Ni  Ni15  1  0.873220  0.471937  0.469276  1
  Ni  Ni16  1  0.971937  0.373220  0.030723  1
  Ni  Ni17  1  0.528063  0.126780  0.530723  1
  Ni  Ni18  1  0.042338  0.042338  0.120182  1
  Ni  Ni19  1  0.457662  0.457662  0.620182  1
  Ni  Ni20  1  0.957662  0.957662  0.879819  1
  Ni  Ni21  1  0.542338  0.542338  0.379819  1
  P  P22  1  0.092043  0.092043  0.869434  1
  P  P23  1  0.407957  0.407957  0.369435  1
  P  P24  1  0.907957  0.907957  0.130565  1
  P  P25  1  0.592043  0.592043  0.630565  1
  P  P26  1  0.351258  0.851258  0.250000  1
  P  P27  1  0.148742  0.648742  0.750000  1
  P  P28  1  0.648742  0.148742  0.750000  1
  P  P29  1  0.851258  0.351258  0.250000  1
  P  P30  1  0.207895  0.207895  0.571307  1
  P  P31  1  0.292105  0.292105  0.071307  1
  P  P32  1  0.792105  0.792105  0.428693  1
  P  P33  1  0.707895  0.707895  0.928693  1
