# generated using pymatgen
data_DyHo17(BiO)10
_symmetry_space_group_name_H-M   'P 1'
_cell_length_a   9.98811000
_cell_length_b   9.98811000
_cell_length_c   8.90601200
_cell_angle_alpha   90.00000000
_cell_angle_beta   90.00000000
_cell_angle_gamma   90.00000000
_symmetry_Int_Tables_number   1
_chemical_formula_structural   DyHo17(BiO)10
_chemical_formula_sum   'Dy1 Ho17 Bi10 O10'
_cell_volume   888.48460941
_cell_formula_units_Z   1
loop_
 _symmetry_equiv_pos_site_id
 _symmetry_equiv_pos_as_xyz
  1  'x, y, z'
loop_
 _atom_site_type_symbol
 _atom_site_label
 _atom_site_symmetry_multiplicity
 _atom_site_fract_x
 _atom_site_fract_y
 _atom_site_fract_z
 _atom_site_occupancy
  Dy  Dy0  1  0.000000  0.500000  0.320866  1
  Ho  Ho1  1  0.500000  0.000000  0.679986  1
  Ho  Ho2  1  0.792999  0.105501  0.335159  1
  Ho  Ho3  1  0.274547  0.083712  0.002257  1
  Ho  Ho4  1  0.583712  0.225453  0.002257  1
  Ho  Ho5  1  0.207001  0.894499  0.335159  1
  Ho  Ho6  1  0.605501  0.707001  0.335159  1
  Ho  Ho7  1  0.292936  0.605455  0.664799  1
  Ho  Ho8  1  0.416288  0.774547  0.002257  1
  Ho  Ho9  1  0.225398  0.416302  0.997666  1
  Ho  Ho10  1  0.894545  0.792936  0.664799  1
  Ho  Ho11  1  0.083698  0.725398  0.997666  1
  Ho  Ho12  1  0.916302  0.274602  0.997666  1
  Ho  Ho13  1  0.774602  0.583698  0.997666  1
  Ho  Ho14  1  0.725453  0.916288  0.002257  1
  Ho  Ho15  1  0.394499  0.292999  0.335159  1
  Ho  Ho16  1  0.707064  0.394545  0.664799  1
  Ho  Ho17  1  0.105455  0.207064  0.664799  1
  Bi  Bi18  1  0.594764  0.693961  0.696672  1
  Bi  Bi19  1  0.905122  0.806349  0.303291  1
  Bi  Bi20  1  0.693651  0.405122  0.303291  1
  Bi  Bi21  1  0.000000  0.500000  0.680920  1
  Bi  Bi22  1  0.306349  0.594878  0.303291  1
  Bi  Bi23  1  0.806039  0.094764  0.696672  1
  Bi  Bi24  1  0.405236  0.306039  0.696672  1
  Bi  Bi25  1  0.193961  0.905236  0.696672  1
  Bi  Bi26  1  0.094878  0.193651  0.303291  1
  Bi  Bi27  1  0.500000  0.000000  0.319556  1
  O  O28  1  0.226142  0.879829  0.083804  1
  O  O29  1  0.273912  0.620176  0.916204  1
  O  O30  1  0.120176  0.226088  0.916204  1
  O  O31  1  0.879824  0.773912  0.916204  1
  O  O32  1  0.726088  0.379824  0.916204  1
  O  O33  1  0.500000  0.000000  0.937117  1
  O  O34  1  0.773858  0.120171  0.083804  1
  O  O35  1  0.000000  0.500000  0.062144  1
  O  O36  1  0.379829  0.273858  0.083804  1
  O  O37  1  0.620171  0.726142  0.083804  1
