# generated using pymatgen
data_TbTm3(Sc4Bi3)4
_symmetry_space_group_name_H-M   'P 1'
_cell_length_a   7.87429215
_cell_length_b   9.05707900
_cell_length_c   11.54166822
_cell_angle_alpha   90.00000000
_cell_angle_beta   89.97778404
_cell_angle_gamma   90.00000000
_symmetry_Int_Tables_number   1
_chemical_formula_structural   TbTm3(Sc4Bi3)4
_chemical_formula_sum   'Tb1 Tm3 Sc16 Bi12'
_cell_volume   823.12962522
_cell_formula_units_Z   1
loop_
 _symmetry_equiv_pos_site_id
 _symmetry_equiv_pos_as_xyz
  1  'x, y, z'
loop_
 _atom_site_type_symbol
 _atom_site_label
 _atom_site_symmetry_multiplicity
 _atom_site_fract_x
 _atom_site_fract_y
 _atom_site_fract_z
 _atom_site_occupancy
  Tb  Tb0  1  0.183991  0.250000  0.781076  1
  Tm  Tm1  1  0.815471  0.750000  0.218262  1
  Tm  Tm2  1  0.315395  0.750000  0.281746  1
  Tm  Tm3  1  0.684444  0.250000  0.718270  1
  Sc  Sc4  1  0.018491  0.250000  0.511035  1
  Sc  Sc5  1  0.980970  0.750000  0.488469  1
  Sc  Sc6  1  0.481386  0.750000  0.011614  1
  Sc  Sc7  1  0.519010  0.250000  0.989061  1
  Sc  Sc8  1  0.350832  0.250000  0.279759  1
  Sc  Sc9  1  0.649522  0.750000  0.719901  1
  Sc  Sc10  1  0.149307  0.750000  0.779840  1
  Sc  Sc11  1  0.850611  0.250000  0.220398  1
  Sc  Sc12  1  0.193343  0.067403  0.062404  1
  Sc  Sc13  1  0.806889  0.932645  0.937898  1
  Sc  Sc14  1  0.306463  0.932616  0.561923  1
  Sc  Sc15  1  0.806889  0.567355  0.937898  1
  Sc  Sc16  1  0.693635  0.067268  0.437833  1
  Sc  Sc17  1  0.193343  0.432597  0.062404  1
  Sc  Sc18  1  0.693635  0.432732  0.437833  1
  Sc  Sc19  1  0.306463  0.567384  0.561923  1
  Bi  Bi20  1  0.403393  0.250000  0.533908  1
  Bi  Bi21  1  0.597167  0.750000  0.465401  1
  Bi  Bi22  1  0.097450  0.750000  0.034518  1
  Bi  Bi23  1  0.901430  0.250000  0.966651  1
  Bi  Bi24  1  0.064949  0.008647  0.327969  1
  Bi  Bi25  1  0.933966  0.990420  0.671541  1
  Bi  Bi26  1  0.436537  0.990267  0.828290  1
  Bi  Bi27  1  0.933966  0.509580  0.671541  1
  Bi  Bi28  1  0.564783  0.008566  0.172187  1
  Bi  Bi29  1  0.064949  0.491353  0.327969  1
  Bi  Bi30  1  0.564783  0.491434  0.172187  1
  Bi  Bi31  1  0.436537  0.509733  0.828290  1
