# generated using pymatgen
data_Ac6Al3Sn7
_symmetry_space_group_name_H-M   'P 1'
_cell_length_a   6.83417431
_cell_length_b   6.83417589
_cell_length_c   10.79425628
_cell_angle_alpha   90.05986249
_cell_angle_beta   90.05986447
_cell_angle_gamma   102.42288767
_symmetry_Int_Tables_number   1
_chemical_formula_structural   Ac6Al3Sn7
_chemical_formula_sum   'Ac6 Al3 Sn7'
_cell_volume   492.35120556
_cell_formula_units_Z   1
loop_
 _symmetry_equiv_pos_site_id
 _symmetry_equiv_pos_as_xyz
  1  'x, y, z'
loop_
 _atom_site_type_symbol
 _atom_site_label
 _atom_site_symmetry_multiplicity
 _atom_site_fract_x
 _atom_site_fract_y
 _atom_site_fract_z
 _atom_site_occupancy
  Ac  Ac0  1  0.644671  0.644671  0.241037  1
  Ac  Ac1  1  0.356552  0.356552  0.749879  1
  Ac  Ac2  1  0.203815  0.799554  0.501404  1
  Ac  Ac3  1  0.203335  0.795546  0.001590  1
  Ac  Ac4  1  0.799554  0.203815  0.501404  1
  Ac  Ac5  1  0.795546  0.203335  0.001590  1
  Al  Al6  1  0.311463  0.311463  0.054476  1
  Al  Al7  1  0.686881  0.686881  0.942783  1
  Al  Al8  1  0.309141  0.309141  0.443452  1
  Sn  Sn9  1  0.038047  0.038047  0.250469  1
  Sn  Sn10  1  0.965044  0.965044  0.754504  1
  Sn  Sn11  1  0.678777  0.678777  0.545538  1
  Sn  Sn12  1  0.487287  0.098072  0.250706  1
  Sn  Sn13  1  0.909665  0.512151  0.755231  1
  Sn  Sn14  1  0.512151  0.909665  0.755231  1
  Sn  Sn15  1  0.098072  0.487287  0.250706  1
