# generated using pymatgen
data_Sm5P12Ru6Rh13
_symmetry_space_group_name_H-M   'P 1'
_cell_length_a   12.70659308
_cell_length_b   12.71699665
_cell_length_c   3.96460300
_cell_angle_alpha   90.00000000
_cell_angle_beta   90.00000000
_cell_angle_gamma   120.10378052
_symmetry_Int_Tables_number   1
_chemical_formula_structural   Sm5P12Ru6Rh13
_chemical_formula_sum   'Sm5 P12 Ru6 Rh13'
_cell_volume   554.22855396
_cell_formula_units_Z   1
loop_
 _symmetry_equiv_pos_site_id
 _symmetry_equiv_pos_as_xyz
  1  'x, y, z'
loop_
 _atom_site_type_symbol
 _atom_site_label
 _atom_site_symmetry_multiplicity
 _atom_site_fract_x
 _atom_site_fract_y
 _atom_site_fract_z
 _atom_site_occupancy
  Sm  Sm0  1  0.668393  0.332064  0.000000  1
  Sm  Sm1  1  0.332616  0.667271  0.000000  1
  Sm  Sm2  1  0.813949  0.000997  0.500000  1
  Sm  Sm3  1  0.184981  0.186913  0.500000  1
  Sm  Sm4  1  0.999485  0.813191  0.500000  1
  P  P5  1  0.634390  0.999575  0.000000  1
  P  P6  1  0.365865  0.366433  0.000000  1
  P  P7  1  0.000492  0.632067  0.000000  1
  P  P8  1  0.688542  0.519954  0.500000  1
  P  P9  1  0.832774  0.309536  0.500000  1
  P  P10  1  0.316098  0.834842  0.500000  1
  P  P11  1  0.519876  0.691532  0.500000  1
  P  P12  1  0.182037  0.999834  0.000000  1
  P  P13  1  0.817389  0.816955  0.000000  1
  P  P14  1  0.996685  0.180473  0.000000  1
  P  P15  1  0.478041  0.167159  0.500000  1
  P  P16  1  0.164494  0.479294  0.500000  1
  Ru  Ru17  1  0.514379  0.875004  0.500000  1
  Ru  Ru18  1  0.713954  0.713493  0.500000  1
  Ru  Ru19  1  0.000582  0.285892  0.500000  1
  Ru  Ru20  1  0.003567  0.451852  0.000000  1
  Ru  Ru21  1  0.818653  0.196339  0.000000  1
  Ru  Ru22  1  0.283043  0.999288  0.500000  1
  Rh  Rh23  1  0.623240  0.803497  0.000000  1
  Rh  Rh24  1  0.181517  0.375806  0.000000  1
  Rh  Rh25  1  0.376159  0.181830  0.000000  1
  Rh  Rh26  1  0.195896  0.818138  0.000000  1
  Rh  Rh27  1  0.802887  0.620541  0.000000  1
  Rh  Rh28  1  0.873607  0.510653  0.500000  1
  Rh  Rh29  1  0.490544  0.360378  0.500000  1
  Rh  Rh30  1  0.637262  0.128846  0.500000  1
  Rh  Rh31  1  0.128232  0.640104  0.500000  1
  Rh  Rh32  1  0.358979  0.491359  0.500000  1
  Rh  Rh33  1  0.999609  0.998952  0.000000  1
  Rh  Rh34  1  0.454158  0.002071  0.000000  1
  Rh  Rh35  1  0.547626  0.547865  0.000000  1
