# generated using pymatgen
data_TbErCrSbO7
_symmetry_space_group_name_H-M   'P 1'
_cell_length_a   7.26394669
_cell_length_b   7.24072352
_cell_length_c   7.33018900
_cell_angle_alpha   89.99995236
_cell_angle_beta   59.69834541
_cell_angle_gamma   119.89435297
_symmetry_Int_Tables_number   1
_chemical_formula_structural   TbErCrSbO7
_chemical_formula_sum   'Tb2 Er2 Cr2 Sb2 O14'
_cell_volume   271.80494383
_cell_formula_units_Z   2
loop_
 _symmetry_equiv_pos_site_id
 _symmetry_equiv_pos_as_xyz
  1  'x, y, z'
loop_
 _atom_site_type_symbol
 _atom_site_label
 _atom_site_symmetry_multiplicity
 _atom_site_fract_x
 _atom_site_fract_y
 _atom_site_fract_z
 _atom_site_occupancy
  Tb  Tb0  1  0.000147  0.000021  0.500017  1
  Tb  Tb1  1  0.999781  0.999851  0.000232  1
  Er  Er2  1  0.499976  0.499982  0.999924  1
  Er  Er3  1  0.500023  0.000023  0.999962  1
  Cr  Cr4  1  0.500204  0.000070  0.500003  1
  Cr  Cr5  1  0.500054  0.500062  0.499949  1
  Sb  Sb6  1  0.000001  0.500016  0.999981  1
  Sb  Sb7  1  0.000001  0.499985  0.499971  1
  O  O8  1  0.261856  0.130941  0.119078  1
  O  O9  1  0.738110  0.869060  0.880952  1
  O  O10  1  0.680615  0.840300  0.409693  1
  O  O11  1  0.836743  0.418400  0.831610  1
  O  O12  1  0.253582  0.831779  0.837343  1
  O  O13  1  0.253610  0.421853  0.409030  1
  O  O14  1  0.253597  0.421864  0.837301  1
  O  O15  1  0.253611  0.831726  0.409086  1
  O  O16  1  0.319254  0.159613  0.590347  1
  O  O17  1  0.163324  0.581681  0.168311  1
  O  O18  1  0.746357  0.168289  0.162727  1
  O  O19  1  0.746402  0.578120  0.590864  1
  O  O20  1  0.746373  0.578118  0.162687  1
  O  O21  1  0.746383  0.168244  0.590932  1
