# generated using pymatgen
data_Nd16Y3InIr12
_symmetry_space_group_name_H-M   'P 1'
_cell_length_a   11.22104600
_cell_length_b   11.22104600
_cell_length_c   6.44086200
_cell_angle_alpha   90.00000000
_cell_angle_beta   90.00000000
_cell_angle_gamma   90.00000000
_symmetry_Int_Tables_number   1
_chemical_formula_structural   Nd16Y3InIr12
_chemical_formula_sum   'Nd16 Y3 In1 Ir12'
_cell_volume   810.98100031
_cell_formula_units_Z   1
loop_
 _symmetry_equiv_pos_site_id
 _symmetry_equiv_pos_as_xyz
  1  'x, y, z'
loop_
 _atom_site_type_symbol
 _atom_site_label
 _atom_site_symmetry_multiplicity
 _atom_site_fract_x
 _atom_site_fract_y
 _atom_site_fract_z
 _atom_site_occupancy
  Nd  Nd0  1  0.280841  0.084837  0.382387  1
  Nd  Nd1  1  0.289576  0.911610  0.882337  1
  Nd  Nd2  1  0.710424  0.088390  0.882337  1
  Nd  Nd3  1  0.719159  0.915163  0.382387  1
  Nd  Nd4  1  0.588731  0.789812  0.883867  1
  Nd  Nd5  1  0.587403  0.210180  0.380408  1
  Nd  Nd6  1  0.412597  0.789820  0.380408  1
  Nd  Nd7  1  0.411269  0.210188  0.883867  1
  Nd  Nd8  1  0.210180  0.412597  0.619592  1
  Nd  Nd9  1  0.210188  0.588731  0.116133  1
  Nd  Nd10  1  0.789812  0.411269  0.116133  1
  Nd  Nd11  1  0.789820  0.587403  0.619592  1
  Nd  Nd12  1  0.911610  0.710424  0.117663  1
  Nd  Nd13  1  0.915163  0.280841  0.617613  1
  Nd  Nd14  1  0.084837  0.719159  0.617613  1
  Nd  Nd15  1  0.088390  0.289576  0.117663  1
  Y  Y16  1  0.000000  0.000000  0.000000  1
  Y  Y17  1  0.500000  0.500000  0.000000  1
  Y  Y18  1  0.500000  0.500000  0.500000  1
  In  In19  1  0.000000  0.000000  0.500000  1
  Ir  Ir20  1  0.849087  0.153160  0.244540  1
  Ir  Ir21  1  0.846840  0.849087  0.755460  1
  Ir  Ir22  1  0.153160  0.150913  0.755460  1
  Ir  Ir23  1  0.150913  0.846840  0.244540  1
  Ir  Ir24  1  0.651594  0.349689  0.746900  1
  Ir  Ir25  1  0.650311  0.651594  0.253100  1
  Ir  Ir26  1  0.349689  0.348406  0.253100  1
  Ir  Ir27  1  0.348406  0.650311  0.746900  1
  Ir  Ir28  1  0.500000  0.000000  0.124005  1
  Ir  Ir29  1  0.500000  0.000000  0.618311  1
  Ir  Ir30  1  0.000000  0.500000  0.875995  1
  Ir  Ir31  1  0.000000  0.500000  0.381689  1
