# generated using pymatgen
data_NdHo4Zr5(Si5Ir2)4
_symmetry_space_group_name_H-M   'P 1'
_cell_length_a   12.53124184
_cell_length_b   12.52943584
_cell_length_c   4.18458000
_cell_angle_alpha   90.00000000
_cell_angle_beta   90.00000000
_cell_angle_gamma   90.15753403
_symmetry_Int_Tables_number   1
_chemical_formula_structural   NdHo4Zr5(Si5Ir2)4
_chemical_formula_sum   'Nd1 Ho4 Zr5 Si20 Ir8'
_cell_volume   657.01587249
_cell_formula_units_Z   1
loop_
 _symmetry_equiv_pos_site_id
 _symmetry_equiv_pos_as_xyz
  1  'x, y, z'
loop_
 _atom_site_type_symbol
 _atom_site_label
 _atom_site_symmetry_multiplicity
 _atom_site_fract_x
 _atom_site_fract_y
 _atom_site_fract_z
 _atom_site_occupancy
  Nd  Nd0  1  0.884191  0.384626  0.500000  1
  Ho  Ho1  1  0.000081  0.999397  0.000000  1
  Ho  Ho2  1  0.115993  0.615798  0.500000  1
  Ho  Ho3  1  0.384564  0.115749  0.500000  1
  Ho  Ho4  1  0.615494  0.884345  0.500000  1
  Zr  Zr5  1  0.499444  0.500045  0.000000  1
  Zr  Zr6  1  0.673427  0.174728  0.500000  1
  Zr  Zr7  1  0.326065  0.824754  0.500000  1
  Zr  Zr8  1  0.176227  0.325771  0.500000  1
  Zr  Zr9  1  0.824340  0.674938  0.500000  1
  Si  Si10  1  0.566039  0.067398  0.000000  1
  Si  Si11  1  0.433865  0.932464  0.000000  1
  Si  Si12  1  0.068551  0.433526  0.000000  1
  Si  Si13  1  0.932206  0.567328  0.000000  1
  Si  Si14  1  0.664729  0.701426  0.000000  1
  Si  Si15  1  0.334947  0.299749  0.000000  1
  Si  Si16  1  0.164661  0.800950  0.000000  1
  Si  Si17  1  0.835710  0.198031  0.000000  1
  Si  Si18  1  0.299824  0.665338  0.000000  1
  Si  Si19  1  0.699063  0.335012  0.000000  1
  Si  Si20  1  0.200195  0.163865  0.000000  1
  Si  Si21  1  0.800965  0.835786  0.000000  1
  Si  Si22  1  0.651493  0.508730  0.500000  1
  Si  Si23  1  0.347152  0.492106  0.500000  1
  Si  Si24  1  0.157340  0.992390  0.500000  1
  Si  Si25  1  0.842803  0.007223  0.500000  1
  Si  Si26  1  0.491576  0.653096  0.500000  1
  Si  Si27  1  0.507792  0.347010  0.500000  1
  Si  Si28  1  0.008793  0.155552  0.500000  1
  Si  Si29  1  0.992428  0.842950  0.500000  1
  Ir  Ir30  1  0.740604  0.522740  0.000000  1
  Ir  Ir31  1  0.257549  0.479519  0.000000  1
  Ir  Ir32  1  0.246295  0.979111  0.000000  1
  Ir  Ir33  1  0.753739  0.020373  0.000000  1
  Ir  Ir34  1  0.479221  0.743201  0.000000  1
  Ir  Ir35  1  0.520241  0.256774  0.000000  1
  Ir  Ir36  1  0.022891  0.243689  0.000000  1
  Ir  Ir37  1  0.979501  0.754513  0.000000  1
