# generated using pymatgen
data_Y2Th2(Al8Pt3)3
_symmetry_space_group_name_H-M   'P 1'
_cell_length_a   7.59054986
_cell_length_b   7.60447072
_cell_length_c   13.20918313
_cell_angle_alpha   84.49887497
_cell_angle_beta   78.97637563
_cell_angle_gamma   59.94083927
_symmetry_Int_Tables_number   1
_chemical_formula_structural   Y2Th2(Al8Pt3)3
_chemical_formula_sum   'Y2 Th2 Al24 Pt9'
_cell_volume   647.74092976
_cell_formula_units_Z   1
loop_
 _symmetry_equiv_pos_site_id
 _symmetry_equiv_pos_as_xyz
  1  'x, y, z'
loop_
 _atom_site_type_symbol
 _atom_site_label
 _atom_site_symmetry_multiplicity
 _atom_site_fract_x
 _atom_site_fract_y
 _atom_site_fract_z
 _atom_site_occupancy
  Y  Y0  1  0.394484  0.167767  0.807342  1
  Y  Y1  1  0.605516  0.832233  0.192658  1
  Th  Th2  1  0.733569  0.498987  0.806585  1
  Th  Th3  1  0.266431  0.501013  0.193415  1
  Al  Al4  1  0.683970  0.836365  0.945834  1
  Al  Al5  1  0.316030  0.163635  0.054166  1
  Al  Al6  1  0.146270  0.833476  0.561536  1
  Al  Al7  1  0.853730  0.166524  0.438464  1
  Al  Al8  1  0.480818  0.166422  0.558986  1
  Al  Al9  1  0.519182  0.833578  0.441014  1
  Al  Al10  1  0.216293  0.161930  0.332841  1
  Al  Al11  1  0.783707  0.838070  0.667159  1
  Al  Al12  1  0.435207  0.506295  0.667042  1
  Al  Al13  1  0.564793  0.493705  0.332958  1
  Al  Al14  1  0.114707  0.156258  0.665655  1
  Al  Al15  1  0.885293  0.843742  0.334345  1
  Al  Al16  1  0.349432  0.499505  0.944014  1
  Al  Al17  1  0.650568  0.500495  0.055986  1
  Al  Al18  1  0.017280  0.165066  0.954592  1
  Al  Al19  1  0.982720  0.834934  0.045408  1
  Al  Al20  1  0.186427  0.499540  0.442441  1
  Al  Al21  1  0.813573  0.500460  0.557559  1
  Al  Al22  1  0.737788  0.160925  0.183694  1
  Al  Al23  1  0.262212  0.839075  0.816306  1
  Al  Al24  1  0.063546  0.632279  0.814867  1
  Al  Al25  1  0.936454  0.367721  0.185133  1
  Al  Al26  1  0.856470  0.037662  0.815775  1
  Al  Al27  1  0.143530  0.962338  0.184225  1
  Pt  Pt28  1  0.119838  0.491792  0.638702  1
  Pt  Pt29  1  0.880162  0.508208  0.361298  1
  Pt  Pt30  1  0.656717  0.172743  0.999831  1
  Pt  Pt31  1  0.343283  0.827257  0.000169  1
  Pt  Pt32  1  0.537046  0.167569  0.361463  1
  Pt  Pt33  1  0.462954  0.832431  0.638537  1
  Pt  Pt34  1  0.779577  0.175490  0.637401  1
  Pt  Pt35  1  0.220423  0.824510  0.362599  1
  Pt  Pt36  1  0.000000  0.500000  0.000000  1
