# generated using pymatgen
data_Ce5Tm3(P3Ir4)4
_symmetry_space_group_name_H-M   'P 1'
_cell_length_a   12.99655900
_cell_length_b   12.99655989
_cell_length_c   4.02083200
_cell_angle_alpha   90.00000000
_cell_angle_beta   90.00000000
_cell_angle_gamma   120.00000027
_symmetry_Int_Tables_number   1
_chemical_formula_structural   Ce5Tm3(P3Ir4)4
_chemical_formula_sum   'Ce5 Tm3 P12 Ir16'
_cell_volume   588.17065567
_cell_formula_units_Z   1
loop_
 _symmetry_equiv_pos_site_id
 _symmetry_equiv_pos_as_xyz
  1  'x, y, z'
loop_
 _atom_site_type_symbol
 _atom_site_label
 _atom_site_symmetry_multiplicity
 _atom_site_fract_x
 _atom_site_fract_y
 _atom_site_fract_z
 _atom_site_occupancy
  Ce  Ce0  1  0.333333  0.666667  0.500000  1
  Ce  Ce1  1  0.666667  0.333333  0.500000  1
  Ce  Ce2  1  0.000000  0.817101  0.000000  1
  Ce  Ce3  1  0.182899  0.182899  0.000000  1
  Ce  Ce4  1  0.817101  0.000000  0.000000  1
  Tm  Tm5  1  0.000000  0.444905  0.500000  1
  Tm  Tm6  1  0.555095  0.555095  0.500000  1
  Tm  Tm7  1  0.444905  0.000000  0.500000  1
  P  P8  1  0.000000  0.650059  0.500000  1
  P  P9  1  0.349941  0.349941  0.500000  1
  P  P10  1  0.650059  0.000000  0.500000  1
  P  P11  1  0.519169  0.687797  0.000000  1
  P  P12  1  0.312203  0.831372  0.000000  1
  P  P13  1  0.168628  0.480831  0.000000  1
  P  P14  1  0.480831  0.168628  0.000000  1
  P  P15  1  0.687797  0.519169  0.000000  1
  P  P16  1  0.831372  0.312203  0.000000  1
  P  P17  1  0.000000  0.177456  0.500000  1
  P  P18  1  0.822544  0.822544  0.500000  1
  P  P19  1  0.177456  0.000000  0.500000  1
  Ir  Ir20  1  0.510301  0.865611  0.000000  1
  Ir  Ir21  1  0.134389  0.644690  0.000000  1
  Ir  Ir22  1  0.355310  0.489699  0.000000  1
  Ir  Ir23  1  0.489699  0.355310  0.000000  1
  Ir  Ir24  1  0.865611  0.510301  0.000000  1
  Ir  Ir25  1  0.644690  0.134389  0.000000  1
  Ir  Ir26  1  0.000000  0.277014  0.000000  1
  Ir  Ir27  1  0.722986  0.722986  0.000000  1
  Ir  Ir28  1  0.277014  0.000000  0.000000  1
  Ir  Ir29  1  0.629409  0.808392  0.500000  1
  Ir  Ir30  1  0.191608  0.821017  0.500000  1
  Ir  Ir31  1  0.178983  0.370591  0.500000  1
  Ir  Ir32  1  0.370591  0.178983  0.500000  1
  Ir  Ir33  1  0.808392  0.629409  0.500000  1
  Ir  Ir34  1  0.821017  0.191608  0.500000  1
  Ir  Ir35  1  0.000000  0.000000  0.500000  1
