# generated using pymatgen
data_PmNdGa3Si
_symmetry_space_group_name_H-M   'P 1'
_cell_length_a   5.97985208
_cell_length_b   5.97786557
_cell_length_c   5.97786661
_cell_angle_alpha   138.61068721
_cell_angle_beta   104.94674901
_cell_angle_gamma   89.52796668
_symmetry_Int_Tables_number   1
_chemical_formula_structural   PmNdGa3Si
_chemical_formula_sum   'Pm1 Nd1 Ga3 Si1'
_cell_volume   130.63836689
_cell_formula_units_Z   1
loop_
 _symmetry_equiv_pos_site_id
 _symmetry_equiv_pos_as_xyz
  1  'x, y, z'
loop_
 _atom_site_type_symbol
 _atom_site_label
 _atom_site_symmetry_multiplicity
 _atom_site_fract_x
 _atom_site_fract_y
 _atom_site_fract_z
 _atom_site_occupancy
  Pm  Pm0  1  0.001111  0.001168  0.999943  1
  Nd  Nd1  1  0.498731  0.498891  0.999840  1
  Ga  Ga2  1  0.582899  0.250374  0.332526  1
  Ga  Ga3  1  0.084136  0.749514  0.334621  1
  Ga  Ga4  1  0.917259  0.250442  0.666817  1
  Si  Si5  1  0.415861  0.749608  0.666252  1
