# generated using pymatgen
data_Ce3Th3Co3Cu3Sb8
_symmetry_space_group_name_H-M   'P 1'
_cell_length_a   8.34463078
_cell_length_b   8.34678579
_cell_length_c   8.34426501
_cell_angle_alpha   109.11210326
_cell_angle_beta   109.95609879
_cell_angle_gamma   109.35517205
_symmetry_Int_Tables_number   1
_chemical_formula_structural   Ce3Th3Co3Cu3Sb8
_chemical_formula_sum   'Ce3 Th3 Co3 Cu3 Sb8'
_cell_volume   447.32355956
_cell_formula_units_Z   1
loop_
 _symmetry_equiv_pos_site_id
 _symmetry_equiv_pos_as_xyz
  1  'x, y, z'
loop_
 _atom_site_type_symbol
 _atom_site_label
 _atom_site_symmetry_multiplicity
 _atom_site_fract_x
 _atom_site_fract_y
 _atom_site_fract_z
 _atom_site_occupancy
  Ce  Ce0  1  0.380023  0.258328  0.634082  1
  Ce  Ce1  1  0.735700  0.864226  0.109398  1
  Ce  Ce2  1  0.254334  0.626474  0.389455  1
  Th  Th3  1  0.619274  0.369174  0.250833  1
  Th  Th4  1  0.882038  0.131576  0.750223  1
  Th  Th5  1  0.125435  0.746588  0.867280  1
  Co  Co6  1  0.252074  0.127681  0.875863  1
  Co  Co7  1  0.748771  0.373395  0.623118  1
  Co  Co8  1  0.378799  0.628117  0.750362  1
  Cu  Cu9  1  0.124325  0.875226  0.250309  1
  Cu  Cu10  1  0.624112  0.749069  0.374173  1
  Cu  Cu11  1  0.874706  0.249865  0.125885  1
  Sb  Sb12  1  0.002085  0.338077  0.503929  1
  Sb  Sb13  1  0.836873  0.499909  0.994960  1
  Sb  Sb14  1  0.494664  0.997741  0.833807  1
  Sb  Sb15  1  0.660281  0.657812  0.664565  1
  Sb  Sb16  1  0.162118  0.160917  0.158848  1
  Sb  Sb17  1  0.336166  0.496206  0.995119  1
  Sb  Sb18  1  0.502285  0.004692  0.343950  1
  Sb  Sb19  1  0.005938  0.844928  0.503840  1
