# generated using pymatgen
data_V3Ga2Mo3
_symmetry_space_group_name_H-M   'P 1'
_cell_length_a   4.88377703
_cell_length_b   4.88377607
_cell_length_c   4.88377603
_cell_angle_alpha   90.18388340
_cell_angle_beta   89.81611495
_cell_angle_gamma   89.81611564
_symmetry_Int_Tables_number   1
_chemical_formula_structural   V3Ga2Mo3
_chemical_formula_sum   'V3 Ga2 Mo3'
_cell_volume   116.48247382
_cell_formula_units_Z   1
loop_
 _symmetry_equiv_pos_site_id
 _symmetry_equiv_pos_as_xyz
  1  'x, y, z'
loop_
 _atom_site_type_symbol
 _atom_site_label
 _atom_site_symmetry_multiplicity
 _atom_site_fract_x
 _atom_site_fract_y
 _atom_site_fract_z
 _atom_site_occupancy
  V  V0  1  0.494759  0.250000  0.994759  1
  V  V1  1  0.750000  0.994759  0.505241  1
  V  V2  1  0.005241  0.505241  0.250000  1
  Ga  Ga3  1  0.504824  0.495176  0.495176  1
  Ga  Ga4  1  0.995176  0.004824  0.004824  1
  Mo  Mo5  1  0.499567  0.750000  0.999567  1
  Mo  Mo6  1  0.250000  0.999567  0.500433  1
  Mo  Mo7  1  0.000433  0.500433  0.750000  1
