# generated using pymatgen
data_Tb4TmZn2Sb
_symmetry_space_group_name_H-M   'P 1'
_cell_length_a   8.57511605
_cell_length_b   8.57511767
_cell_length_c   8.57511567
_cell_angle_alpha   123.41794792
_cell_angle_beta   123.41796936
_cell_angle_gamma   84.17532922
_symmetry_Int_Tables_number   1
_chemical_formula_structural   Tb4TmZn2Sb
_chemical_formula_sum   'Tb8 Tm2 Zn4 Sb2'
_cell_volume   420.45522557
_cell_formula_units_Z   2
loop_
 _symmetry_equiv_pos_site_id
 _symmetry_equiv_pos_as_xyz
  1  'x, y, z'
loop_
 _atom_site_type_symbol
 _atom_site_label
 _atom_site_symmetry_multiplicity
 _atom_site_fract_x
 _atom_site_fract_y
 _atom_site_fract_z
 _atom_site_occupancy
  Tb  Tb0  1  0.799921  0.299921  0.811031  1
  Tb  Tb1  1  0.200079  0.700079  0.188969  1
  Tb  Tb2  1  0.488890  0.988890  0.188969  1
  Tb  Tb3  1  0.299921  0.488890  0.500000  1
  Tb  Tb4  1  0.011110  0.200079  0.500000  1
  Tb  Tb5  1  0.511110  0.011110  0.811031  1
  Tb  Tb6  1  0.700079  0.511110  0.500000  1
  Tb  Tb7  1  0.988890  0.799921  0.500000  1
  Tm  Tm8  1  0.000000  0.000000  0.000000  1
  Tm  Tm9  1  0.500000  0.500000  0.000000  1
  Zn  Zn10  1  0.137141  0.637141  0.774282  1
  Zn  Zn11  1  0.862859  0.362859  0.225718  1
  Zn  Zn12  1  0.637141  0.862859  0.500000  1
  Zn  Zn13  1  0.362859  0.137141  0.500000  1
  Sb  Sb14  1  0.250000  0.250000  0.000000  1
  Sb  Sb15  1  0.750000  0.750000  0.000000  1
