# generated using pymatgen
data_YTi2Ga2PdPt
_symmetry_space_group_name_H-M   'P 1'
_cell_length_a   5.51414143
_cell_length_b   5.51414068
_cell_length_c   5.54704150
_cell_angle_alpha   100.26401933
_cell_angle_beta   103.15448443
_cell_angle_gamma   126.28608047
_symmetry_Int_Tables_number   1
_chemical_formula_structural   YTi2Ga2PdPt
_chemical_formula_sum   'Y1 Ti2 Ga2 Pd1 Pt1'
_cell_volume   121.41480920
_cell_formula_units_Z   1
loop_
 _symmetry_equiv_pos_site_id
 _symmetry_equiv_pos_as_xyz
  1  'x, y, z'
loop_
 _atom_site_type_symbol
 _atom_site_label
 _atom_site_symmetry_multiplicity
 _atom_site_fract_x
 _atom_site_fract_y
 _atom_site_fract_z
 _atom_site_occupancy
  Y  Y0  1  0.001050  0.999816  0.000867  1
  Ti  Ti1  1  0.248511  0.749106  0.498607  1
  Ti  Ti2  1  0.749500  0.250095  0.498607  1
  Ga  Ga3  1  0.305748  0.298937  0.604683  1
  Ga  Ga4  1  0.307297  0.698821  0.006118  1
  Pd  Pd5  1  0.692163  0.300718  0.992881  1
  Pt  Pt6  1  0.695732  0.702506  0.398238  1
