# generated using pymatgen
data_ScTiV3Si4
_symmetry_space_group_name_H-M   'P 1'
_cell_length_a   6.55518256
_cell_length_b   6.55488142
_cell_length_c   12.10443088
_cell_angle_alpha   90.08997116
_cell_angle_beta   89.93231533
_cell_angle_gamma   89.88301429
_symmetry_Int_Tables_number   1
_chemical_formula_structural   ScTiV3Si4
_chemical_formula_sum   'Sc4 Ti4 V12 Si16'
_cell_volume   520.10647497
_cell_formula_units_Z   4
loop_
 _symmetry_equiv_pos_site_id
 _symmetry_equiv_pos_as_xyz
  1  'x, y, z'
loop_
 _atom_site_type_symbol
 _atom_site_label
 _atom_site_symmetry_multiplicity
 _atom_site_fract_x
 _atom_site_fract_y
 _atom_site_fract_z
 _atom_site_occupancy
  Sc  Sc0  1  0.500488  0.163926  0.219590  1
  Sc  Sc1  1  0.999789  0.337526  0.530486  1
  Sc  Sc2  1  0.663957  0.999588  0.970871  1
  Sc  Sc3  1  0.337525  0.999464  0.469780  1
  Ti  Ti4  1  0.006447  0.659538  0.028653  1
  Ti  Ti5  1  0.840743  0.506791  0.280181  1
  Ti  Ti6  1  0.161001  0.495190  0.779460  1
  Ti  Ti7  1  0.505390  0.838506  0.720929  1
  V  V8  1  0.331050  0.336218  0.998959  1
  V  V9  1  0.164722  0.830211  0.248914  1
  V  V10  1  0.834059  0.166119  0.751240  1
  V  V11  1  0.667550  0.667213  0.501362  1
  V  V12  1  0.002765  0.156747  0.125728  1
  V  V13  1  0.342080  0.506024  0.376524  1
  V  V14  1  0.654623  0.496609  0.876345  1
  V  V15  1  0.506664  0.345330  0.625485  1
  V  V16  1  0.490199  0.655720  0.121982  1
  V  V17  1  0.994301  0.842169  0.629135  1
  V  V18  1  0.154432  0.006713  0.873076  1
  V  V19  1  0.842138  0.990932  0.372833  1
  Si  Si20  1  0.291509  0.958853  0.063565  1
  Si  Si21  1  0.540691  0.791745  0.313762  1
  Si  Si22  1  0.460752  0.203592  0.814701  1
  Si  Si23  1  0.796466  0.540068  0.686560  1
  Si  Si24  1  0.199250  0.461851  0.184374  1
  Si  Si25  1  0.704140  0.038418  0.565852  1
  Si  Si26  1  0.961321  0.300822  0.934493  1
  Si  Si27  1  0.039055  0.703991  0.435444  1
  Si  Si28  1  0.709170  0.375432  0.072841  1
  Si  Si29  1  0.125915  0.206669  0.320011  1
  Si  Si30  1  0.871240  0.790395  0.823505  1
  Si  Si31  1  0.208062  0.129681  0.679693  1
  Si  Si32  1  0.798055  0.861604  0.176799  1
  Si  Si33  1  0.297135  0.633414  0.575939  1
  Si  Si34  1  0.363527  0.704276  0.923708  1
  Si  Si35  1  0.633788  0.298657  0.427220  1
