# generated using pymatgen
data_Y4ReTc3B16
_symmetry_space_group_name_H-M   'P 1'
_cell_length_a   3.60492100
_cell_length_b   5.97715719
_cell_length_c   11.57427637
_cell_angle_alpha   90.02915358
_cell_angle_beta   90.00000000
_cell_angle_gamma   90.00000000
_symmetry_Int_Tables_number   1
_chemical_formula_structural   Y4ReTc3B16
_chemical_formula_sum   'Y4 Re1 Tc3 B16'
_cell_volume   249.39297819
_cell_formula_units_Z   1
loop_
 _symmetry_equiv_pos_site_id
 _symmetry_equiv_pos_as_xyz
  1  'x, y, z'
loop_
 _atom_site_type_symbol
 _atom_site_label
 _atom_site_symmetry_multiplicity
 _atom_site_fract_x
 _atom_site_fract_y
 _atom_site_fract_z
 _atom_site_occupancy
  Y  Y0  1  0.000000  0.127018  0.150419  1
  Y  Y1  1  0.000000  0.872787  0.849559  1
  Y  Y2  1  0.000000  0.626915  0.350503  1
  Y  Y3  1  0.000000  0.373091  0.649306  1
  Re  Re4  1  0.000000  0.366547  0.912465  1
  Tc  Tc5  1  0.000000  0.133777  0.412392  1
  Tc  Tc6  1  0.000000  0.866553  0.587601  1
  Tc  Tc7  1  0.000000  0.633040  0.087267  1
  B  B8  1  0.500000  0.476860  0.192403  1
  B  B9  1  0.500000  0.523382  0.807805  1
  B  B10  1  0.500000  0.976464  0.307826  1
  B  B11  1  0.500000  0.022959  0.692058  1
  B  B12  1  0.500000  0.287445  0.315250  1
  B  B13  1  0.500000  0.712941  0.684704  1
  B  B14  1  0.500000  0.787319  0.184865  1
  B  B15  1  0.500000  0.212602  0.814933  1
  B  B16  1  0.500000  0.363806  0.468521  1
  B  B17  1  0.500000  0.636252  0.531388  1
  B  B18  1  0.500000  0.863768  0.031489  1
  B  B19  1  0.500000  0.136255  0.968894  1
  B  B20  1  0.500000  0.386900  0.047459  1
  B  B21  1  0.500000  0.613523  0.953053  1
  B  B22  1  0.500000  0.886728  0.452841  1
  B  B23  1  0.500000  0.113070  0.547000  1
