# generated using pymatgen
data_Dy3MnAl12CuRu2
_symmetry_space_group_name_H-M   'P 1'
_cell_length_a   8.75876409
_cell_length_b   8.75876414
_cell_length_c   9.41535900
_cell_angle_alpha   90.00000000
_cell_angle_beta   90.00000000
_cell_angle_gamma   119.20753550
_symmetry_Int_Tables_number   1
_chemical_formula_structural   Dy3MnAl12CuRu2
_chemical_formula_sum   'Dy6 Mn2 Al24 Cu2 Ru4'
_cell_volume   630.47242319
_cell_formula_units_Z   2
loop_
 _symmetry_equiv_pos_site_id
 _symmetry_equiv_pos_as_xyz
  1  'x, y, z'
loop_
 _atom_site_type_symbol
 _atom_site_label
 _atom_site_symmetry_multiplicity
 _atom_site_fract_x
 _atom_site_fract_y
 _atom_site_fract_z
 _atom_site_occupancy
  Dy  Dy0  1  0.194855  0.805145  0.250000  1
  Dy  Dy1  1  0.189211  0.384894  0.250000  1
  Dy  Dy2  1  0.615106  0.810789  0.250000  1
  Dy  Dy3  1  0.805145  0.194855  0.750000  1
  Dy  Dy4  1  0.810789  0.615106  0.750000  1
  Dy  Dy5  1  0.384894  0.189211  0.750000  1
  Mn  Mn6  1  0.000000  0.000000  0.500000  1
  Mn  Mn7  1  0.000000  0.000000  0.000000  1
  Al  Al8  1  0.560785  0.439215  0.250000  1
  Al  Al9  1  0.561241  0.124599  0.250000  1
  Al  Al10  1  0.875401  0.438759  0.250000  1
  Al  Al11  1  0.439215  0.560785  0.750000  1
  Al  Al12  1  0.438759  0.875401  0.750000  1
  Al  Al13  1  0.124599  0.561241  0.750000  1
  Al  Al14  1  0.317423  0.154604  0.422322  1
  Al  Al15  1  0.839220  0.160780  0.424924  1
  Al  Al16  1  0.845396  0.682577  0.422322  1
  Al  Al17  1  0.682577  0.845396  0.577678  1
  Al  Al18  1  0.160780  0.839220  0.575076  1
  Al  Al19  1  0.154604  0.317423  0.577678  1
  Al  Al20  1  0.682577  0.845396  0.922322  1
  Al  Al21  1  0.160780  0.839220  0.924924  1
  Al  Al22  1  0.154604  0.317423  0.922322  1
  Al  Al23  1  0.317423  0.154604  0.077678  1
  Al  Al24  1  0.839220  0.160780  0.075076  1
  Al  Al25  1  0.845396  0.682577  0.077678  1
  Al  Al26  1  0.667662  0.332338  0.517465  1
  Al  Al27  1  0.332338  0.667662  0.482535  1
  Al  Al28  1  0.332338  0.667662  0.017465  1
  Al  Al29  1  0.667662  0.332338  0.982535  1
  Al  Al30  1  0.998711  0.001289  0.250000  1
  Al  Al31  1  0.001289  0.998711  0.750000  1
  Cu  Cu32  1  0.500000  0.500000  0.500000  1
  Cu  Cu33  1  0.500000  0.500000  0.000000  1
  Ru  Ru34  1  0.500000  0.000000  0.500000  1
  Ru  Ru35  1  0.000000  0.500000  0.500000  1
  Ru  Ru36  1  0.500000  0.000000  0.000000  1
  Ru  Ru37  1  0.000000  0.500000  0.000000  1
