# generated using pymatgen
data_Ho8Si16Mo5W7
_symmetry_space_group_name_H-M   'P 1'
_cell_length_a   6.76879241
_cell_length_b   6.93525225
_cell_length_c   12.90150901
_cell_angle_alpha   89.96934056
_cell_angle_beta   89.98033846
_cell_angle_gamma   90.05446434
_symmetry_Int_Tables_number   1
_chemical_formula_structural   Ho8Si16Mo5W7
_chemical_formula_sum   'Ho8 Si16 Mo5 W7'
_cell_volume   605.63878925
_cell_formula_units_Z   1
loop_
 _symmetry_equiv_pos_site_id
 _symmetry_equiv_pos_as_xyz
  1  'x, y, z'
loop_
 _atom_site_type_symbol
 _atom_site_label
 _atom_site_symmetry_multiplicity
 _atom_site_fract_x
 _atom_site_fract_y
 _atom_site_fract_z
 _atom_site_occupancy
  Ho  Ho0  1  0.495686  0.332367  0.093472  1
  Ho  Ho1  1  0.996484  0.167808  0.406462  1
  Ho  Ho2  1  0.504309  0.667649  0.593638  1
  Ho  Ho3  1  0.004301  0.832115  0.906631  1
  Ho  Ho4  1  0.503665  0.668109  0.906666  1
  Ho  Ho5  1  0.003825  0.832102  0.593604  1
  Ho  Ho6  1  0.496719  0.332023  0.406444  1
  Ho  Ho7  1  0.995961  0.168112  0.093602  1
  Si  Si8  1  0.660104  0.041764  0.547317  1
  Si  Si9  1  0.160932  0.457738  0.953255  1
  Si  Si10  1  0.338472  0.958147  0.046743  1
  Si  Si11  1  0.840057  0.542290  0.452705  1
  Si  Si12  1  0.339442  0.957345  0.452131  1
  Si  Si13  1  0.838424  0.542887  0.047032  1
  Si  Si14  1  0.661657  0.042604  0.952852  1
  Si  Si15  1  0.161244  0.457394  0.547247  1
  Si  Si16  1  0.534482  0.370212  0.749075  1
  Si  Si17  1  0.034701  0.130068  0.750780  1
  Si  Si18  1  0.465898  0.630618  0.249991  1
  Si  Si19  1  0.964653  0.869485  0.250725  1
  Si  Si20  1  0.802149  0.633577  0.750478  1
  Si  Si21  1  0.302106  0.866515  0.749541  1
  Si  Si22  1  0.198126  0.366573  0.250193  1
  Si  Si23  1  0.697502  0.132811  0.249775  1
  Mo  Mo24  1  0.668881  0.835994  0.374277  1
  Mo  Mo25  1  0.170281  0.662691  0.374927  1
  Mo  Mo26  1  0.668866  0.836583  0.125691  1
  Mo  Mo27  1  0.829735  0.337797  0.875173  1
  Mo  Mo28  1  0.329687  0.162636  0.624508  1
  W  W29  1  0.831501  0.335837  0.626420  1
  W  W30  1  0.332008  0.164136  0.873261  1
  W  W31  1  0.168591  0.663378  0.126181  1
  W  W32  1  0.665272  0.000391  0.750365  1
  W  W33  1  0.165192  0.499760  0.750203  1
  W  W34  1  0.333808  0.000385  0.249043  1
  W  W35  1  0.835280  0.500099  0.249594  1
