# generated using pymatgen
data_K4Ca(SiSe3)2
_symmetry_space_group_name_H-M   'P 1'
_cell_length_a   7.37243672
_cell_length_b   7.37243710
_cell_length_c   8.68714836
_cell_angle_alpha   81.73352113
_cell_angle_beta   81.73352507
_cell_angle_gamma   119.82698184
_symmetry_Int_Tables_number   1
_chemical_formula_structural   K4Ca(SiSe3)2
_chemical_formula_sum   'K4 Ca1 Si2 Se6'
_cell_volume   392.41453462
_cell_formula_units_Z   1
loop_
 _symmetry_equiv_pos_site_id
 _symmetry_equiv_pos_as_xyz
  1  'x, y, z'
loop_
 _atom_site_type_symbol
 _atom_site_label
 _atom_site_symmetry_multiplicity
 _atom_site_fract_x
 _atom_site_fract_y
 _atom_site_fract_z
 _atom_site_occupancy
  K  K0  1  0.508429  0.491571  0.000000  1
  K  K1  1  0.819383  0.180617  0.000000  1
  K  K2  1  0.174512  0.825488  0.000000  1
  K  K3  1  0.665405  0.334595  0.500000  1
  Ca  Ca4  1  0.334609  0.665391  0.500000  1
  Si  Si5  1  0.046089  0.047057  0.358994  1
  Si  Si6  1  0.952943  0.953911  0.641006  1
  Se  Se7  1  0.762084  0.794511  0.273802  1
  Se  Se8  1  0.205489  0.237916  0.726198  1
  Se  Se9  1  0.105777  0.389641  0.276634  1
  Se  Se10  1  0.358519  0.043600  0.278240  1
  Se  Se11  1  0.956400  0.641481  0.721760  1
  Se  Se12  1  0.610359  0.894223  0.723366  1
