# generated using pymatgen
data_Y6MgZn22Si
_symmetry_space_group_name_H-M   'P 1'
_cell_length_a   9.12304362
_cell_length_b   9.12304251
_cell_length_c   9.12304400
_cell_angle_alpha   60.00000183
_cell_angle_beta   60.00000587
_cell_angle_gamma   59.99999988
_symmetry_Int_Tables_number   1
_chemical_formula_structural   Y6MgZn22Si
_chemical_formula_sum   'Y6 Mg1 Zn22 Si1'
_cell_volume   536.91340382
_cell_formula_units_Z   1
loop_
 _symmetry_equiv_pos_site_id
 _symmetry_equiv_pos_as_xyz
  1  'x, y, z'
loop_
 _atom_site_type_symbol
 _atom_site_label
 _atom_site_symmetry_multiplicity
 _atom_site_fract_x
 _atom_site_fract_y
 _atom_site_fract_z
 _atom_site_occupancy
  Y  Y0  1  0.716599  0.283401  0.283401  1
  Y  Y1  1  0.283401  0.716599  0.716599  1
  Y  Y2  1  0.283401  0.716599  0.283401  1
  Y  Y3  1  0.716599  0.283401  0.716599  1
  Y  Y4  1  0.283401  0.283401  0.716599  1
  Y  Y5  1  0.716599  0.716599  0.283401  1
  Mg  Mg6  1  0.000000  0.000000  0.000000  1
  Zn  Zn7  1  0.129442  0.129442  0.129442  1
  Zn  Zn8  1  0.870558  0.870558  0.870558  1
  Zn  Zn9  1  0.129442  0.129442  0.611674  1
  Zn  Zn10  1  0.129442  0.611674  0.129442  1
  Zn  Zn11  1  0.870558  0.870558  0.388326  1
  Zn  Zn12  1  0.870558  0.388326  0.870558  1
  Zn  Zn13  1  0.611674  0.129442  0.129442  1
  Zn  Zn14  1  0.388326  0.870558  0.870558  1
  Zn  Zn15  1  0.500000  0.000000  0.000000  1
  Zn  Zn16  1  0.000000  0.500000  0.500000  1
  Zn  Zn17  1  0.000000  0.500000  0.000000  1
  Zn  Zn18  1  0.500000  0.000000  0.500000  1
  Zn  Zn19  1  0.000000  0.000000  0.500000  1
  Zn  Zn20  1  0.500000  0.500000  0.000000  1
  Zn  Zn21  1  0.331964  0.331964  0.331964  1
  Zn  Zn22  1  0.668036  0.668036  0.668036  1
  Zn  Zn23  1  0.331964  0.331964  0.004108  1
  Zn  Zn24  1  0.331964  0.004108  0.331964  1
  Zn  Zn25  1  0.668036  0.668036  0.995892  1
  Zn  Zn26  1  0.668036  0.995892  0.668036  1
  Zn  Zn27  1  0.004108  0.331964  0.331964  1
  Zn  Zn28  1  0.995892  0.668036  0.668036  1
  Si  Si29  1  0.500000  0.500000  0.500000  1
