# generated using pymatgen
data_Er12FeCoI17
_symmetry_space_group_name_H-M   'P 1'
_cell_length_a   9.70509123
_cell_length_b   11.64010657
_cell_length_c   11.65593676
_cell_angle_alpha   93.40644046
_cell_angle_beta   104.84188571
_cell_angle_gamma   114.04102343
_symmetry_Int_Tables_number   1
_chemical_formula_structural   Er12FeCoI17
_chemical_formula_sum   'Er12 Fe1 Co1 I17'
_cell_volume   1142.22925769
_cell_formula_units_Z   1
loop_
 _symmetry_equiv_pos_site_id
 _symmetry_equiv_pos_as_xyz
  1  'x, y, z'
loop_
 _atom_site_type_symbol
 _atom_site_label
 _atom_site_symmetry_multiplicity
 _atom_site_fract_x
 _atom_site_fract_y
 _atom_site_fract_z
 _atom_site_occupancy
  Er  Er0  1  0.047507  0.496804  0.317056  1
  Er  Er1  1  0.993510  0.807873  0.590498  1
  Er  Er2  1  0.658375  0.242316  0.280274  1
  Er  Er3  1  0.006049  0.192936  0.406966  1
  Er  Er4  1  0.217337  0.672014  0.980651  1
  Er  Er5  1  0.251901  0.974354  0.887682  1
  Er  Er6  1  0.343171  0.757771  0.719316  1
  Er  Er7  1  0.950621  0.500530  0.681497  1
  Er  Er8  1  0.750050  0.027990  0.114013  1
  Er  Er9  1  0.138654  0.285573  0.154254  1
  Er  Er10  1  0.783147  0.327036  0.021391  1
  Er  Er11  1  0.860197  0.714085  0.846679  1
  Fe  Fe12  1  0.895531  0.261998  0.213865  1
  Co  Co13  1  0.104046  0.738014  0.785653  1
  I  I14  1  0.786150  0.530242  0.419615  1
  I  I15  1  0.649083  0.421496  0.763813  1
  I  I16  1  0.845566  0.896549  0.329501  1
  I  I17  1  0.327911  0.214326  0.367731  1
  I  I18  1  0.155110  0.101318  0.672815  1
  I  I19  1  0.582375  0.052003  0.842871  1
  I  I20  1  0.761773  0.192496  0.540218  1
  I  I21  1  0.551645  0.712582  0.953878  1
  I  I22  1  0.352060  0.580525  0.234662  1
  I  I23  1  0.214880  0.471829  0.583194  1
  I  I24  1  0.056699  0.369518  0.896319  1
  I  I25  1  0.446129  0.285862  0.044442  1
  I  I26  1  0.000088  0.998876  0.998968  1
  I  I27  1  0.239445  0.809150  0.462119  1
  I  I28  1  0.413474  0.945063  0.154714  1
  I  I29  1  0.672600  0.785738  0.633220  1
  I  I30  1  0.944917  0.633133  0.102123  1
