# generated using pymatgen
data_Tb4TiCo16(MoP4)3
_symmetry_space_group_name_H-M   'P 1'
_cell_length_a   3.70113100
_cell_length_b   10.43996981
_cell_length_c   11.90561808
_cell_angle_alpha   89.93234613
_cell_angle_beta   90.00000000
_cell_angle_gamma   90.00000000
_symmetry_Int_Tables_number   1
_chemical_formula_structural   Tb4TiCo16(MoP4)3
_chemical_formula_sum   'Tb4 Ti1 Co16 Mo3 P12'
_cell_volume   460.02914167
_cell_formula_units_Z   1
loop_
 _symmetry_equiv_pos_site_id
 _symmetry_equiv_pos_as_xyz
  1  'x, y, z'
loop_
 _atom_site_type_symbol
 _atom_site_label
 _atom_site_symmetry_multiplicity
 _atom_site_fract_x
 _atom_site_fract_y
 _atom_site_fract_z
 _atom_site_occupancy
  Tb  Tb0  1  0.250000  0.583144  0.704383  1
  Tb  Tb1  1  0.250000  0.917792  0.205281  1
  Tb  Tb2  1  0.750000  0.417659  0.295381  1
  Tb  Tb3  1  0.750000  0.082102  0.795714  1
  Ti  Ti4  1  0.750000  0.202741  0.509073  1
  Co  Co5  1  0.250000  0.405917  0.490155  1
  Co  Co6  1  0.250000  0.093834  0.988315  1
  Co  Co7  1  0.750000  0.594109  0.510641  1
  Co  Co8  1  0.750000  0.905827  0.010507  1
  Co  Co9  1  0.250000  0.221609  0.175569  1
  Co  Co10  1  0.250000  0.278455  0.677275  1
  Co  Co11  1  0.750000  0.777485  0.822693  1
  Co  Co12  1  0.750000  0.722547  0.322734  1
  Co  Co13  1  0.250000  0.886404  0.700912  1
  Co  Co14  1  0.250000  0.613140  0.200933  1
  Co  Co15  1  0.750000  0.114457  0.299450  1
  Co  Co16  1  0.750000  0.387339  0.799490  1
  Co  Co17  1  0.250000  0.465826  0.933150  1
  Co  Co18  1  0.250000  0.035259  0.433978  1
  Co  Co19  1  0.750000  0.534130  0.067382  1
  Co  Co20  1  0.750000  0.965412  0.567746  1
  Mo  Mo21  1  0.250000  0.708349  0.988341  1
  Mo  Mo22  1  0.250000  0.792485  0.488541  1
  Mo  Mo23  1  0.750000  0.291484  0.011384  1
  P  P24  1  0.250000  0.420630  0.114675  1
  P  P25  1  0.250000  0.078763  0.616021  1
  P  P26  1  0.750000  0.579435  0.885769  1
  P  P27  1  0.750000  0.921190  0.385785  1
  P  P28  1  0.250000  0.270158  0.863995  1
  P  P29  1  0.250000  0.230201  0.362285  1
  P  P30  1  0.750000  0.730423  0.135838  1
  P  P31  1  0.750000  0.769278  0.635527  1
  P  P32  1  0.250000  0.596865  0.392118  1
  P  P33  1  0.250000  0.903401  0.891805  1
  P  P34  1  0.750000  0.406514  0.609640  1
  P  P35  1  0.750000  0.095636  0.107514  1
