# generated using pymatgen
data_Tb2Ho2Ga16CoRu2
_symmetry_space_group_name_H-M   'P 1'
_cell_length_a   6.08915000
_cell_length_b   6.08823100
_cell_length_c   11.25077000
_cell_angle_alpha   90.00000000
_cell_angle_beta   90.00000000
_cell_angle_gamma   90.00000000
_symmetry_Int_Tables_number   1
_chemical_formula_structural   Tb2Ho2Ga16CoRu2
_chemical_formula_sum   'Tb2 Ho2 Ga16 Co1 Ru2'
_cell_volume   417.09025324
_cell_formula_units_Z   1
loop_
 _symmetry_equiv_pos_site_id
 _symmetry_equiv_pos_as_xyz
  1  'x, y, z'
loop_
 _atom_site_type_symbol
 _atom_site_label
 _atom_site_symmetry_multiplicity
 _atom_site_fract_x
 _atom_site_fract_y
 _atom_site_fract_z
 _atom_site_occupancy
  Tb  Tb0  1  0.500000  0.000000  0.805415  1
  Tb  Tb1  1  0.500000  0.000000  0.194585  1
  Ho  Ho2  1  0.000000  0.500000  0.807922  1
  Ho  Ho3  1  0.000000  0.500000  0.192078  1
  Ga  Ga4  1  0.242800  0.253780  0.616920  1
  Ga  Ga5  1  0.757200  0.746220  0.616920  1
  Ga  Ga6  1  0.757200  0.253780  0.616920  1
  Ga  Ga7  1  0.242800  0.746220  0.616920  1
  Ga  Ga8  1  0.757200  0.746220  0.383080  1
  Ga  Ga9  1  0.242800  0.253780  0.383080  1
  Ga  Ga10  1  0.242800  0.746220  0.383080  1
  Ga  Ga11  1  0.757200  0.253780  0.383080  1
  Ga  Ga12  1  0.286399  0.286720  0.000000  1
  Ga  Ga13  1  0.713601  0.713280  0.000000  1
  Ga  Ga14  1  0.713601  0.286720  0.000000  1
  Ga  Ga15  1  0.286399  0.713280  0.000000  1
  Ga  Ga16  1  0.500000  0.500000  0.802406  1
  Ga  Ga17  1  0.500000  0.500000  0.197594  1
  Ga  Ga18  1  0.000000  0.000000  0.777903  1
  Ga  Ga19  1  0.000000  0.000000  0.222097  1
  Co  Co20  1  0.000000  0.500000  0.500000  1
  Ru  Ru21  1  0.500000  0.000000  0.500000  1
  Ru  Ru22  1  0.000000  0.000000  0.000000  1
