# generated using pymatgen
data_Pr2Nd8InSi5
_symmetry_space_group_name_H-M   'P 1'
_cell_length_a   7.78102261
_cell_length_b   7.79479850
_cell_length_c   9.19575779
_cell_angle_alpha   114.90017708
_cell_angle_beta   114.85255403
_cell_angle_gamma   90.37747885
_symmetry_Int_Tables_number   1
_chemical_formula_structural   Pr2Nd8InSi5
_chemical_formula_sum   'Pr2 Nd8 In1 Si5'
_cell_volume   447.48141961
_cell_formula_units_Z   1
loop_
 _symmetry_equiv_pos_site_id
 _symmetry_equiv_pos_as_xyz
  1  'x, y, z'
loop_
 _atom_site_type_symbol
 _atom_site_label
 _atom_site_symmetry_multiplicity
 _atom_site_fract_x
 _atom_site_fract_y
 _atom_site_fract_z
 _atom_site_occupancy
  Pr  Pr0  1  0.196339  0.669747  0.719746  1
  Pr  Pr1  1  0.523406  0.049999  0.719746  1
  Nd  Nd2  1  0.524683  0.524683  0.049368  1
  Nd  Nd3  1  0.975884  0.975884  0.951766  1
  Nd  Nd4  1  0.976933  0.828565  0.279078  1
  Nd  Nd5  1  0.302145  0.450513  0.279078  1
  Nd  Nd6  1  0.829351  0.302260  0.278638  1
  Nd  Nd7  1  0.449288  0.976379  0.278638  1
  Nd  Nd8  1  0.048869  0.198388  0.721108  1
  Nd  Nd9  1  0.672239  0.522720  0.721108  1
  In  In10  1  0.749637  0.749637  0.499274  1
  Si  Si11  1  0.249122  0.249122  0.498244  1
  Si  Si12  1  0.617094  0.884402  0.001466  1
  Si  Si13  1  0.384372  0.117064  0.001466  1
  Si  Si14  1  0.884922  0.384979  0.000638  1
  Si  Si15  1  0.115716  0.615659  0.000638  1
