# generated using pymatgen
data_EuZrAs2Ir
_symmetry_space_group_name_H-M   'P 1'
_cell_length_a   4.29143100
_cell_length_b   4.29142952
_cell_length_c   13.76402400
_cell_angle_alpha   90.00000000
_cell_angle_beta   90.00000000
_cell_angle_gamma   119.99997286
_symmetry_Int_Tables_number   1
_chemical_formula_structural   EuZrAs2Ir
_chemical_formula_sum   'Eu2 Zr2 As4 Ir2'
_cell_volume   219.52313195
_cell_formula_units_Z   2
loop_
 _symmetry_equiv_pos_site_id
 _symmetry_equiv_pos_as_xyz
  1  'x, y, z'
loop_
 _atom_site_type_symbol
 _atom_site_label
 _atom_site_symmetry_multiplicity
 _atom_site_fract_x
 _atom_site_fract_y
 _atom_site_fract_z
 _atom_site_occupancy
  Eu  Eu0  1  0.666667  0.333333  0.387747  1
  Eu  Eu1  1  0.333333  0.666667  0.887747  1
  Zr  Zr2  1  0.333333  0.666667  0.621671  1
  Zr  Zr3  1  0.666667  0.333333  0.121671  1
  As  As4  1  0.333333  0.666667  0.256315  1
  As  As5  1  0.000000  0.000000  0.022999  1
  As  As6  1  0.000000  0.000000  0.522999  1
  As  As7  1  0.666667  0.333333  0.756315  1
  Ir  Ir8  1  0.000000  0.000000  0.711269  1
  Ir  Ir9  1  0.000000  0.000000  0.211269  1
