# generated using pymatgen
data_Ho5(SiHg)2
_symmetry_space_group_name_H-M   'P 1'
_cell_length_a   8.73767416
_cell_length_b   8.73767467
_cell_length_c   7.52732100
_cell_angle_alpha   90.00000000
_cell_angle_beta   90.00000000
_cell_angle_gamma   129.17303785
_symmetry_Int_Tables_number   1
_chemical_formula_structural   Ho5(SiHg)2
_chemical_formula_sum   'Ho10 Si4 Hg4'
_cell_volume   445.52219685
_cell_formula_units_Z   2
loop_
 _symmetry_equiv_pos_site_id
 _symmetry_equiv_pos_as_xyz
  1  'x, y, z'
loop_
 _atom_site_type_symbol
 _atom_site_label
 _atom_site_symmetry_multiplicity
 _atom_site_fract_x
 _atom_site_fract_y
 _atom_site_fract_z
 _atom_site_occupancy
  Ho  Ho0  1  0.053459  0.308073  0.324659  1
  Ho  Ho1  1  0.946541  0.691927  0.675341  1
  Ho  Ho2  1  0.446541  0.191927  0.824659  1
  Ho  Ho3  1  0.808073  0.553459  0.175341  1
  Ho  Ho4  1  0.553459  0.808073  0.175341  1
  Ho  Ho5  1  0.191927  0.446541  0.824659  1
  Ho  Ho6  1  0.691927  0.946541  0.675341  1
  Ho  Ho7  1  0.308073  0.053459  0.324659  1
  Ho  Ho8  1  0.000000  0.000000  0.000000  1
  Ho  Ho9  1  0.500000  0.500000  0.500000  1
  Si  Si10  1  0.379921  0.379921  0.122138  1
  Si  Si11  1  0.620079  0.620079  0.877862  1
  Si  Si12  1  0.120079  0.120079  0.622138  1
  Si  Si13  1  0.879921  0.879921  0.377862  1
  Hg  Hg14  1  0.782804  0.217196  0.000000  1
  Hg  Hg15  1  0.217196  0.782804  0.000000  1
  Hg  Hg16  1  0.717196  0.282804  0.500000  1
  Hg  Hg17  1  0.282804  0.717196  0.500000  1
