# generated using pymatgen
data_PrMnFe(Sb6Os)2
_symmetry_space_group_name_H-M   'P 1'
_cell_length_a   8.09674839
_cell_length_b   8.10921670
_cell_length_c   8.09361473
_cell_angle_alpha   109.38029849
_cell_angle_beta   109.31456900
_cell_angle_gamma   109.44950680
_symmetry_Int_Tables_number   1
_chemical_formula_structural   PrMnFe(Sb6Os)2
_chemical_formula_sum   'Pr1 Mn1 Fe1 Sb12 Os2'
_cell_volume   410.43529973
_cell_formula_units_Z   1
loop_
 _symmetry_equiv_pos_site_id
 _symmetry_equiv_pos_as_xyz
  1  'x, y, z'
loop_
 _atom_site_type_symbol
 _atom_site_label
 _atom_site_symmetry_multiplicity
 _atom_site_fract_x
 _atom_site_fract_y
 _atom_site_fract_z
 _atom_site_occupancy
  Pr  Pr0  1  0.000000  0.000000  0.000000  1
  Mn  Mn1  1  0.000000  0.500000  0.000000  1
  Fe  Fe2  1  0.500000  0.500000  0.500000  1
  Sb  Sb3  1  0.340301  0.183774  0.843019  1
  Sb  Sb4  1  0.659699  0.816226  0.156981  1
  Sb  Sb5  1  0.659269  0.505884  0.834103  1
  Sb  Sb6  1  0.340731  0.494116  0.165897  1
  Sb  Sb7  1  0.182605  0.842396  0.338159  1
  Sb  Sb8  1  0.817395  0.157604  0.661841  1
  Sb  Sb9  1  0.504553  0.834038  0.658682  1
  Sb  Sb10  1  0.495447  0.165962  0.341318  1
  Sb  Sb11  1  0.843950  0.339492  0.182147  1
  Sb  Sb12  1  0.156050  0.660508  0.817853  1
  Sb  Sb13  1  0.834123  0.658711  0.504528  1
  Sb  Sb14  1  0.165877  0.341289  0.495472  1
  Os  Os15  1  0.000000  0.000000  0.500000  1
  Os  Os16  1  0.500000  0.000000  0.000000  1
