# generated using pymatgen
data_Sr4Ca4Cr3GaF28
_symmetry_space_group_name_H-M   'P 1'
_cell_length_a   7.40786300
_cell_length_b   8.08425121
_cell_length_c   10.00288227
_cell_angle_alpha   89.97353305
_cell_angle_beta   90.00000000
_cell_angle_gamma   90.00000000
_symmetry_Int_Tables_number   1
_chemical_formula_structural   Sr4Ca4Cr3GaF28
_chemical_formula_sum   'Sr4 Ca4 Cr3 Ga1 F28'
_cell_volume   599.04280111
_cell_formula_units_Z   1
loop_
 _symmetry_equiv_pos_site_id
 _symmetry_equiv_pos_as_xyz
  1  'x, y, z'
loop_
 _atom_site_type_symbol
 _atom_site_label
 _atom_site_symmetry_multiplicity
 _atom_site_fract_x
 _atom_site_fract_y
 _atom_site_fract_z
 _atom_site_occupancy
  Sr  Sr0  1  0.250000  0.803845  0.393861  1
  Sr  Sr1  1  0.750000  0.196105  0.605614  1
  Sr  Sr2  1  0.750000  0.696382  0.894668  1
  Sr  Sr3  1  0.250000  0.304567  0.105656  1
  Ca  Ca4  1  0.250000  0.619805  0.743763  1
  Ca  Ca5  1  0.750000  0.380634  0.256628  1
  Ca  Ca6  1  0.750000  0.880508  0.242995  1
  Ca  Ca7  1  0.250000  0.118928  0.756923  1
  Cr  Cr8  1  0.750000  0.185584  0.945341  1
  Cr  Cr9  1  0.750000  0.685556  0.554757  1
  Cr  Cr10  1  0.250000  0.314554  0.445279  1
  Ga  Ga11  1  0.250000  0.814210  0.055083  1
  F  F12  1  0.250000  0.603689  0.136954  1
  F  F13  1  0.750000  0.398259  0.862297  1
  F  F14  1  0.750000  0.898235  0.637677  1
  F  F15  1  0.250000  0.101749  0.362325  1
  F  F16  1  0.250000  0.537102  0.522025  1
  F  F17  1  0.750000  0.462889  0.477975  1
  F  F18  1  0.750000  0.962897  0.022035  1
  F  F19  1  0.250000  0.033207  0.979640  1
  F  F20  1  0.077883  0.741614  0.921075  1
  F  F21  1  0.923480  0.259380  0.079938  1
  F  F22  1  0.923451  0.759521  0.419879  1
  F  F23  1  0.576520  0.259380  0.079938  1
  F  F24  1  0.076596  0.240551  0.580047  1
  F  F25  1  0.422117  0.741614  0.921075  1
  F  F26  1  0.423404  0.240551  0.580047  1
  F  F27  1  0.576549  0.759521  0.419879  1
  F  F28  1  0.250000  0.874853  0.641340  1
  F  F29  1  0.750000  0.125197  0.358547  1
  F  F30  1  0.750000  0.625251  0.141487  1
  F  F31  1  0.250000  0.374197  0.858670  1
  F  F32  1  0.565804  0.621038  0.684500  1
  F  F33  1  0.434142  0.379099  0.315539  1
  F  F34  1  0.433195  0.878705  0.182590  1
  F  F35  1  0.065858  0.379099  0.315539  1
  F  F36  1  0.565661  0.120991  0.815662  1
  F  F37  1  0.934196  0.621038  0.684500  1
  F  F38  1  0.934339  0.120991  0.815662  1
  F  F39  1  0.066805  0.878705  0.182590  1
