# generated using pymatgen
data_Ho16Cd2Hg2Ir3Pt
_symmetry_space_group_name_H-M   'P 1'
_cell_length_a   9.57839560
_cell_length_b   9.57839545
_cell_length_c   9.57089914
_cell_angle_alpha   60.13183659
_cell_angle_beta   60.13183432
_cell_angle_gamma   60.15942773
_symmetry_Int_Tables_number   1
_chemical_formula_structural   Ho16Cd2Hg2Ir3Pt
_chemical_formula_sum   'Ho16 Cd2 Hg2 Ir3 Pt1'
_cell_volume   622.88581842
_cell_formula_units_Z   1
loop_
 _symmetry_equiv_pos_site_id
 _symmetry_equiv_pos_as_xyz
  1  'x, y, z'
loop_
 _atom_site_type_symbol
 _atom_site_label
 _atom_site_symmetry_multiplicity
 _atom_site_fract_x
 _atom_site_fract_y
 _atom_site_fract_z
 _atom_site_occupancy
  Ho  Ho0  1  0.599067  0.599067  0.598854  1
  Ho  Ho1  1  0.602460  0.602460  0.197330  1
  Ho  Ho2  1  0.602847  0.195889  0.602820  1
  Ho  Ho3  1  0.195889  0.602847  0.602820  1
  Ho  Ho4  1  0.056704  0.440659  0.440637  1
  Ho  Ho5  1  0.438892  0.060433  0.060076  1
  Ho  Ho6  1  0.440659  0.056704  0.440637  1
  Ho  Ho7  1  0.060433  0.438892  0.060076  1
  Ho  Ho8  1  0.439985  0.439985  0.057155  1
  Ho  Ho9  1  0.059394  0.059394  0.439693  1
  Ho  Ho10  1  0.187035  0.812186  0.812719  1
  Ho  Ho11  1  0.813716  0.185959  0.188759  1
  Ho  Ho12  1  0.812186  0.187035  0.812719  1
  Ho  Ho13  1  0.185959  0.813716  0.188759  1
  Ho  Ho14  1  0.812006  0.812006  0.188722  1
  Ho  Ho15  1  0.186851  0.186851  0.814515  1
  Cd  Cd16  1  0.830612  0.507495  0.830813  1
  Cd  Cd17  1  0.507495  0.830612  0.830813  1
  Hg  Hg18  1  0.834423  0.834423  0.836286  1
  Hg  Hg19  1  0.834640  0.834640  0.494240  1
  Ir  Ir20  1  0.391920  0.391920  0.823059  1
  Ir  Ir21  1  0.391357  0.823063  0.392700  1
  Ir  Ir22  1  0.823063  0.391357  0.392700  1
  Pt  Pt23  1  0.392406  0.392406  0.393097  1
