# generated using pymatgen
data_Tb2HoCoNi2Sn3
_symmetry_space_group_name_H-M   'P 1'
_cell_length_a   7.39427702
_cell_length_b   7.39531058
_cell_length_c   3.81683000
_cell_angle_alpha   90.00000000
_cell_angle_beta   90.00000000
_cell_angle_gamma   120.00462335
_symmetry_Int_Tables_number   1
_chemical_formula_structural   Tb2HoCoNi2Sn3
_chemical_formula_sum   'Tb2 Ho1 Co1 Ni2 Sn3'
_cell_volume   180.74460751
_cell_formula_units_Z   1
loop_
 _symmetry_equiv_pos_site_id
 _symmetry_equiv_pos_as_xyz
  1  'x, y, z'
loop_
 _atom_site_type_symbol
 _atom_site_label
 _atom_site_symmetry_multiplicity
 _atom_site_fract_x
 _atom_site_fract_y
 _atom_site_fract_z
 _atom_site_occupancy
  Tb  Tb0  1  0.405612  0.405659  0.500000  1
  Tb  Tb1  1  0.594388  0.000047  0.500000  1
  Ho  Ho2  1  0.000000  0.594783  0.500000  1
  Co  Co3  1  0.000000  0.999057  0.500000  1
  Ni  Ni4  1  0.668691  0.334773  0.000000  1
  Ni  Ni5  1  0.331309  0.666083  0.000000  1
  Sn  Sn6  1  0.744255  0.743329  0.000000  1
  Sn  Sn7  1  0.255745  0.999073  0.000000  1
  Sn  Sn8  1  0.000000  0.257197  0.000000  1
