# generated using pymatgen
data_AcLa(Cd2Pd)2
_symmetry_space_group_name_H-M   'P 1'
_cell_length_a   5.65254526
_cell_length_b   5.65254533
_cell_length_c   8.56067300
_cell_angle_alpha   90.00000000
_cell_angle_beta   90.00000000
_cell_angle_gamma   134.03444803
_symmetry_Int_Tables_number   1
_chemical_formula_structural   AcLa(Cd2Pd)2
_chemical_formula_sum   'Ac1 La1 Cd4 Pd2'
_cell_volume   196.64268552
_cell_formula_units_Z   1
loop_
 _symmetry_equiv_pos_site_id
 _symmetry_equiv_pos_as_xyz
  1  'x, y, z'
loop_
 _atom_site_type_symbol
 _atom_site_label
 _atom_site_symmetry_multiplicity
 _atom_site_fract_x
 _atom_site_fract_y
 _atom_site_fract_z
 _atom_site_occupancy
  Ac  Ac0  1  0.064429  0.935571  0.250000  1
  La  La1  1  0.935935  0.064065  0.750000  1
  Cd  Cd2  1  0.646234  0.353766  0.553514  1
  Cd  Cd3  1  0.353893  0.646107  0.453962  1
  Cd  Cd4  1  0.646234  0.353766  0.946486  1
  Cd  Cd5  1  0.353893  0.646107  0.046038  1
  Pd  Pd6  1  0.220345  0.779655  0.750000  1
  Pd  Pd7  1  0.779036  0.220964  0.250000  1
