# generated using pymatgen
data_Tb4Dy2Lu2CdInPt2
_symmetry_space_group_name_H-M   'P 1'
_cell_length_a   9.63970037
_cell_length_b   9.63970020
_cell_length_c   9.66466700
_cell_angle_alpha   59.91428994
_cell_angle_beta   59.91429056
_cell_angle_gamma   60.17140733
_symmetry_Int_Tables_number   1
_chemical_formula_structural   Tb4Dy2Lu2CdInPt2
_chemical_formula_sum   'Tb8 Dy4 Lu4 Cd2 In2 Pt4'
_cell_volume   635.02829806
_cell_formula_units_Z   2
loop_
 _symmetry_equiv_pos_site_id
 _symmetry_equiv_pos_as_xyz
  1  'x, y, z'
loop_
 _atom_site_type_symbol
 _atom_site_label
 _atom_site_symmetry_multiplicity
 _atom_site_fract_x
 _atom_site_fract_y
 _atom_site_fract_z
 _atom_site_occupancy
  Tb  Tb0  1  0.186849  0.186849  0.813151  1
  Tb  Tb1  1  0.811792  0.811792  0.188208  1
  Tb  Tb2  1  0.936835  0.564164  0.564317  1
  Tb  Tb3  1  0.564164  0.936835  0.934684  1
  Tb  Tb4  1  0.564164  0.936835  0.564317  1
  Tb  Tb5  1  0.936835  0.564164  0.934684  1
  Tb  Tb6  1  0.564010  0.564010  0.935990  1
  Tb  Tb7  1  0.937156  0.937156  0.562844  1
  Dy  Dy8  1  0.351906  0.351906  0.350781  1
  Dy  Dy9  1  0.351906  0.351906  0.945407  1
  Dy  Dy10  1  0.352679  0.943417  0.351952  1
  Dy  Dy11  1  0.943417  0.352679  0.351952  1
  Lu  Lu12  1  0.810620  0.189509  0.189429  1
  Lu  Lu13  1  0.189509  0.810620  0.810442  1
  Lu  Lu14  1  0.189509  0.810620  0.189429  1
  Lu  Lu15  1  0.810620  0.189509  0.810442  1
  Cd  Cd16  1  0.581448  0.253979  0.582286  1
  Cd  Cd17  1  0.253979  0.581448  0.582286  1
  In  In18  1  0.581587  0.581587  0.583092  1
  In  In19  1  0.581587  0.581587  0.253732  1
  Pt  Pt20  1  0.139874  0.139874  0.146584  1
  Pt  Pt21  1  0.139874  0.139874  0.573669  1
  Pt  Pt22  1  0.145746  0.573933  0.140161  1
  Pt  Pt23  1  0.573933  0.145746  0.140161  1
