# generated using pymatgen
data_HoTm5TaCo17P12
_symmetry_space_group_name_H-M   'P 1'
_cell_length_a   3.67441100
_cell_length_b   10.51744700
_cell_length_c   12.19272300
_cell_angle_alpha   90.00000000
_cell_angle_beta   90.00000000
_cell_angle_gamma   90.00000000
_symmetry_Int_Tables_number   1
_chemical_formula_structural   HoTm5TaCo17P12
_chemical_formula_sum   'Ho1 Tm5 Ta1 Co17 P12'
_cell_volume   471.19293723
_cell_formula_units_Z   1
loop_
 _symmetry_equiv_pos_site_id
 _symmetry_equiv_pos_as_xyz
  1  'x, y, z'
loop_
 _atom_site_type_symbol
 _atom_site_label
 _atom_site_symmetry_multiplicity
 _atom_site_fract_x
 _atom_site_fract_y
 _atom_site_fract_z
 _atom_site_occupancy
  Ho  Ho0  1  0.500000  0.000000  0.477221  1
  Tm  Tm1  1  0.000000  0.500000  0.527172  1
  Tm  Tm2  1  0.500000  0.820163  0.207036  1
  Tm  Tm3  1  0.500000  0.179837  0.207036  1
  Tm  Tm4  1  0.000000  0.682367  0.796059  1
  Tm  Tm5  1  0.000000  0.317633  0.796059  1
  Ta  Ta6  1  0.500000  0.500000  0.154979  1
  Co  Co7  1  0.000000  0.500000  0.984919  1
  Co  Co8  1  0.500000  0.000000  0.014529  1
  Co  Co9  1  0.500000  0.295746  0.432820  1
  Co  Co10  1  0.500000  0.704254  0.432820  1
  Co  Co11  1  0.000000  0.202874  0.569818  1
  Co  Co12  1  0.000000  0.797126  0.569818  1
  Co  Co13  1  0.500000  0.878842  0.708235  1
  Co  Co14  1  0.500000  0.121158  0.708235  1
  Co  Co15  1  0.000000  0.623068  0.293290  1
  Co  Co16  1  0.000000  0.376932  0.293290  1
  Co  Co17  1  0.500000  0.330205  0.989547  1
  Co  Co18  1  0.500000  0.669795  0.989547  1
  Co  Co19  1  0.000000  0.163954  0.004189  1
  Co  Co20  1  0.000000  0.836046  0.004189  1
  Co  Co21  1  0.000000  0.000000  0.838454  1
  Co  Co22  1  0.500000  0.500000  0.701600  1
  Co  Co23  1  0.000000  0.000000  0.296326  1
  P  P24  1  0.500000  0.311057  0.617691  1
  P  P25  1  0.500000  0.688943  0.617691  1
  P  P26  1  0.000000  0.187827  0.384883  1
  P  P27  1  0.000000  0.812173  0.384883  1
  P  P28  1  0.500000  0.500000  0.879743  1
  P  P29  1  0.000000  0.000000  0.117843  1
  P  P30  1  0.500000  0.850588  0.889450  1
  P  P31  1  0.500000  0.149412  0.889450  1
  P  P32  1  0.000000  0.661771  0.104192  1
  P  P33  1  0.000000  0.338229  0.104192  1
  P  P34  1  0.500000  0.500000  0.357713  1
  P  P35  1  0.000000  0.000000  0.655085  1
