# generated using pymatgen
data_Sr2ScBiPbO6
_symmetry_space_group_name_H-M   'P 1'
_cell_length_a   8.25496003
_cell_length_b   8.25494609
_cell_length_c   12.03603195
_cell_angle_alpha   79.95361916
_cell_angle_beta   79.95114490
_cell_angle_gamma   88.55421916
_symmetry_Int_Tables_number   1
_chemical_formula_structural   Sr2ScBiPbO6
_chemical_formula_sum   'Sr8 Sc4 Bi4 Pb4 O24'
_cell_volume   795.20958456
_cell_formula_units_Z   4
loop_
 _symmetry_equiv_pos_site_id
 _symmetry_equiv_pos_as_xyz
  1  'x, y, z'
loop_
 _atom_site_type_symbol
 _atom_site_label
 _atom_site_symmetry_multiplicity
 _atom_site_fract_x
 _atom_site_fract_y
 _atom_site_fract_z
 _atom_site_occupancy
  Sr  Sr0  1  0.295019  0.792229  0.352863  1
  Sr  Sr1  1  0.795013  0.292248  0.352854  1
  Sr  Sr2  1  0.707744  0.204992  0.647137  1
  Sr  Sr3  1  0.207762  0.704989  0.647134  1
  Sr  Sr4  1  0.717130  0.718789  0.647994  1
  Sr  Sr5  1  0.217083  0.218720  0.648040  1
  Sr  Sr6  1  0.781309  0.782917  0.351947  1
  Sr  Sr7  1  0.281239  0.282869  0.352004  1
  Sc  Sc8  1  0.499315  0.000710  0.500023  1
  Sc  Sc9  1  0.999178  0.500643  0.500067  1
  Sc  Sc10  1  0.999510  0.000529  0.499945  1
  Sc  Sc11  1  0.499512  0.500462  0.500015  1
  Bi  Bi12  1  0.442373  0.408374  0.865881  1
  Bi  Bi13  1  0.942372  0.908284  0.865916  1
  Bi  Bi14  1  0.091730  0.057619  0.134075  1
  Bi  Bi15  1  0.591648  0.557620  0.134120  1
  Pb  Pb16  1  0.615308  0.090034  0.131016  1
  Pb  Pb17  1  0.115248  0.590085  0.131045  1
  Pb  Pb18  1  0.409903  0.884767  0.868964  1
  Pb  Pb19  1  0.909941  0.384695  0.868994  1
  O  O20  1  0.754086  0.002936  0.485175  1
  O  O21  1  0.254082  0.502970  0.485093  1
  O  O22  1  0.497047  0.745916  0.514899  1
  O  O23  1  0.997072  0.245917  0.514816  1
  O  O24  1  0.244115  0.995836  0.514584  1
  O  O25  1  0.744084  0.495807  0.514696  1
  O  O26  1  0.504191  0.255902  0.485319  1
  O  O27  1  0.004150  0.755886  0.485426  1
  O  O28  1  0.515206  0.020714  0.314108  1
  O  O29  1  0.014964  0.520952  0.314118  1
  O  O30  1  0.479072  0.985021  0.685876  1
  O  O31  1  0.979286  0.484791  0.685891  1
  O  O32  1  0.915536  0.932416  0.691729  1
  O  O33  1  0.415462  0.432347  0.691703  1
  O  O34  1  0.567697  0.584541  0.308283  1
  O  O35  1  0.067608  0.084435  0.308266  1
  O  O36  1  0.859023  0.945374  0.149528  1
  O  O37  1  0.358900  0.445419  0.149654  1
  O  O38  1  0.554567  0.641117  0.850348  1
  O  O39  1  0.054620  0.141002  0.850468  1
  O  O40  1  0.667115  0.276939  0.844967  1
  O  O41  1  0.167112  0.776845  0.845001  1
  O  O42  1  0.223186  0.832879  0.154989  1
  O  O43  1  0.723082  0.332865  0.155027  1
