# generated using pymatgen
data_Tb2Y9ThCo4
_symmetry_space_group_name_H-M   'P 1'
_cell_length_a   6.31021151
_cell_length_b   6.95865936
_cell_length_c   9.57291100
_cell_angle_alpha   90.00000000
_cell_angle_beta   90.00000000
_cell_angle_gamma   91.24105174
_symmetry_Int_Tables_number   1
_chemical_formula_structural   Tb2Y9ThCo4
_chemical_formula_sum   'Tb2 Y9 Th1 Co4'
_cell_volume   420.25377844
_cell_formula_units_Z   1
loop_
 _symmetry_equiv_pos_site_id
 _symmetry_equiv_pos_as_xyz
  1  'x, y, z'
loop_
 _atom_site_type_symbol
 _atom_site_label
 _atom_site_symmetry_multiplicity
 _atom_site_fract_x
 _atom_site_fract_y
 _atom_site_fract_z
 _atom_site_occupancy
  Tb  Tb0  1  0.143236  0.453538  0.750000  1
  Tb  Tb1  1  0.357564  0.954863  0.750000  1
  Y  Y2  1  0.325448  0.672539  0.066674  1
  Y  Y3  1  0.174883  0.174107  0.430742  1
  Y  Y4  1  0.677146  0.326172  0.568374  1
  Y  Y5  1  0.822456  0.828710  0.929900  1
  Y  Y6  1  0.677146  0.326172  0.931626  1
  Y  Y7  1  0.822456  0.828710  0.570100  1
  Y  Y8  1  0.325448  0.672539  0.433326  1
  Y  Y9  1  0.174883  0.174107  0.069258  1
  Y  Y10  1  0.641049  0.043160  0.250000  1
  Th  Th11  1  0.846387  0.557441  0.250000  1
  Co  Co12  1  0.040539  0.869643  0.250000  1
  Co  Co13  1  0.474316  0.390998  0.250000  1
  Co  Co14  1  0.956078  0.114763  0.750000  1
  Co  Co15  1  0.540963  0.612537  0.750000  1
