# generated using pymatgen
data_RbAc3Te4
_symmetry_space_group_name_H-M   'P 1'
_cell_length_a   4.79246000
_cell_length_b   4.79245977
_cell_length_c   32.74965100
_cell_angle_alpha   90.00000000
_cell_angle_beta   90.00000000
_cell_angle_gamma   119.99997395
_symmetry_Int_Tables_number   1
_chemical_formula_structural   RbAc3Te4
_chemical_formula_sum   'Rb2 Ac6 Te8'
_cell_volume   651.40996049
_cell_formula_units_Z   2
loop_
 _symmetry_equiv_pos_site_id
 _symmetry_equiv_pos_as_xyz
  1  'x, y, z'
loop_
 _atom_site_type_symbol
 _atom_site_label
 _atom_site_symmetry_multiplicity
 _atom_site_fract_x
 _atom_site_fract_y
 _atom_site_fract_z
 _atom_site_occupancy
  Rb  Rb0  1  0.666667  0.333333  0.250000  1
  Rb  Rb1  1  0.333333  0.666667  0.750000  1
  Ac  Ac2  1  0.666667  0.333333  0.616438  1
  Ac  Ac3  1  0.666667  0.333333  0.883562  1
  Ac  Ac4  1  0.333333  0.666667  0.383562  1
  Ac  Ac5  1  0.333333  0.666667  0.116438  1
  Ac  Ac6  1  0.000000  0.000000  0.500000  1
  Ac  Ac7  1  0.000000  0.000000  0.000000  1
  Te  Te8  1  0.000000  0.000000  0.173218  1
  Te  Te9  1  0.666667  0.333333  0.441512  1
  Te  Te10  1  0.000000  0.000000  0.673218  1
  Te  Te11  1  0.333333  0.666667  0.941512  1
  Te  Te12  1  0.333333  0.666667  0.558488  1
  Te  Te13  1  0.000000  0.000000  0.326782  1
  Te  Te14  1  0.666667  0.333333  0.058488  1
  Te  Te15  1  0.000000  0.000000  0.826782  1
