# generated using pymatgen
data_Er(Hf3Sn2)3
_symmetry_space_group_name_H-M   'P 1'
_cell_length_a   8.54747800
_cell_length_b   8.54747829
_cell_length_c   5.76815500
_cell_angle_alpha   90.00000000
_cell_angle_beta   90.00000000
_cell_angle_gamma   120.92752852
_symmetry_Int_Tables_number   1
_chemical_formula_structural   Er(Hf3Sn2)3
_chemical_formula_sum   'Er1 Hf9 Sn6'
_cell_volume   361.49984063
_cell_formula_units_Z   1
loop_
 _symmetry_equiv_pos_site_id
 _symmetry_equiv_pos_as_xyz
  1  'x, y, z'
loop_
 _atom_site_type_symbol
 _atom_site_label
 _atom_site_symmetry_multiplicity
 _atom_site_fract_x
 _atom_site_fract_y
 _atom_site_fract_z
 _atom_site_occupancy
  Er  Er0  1  0.768089  0.768089  0.750000  1
  Hf  Hf1  1  0.250064  0.001703  0.750000  1
  Hf  Hf2  1  0.001703  0.250064  0.750000  1
  Hf  Hf3  1  0.233906  0.233906  0.250000  1
  Hf  Hf4  1  0.751704  0.000456  0.250000  1
  Hf  Hf5  1  0.000456  0.751704  0.250000  1
  Hf  Hf6  1  0.665107  0.333431  0.000452  1
  Hf  Hf7  1  0.333431  0.665107  0.000452  1
  Hf  Hf8  1  0.333431  0.665107  0.499548  1
  Hf  Hf9  1  0.665107  0.333431  0.499548  1
  Sn  Sn10  1  0.391653  0.391653  0.750000  1
  Sn  Sn11  1  0.605992  0.002336  0.750000  1
  Sn  Sn12  1  0.002336  0.605992  0.750000  1
  Sn  Sn13  1  0.606180  0.606180  0.250000  1
  Sn  Sn14  1  0.391678  0.999164  0.250000  1
  Sn  Sn15  1  0.999164  0.391678  0.250000  1
