# generated using pymatgen
data_Rb6Ru2O9
_symmetry_space_group_name_H-M   'P 1'
_cell_length_a   8.73729989
_cell_length_b   8.73729928
_cell_length_c   11.12647469
_cell_angle_alpha   68.06425016
_cell_angle_beta   68.06424970
_cell_angle_gamma   92.60227352
_symmetry_Int_Tables_number   1
_chemical_formula_structural   Rb6Ru2O9
_chemical_formula_sum   'Rb12 Ru4 O18'
_cell_volume   713.77996954
_cell_formula_units_Z   2
loop_
 _symmetry_equiv_pos_site_id
 _symmetry_equiv_pos_as_xyz
  1  'x, y, z'
loop_
 _atom_site_type_symbol
 _atom_site_label
 _atom_site_symmetry_multiplicity
 _atom_site_fract_x
 _atom_site_fract_y
 _atom_site_fract_z
 _atom_site_occupancy
  Rb  Rb0  1  0.497913  0.699664  0.023363  1
  Rb  Rb1  1  0.300336  0.502087  0.476637  1
  Rb  Rb2  1  0.502087  0.300336  0.976637  1
  Rb  Rb3  1  0.699664  0.497913  0.523363  1
  Rb  Rb4  1  0.001581  0.703566  0.029536  1
  Rb  Rb5  1  0.296434  0.998419  0.470464  1
  Rb  Rb6  1  0.998419  0.296434  0.970464  1
  Rb  Rb7  1  0.703566  0.001581  0.529536  1
  Rb  Rb8  1  0.095601  0.320402  0.263582  1
  Rb  Rb9  1  0.679598  0.904399  0.236418  1
  Rb  Rb10  1  0.904399  0.679598  0.736418  1
  Rb  Rb11  1  0.320402  0.095601  0.763582  1
  Ru  Ru12  1  0.374538  0.625462  0.750000  1
  Ru  Ru13  1  0.625462  0.374538  0.250000  1
  Ru  Ru14  1  0.145570  0.854430  0.250000  1
  Ru  Ru15  1  0.854430  0.145570  0.750000  1
  O  O16  1  0.094296  0.635110  0.284210  1
  O  O17  1  0.364890  0.905704  0.215790  1
  O  O18  1  0.905704  0.364890  0.715790  1
  O  O19  1  0.635110  0.094296  0.784210  1
  O  O20  1  0.885210  0.014975  0.904735  1
  O  O21  1  0.985025  0.114790  0.595265  1
  O  O22  1  0.114790  0.985025  0.095265  1
  O  O23  1  0.014975  0.885210  0.404735  1
  O  O24  1  0.671562  0.577872  0.256053  1
  O  O25  1  0.422128  0.328438  0.243947  1
  O  O26  1  0.328438  0.422128  0.743947  1
  O  O27  1  0.577872  0.671562  0.756053  1
  O  O28  1  0.517489  0.262845  0.460959  1
  O  O29  1  0.737155  0.482511  0.039041  1
  O  O30  1  0.482511  0.737155  0.539041  1
  O  O31  1  0.262845  0.517489  0.960959  1
  O  O32  1  0.228628  0.771372  0.750000  1
  O  O33  1  0.771372  0.228628  0.250000  1
