# generated using pymatgen
data_YPa2(SnRh)3
_symmetry_space_group_name_H-M   'P 1'
_cell_length_a   7.49255859
_cell_length_b   7.49255910
_cell_length_c   4.01730700
_cell_angle_alpha   90.00000000
_cell_angle_beta   90.00000000
_cell_angle_gamma   120.87532084
_symmetry_Int_Tables_number   1
_chemical_formula_structural   YPa2(SnRh)3
_chemical_formula_sum   'Y1 Pa2 Sn3 Rh3'
_cell_volume   193.56524774
_cell_formula_units_Z   1
loop_
 _symmetry_equiv_pos_site_id
 _symmetry_equiv_pos_as_xyz
  1  'x, y, z'
loop_
 _atom_site_type_symbol
 _atom_site_label
 _atom_site_symmetry_multiplicity
 _atom_site_fract_x
 _atom_site_fract_y
 _atom_site_fract_z
 _atom_site_occupancy
  Y  Y0  1  0.591521  0.591521  0.500000  1
  Pa  Pa1  1  0.412682  0.999374  0.500000  1
  Pa  Pa2  1  0.999374  0.412682  0.500000  1
  Sn  Sn3  1  0.745416  0.989399  0.000000  1
  Sn  Sn4  1  0.989399  0.745416  0.000000  1
  Sn  Sn5  1  0.264454  0.264454  0.000000  1
  Rh  Rh6  1  0.313073  0.670814  0.000000  1
  Rh  Rh7  1  0.670814  0.313073  0.000000  1
  Rh  Rh8  1  0.013266  0.013266  0.500000  1
