# generated using pymatgen
data_Tb9Tm(Ga2Ru3)2
_symmetry_space_group_name_H-M   'P 1'
_cell_length_a   8.33758150
_cell_length_b   8.34023642
_cell_length_c   8.33758100
_cell_angle_alpha   109.47766346
_cell_angle_beta   109.46477136
_cell_angle_gamma   109.47766974
_symmetry_Int_Tables_number   1
_chemical_formula_structural   Tb9Tm(Ga2Ru3)2
_chemical_formula_sum   'Tb9 Tm1 Ga4 Ru6'
_cell_volume   446.27451599
_cell_formula_units_Z   1
loop_
 _symmetry_equiv_pos_site_id
 _symmetry_equiv_pos_as_xyz
  1  'x, y, z'
loop_
 _atom_site_type_symbol
 _atom_site_label
 _atom_site_symmetry_multiplicity
 _atom_site_fract_x
 _atom_site_fract_y
 _atom_site_fract_z
 _atom_site_occupancy
  Tb  Tb0  1  0.750402  0.432157  0.182481  1
  Tb  Tb1  1  0.432078  0.681757  0.249598  1
  Tb  Tb2  1  0.249644  0.066856  0.316693  1
  Tb  Tb3  1  0.216490  0.499601  0.498888  1
  Tb  Tb4  1  0.817519  0.249678  0.567922  1
  Tb  Tb5  1  0.501113  0.000713  0.717604  1
  Tb  Tb6  1  0.067048  0.817212  0.750356  1
  Tb  Tb7  1  0.282396  0.283110  0.783511  1
  Tb  Tb8  1  0.683309  0.750164  0.932952  1
  Tm  Tm9  1  0.000000  0.213581  0.000000  1
  Ga  Ga10  1  0.000000  0.584871  0.000000  1
  Ga  Ga11  1  0.500116  0.000846  0.088005  1
  Ga  Ga12  1  0.911995  0.912842  0.412112  1
  Ga  Ga13  1  0.587888  0.500730  0.499884  1
  Ru  Ru14  1  0.373541  0.250635  0.125412  1
  Ru  Ru15  1  0.874589  0.125223  0.248127  1
  Ru  Ru16  1  0.123957  0.750421  0.374377  1
  Ru  Ru17  1  0.751872  0.877095  0.626460  1
  Ru  Ru18  1  0.625622  0.376045  0.749578  1
  Ru  Ru19  1  0.250422  0.626465  0.876044  1
