# generated using pymatgen
data_CaLa4Sn3H
_symmetry_space_group_name_H-M   'P 1'
_cell_length_a   9.54458746
_cell_length_b   9.54458790
_cell_length_c   9.54458844
_cell_angle_alpha   127.79375167
_cell_angle_beta   127.79375035
_cell_angle_gamma   76.95938266
_symmetry_Int_Tables_number   1
_chemical_formula_structural   CaLa4Sn3H
_chemical_formula_sum   'Ca2 La8 Sn6 H2'
_cell_volume   527.08451440
_cell_formula_units_Z   2
loop_
 _symmetry_equiv_pos_site_id
 _symmetry_equiv_pos_as_xyz
  1  'x, y, z'
loop_
 _atom_site_type_symbol
 _atom_site_label
 _atom_site_symmetry_multiplicity
 _atom_site_fract_x
 _atom_site_fract_y
 _atom_site_fract_z
 _atom_site_occupancy
  Ca  Ca0  1  0.500000  0.500000  0.000000  1
  Ca  Ca1  1  0.000000  0.000000  0.000000  1
  La  La2  1  0.515403  0.015403  0.833089  1
  La  La3  1  0.182315  0.682315  0.166911  1
  La  La4  1  0.015403  0.182315  0.500000  1
  La  La5  1  0.682315  0.515403  0.500000  1
  La  La6  1  0.484597  0.984597  0.166911  1
  La  La7  1  0.817685  0.317685  0.833089  1
  La  La8  1  0.984597  0.817685  0.500000  1
  La  La9  1  0.317685  0.484597  0.500000  1
  Sn  Sn10  1  0.250000  0.250000  0.000000  1
  Sn  Sn11  1  0.750000  0.750000  0.000000  1
  Sn  Sn12  1  0.870040  0.370040  0.240081  1
  Sn  Sn13  1  0.129960  0.629960  0.759919  1
  Sn  Sn14  1  0.370040  0.129960  0.500000  1
  Sn  Sn15  1  0.629960  0.870040  0.500000  1
  H  H16  1  0.250000  0.750000  0.500000  1
  H  H17  1  0.750000  0.250000  0.500000  1
