# generated using pymatgen
data_AcPrTe3
_symmetry_space_group_name_H-M   'P 1'
_cell_length_a   4.63174200
_cell_length_b   12.15182500
_cell_length_c   12.71015800
_cell_angle_alpha   90.00000000
_cell_angle_beta   90.00000000
_cell_angle_gamma   90.00000000
_symmetry_Int_Tables_number   1
_chemical_formula_structural   AcPrTe3
_chemical_formula_sum   'Ac4 Pr4 Te12'
_cell_volume   715.38003558
_cell_formula_units_Z   4
loop_
 _symmetry_equiv_pos_site_id
 _symmetry_equiv_pos_as_xyz
  1  'x, y, z'
loop_
 _atom_site_type_symbol
 _atom_site_label
 _atom_site_symmetry_multiplicity
 _atom_site_fract_x
 _atom_site_fract_y
 _atom_site_fract_z
 _atom_site_occupancy
  Ac  Ac0  1  0.750000  0.501293  0.697014  1
  Ac  Ac1  1  0.750000  0.998707  0.197014  1
  Ac  Ac2  1  0.250000  0.498707  0.302986  1
  Ac  Ac3  1  0.250000  0.001293  0.802986  1
  Pr  Pr4  1  0.250000  0.185924  0.487846  1
  Pr  Pr5  1  0.250000  0.314076  0.987846  1
  Pr  Pr6  1  0.750000  0.814076  0.512154  1
  Pr  Pr7  1  0.750000  0.685924  0.012154  1
  Te  Te8  1  0.250000  0.629579  0.542451  1
  Te  Te9  1  0.250000  0.870421  0.042451  1
  Te  Te10  1  0.750000  0.370421  0.457549  1
  Te  Te11  1  0.750000  0.129579  0.957549  1
  Te  Te12  1  0.250000  0.296288  0.729850  1
  Te  Te13  1  0.250000  0.203712  0.229850  1
  Te  Te14  1  0.750000  0.703712  0.270150  1
  Te  Te15  1  0.750000  0.796288  0.770150  1
  Te  Te16  1  0.750000  0.056556  0.613791  1
  Te  Te17  1  0.750000  0.443444  0.113791  1
  Te  Te18  1  0.250000  0.943444  0.386209  1
  Te  Te19  1  0.250000  0.556556  0.886209  1
