# generated using pymatgen
data_HfUF7
_symmetry_space_group_name_H-M   'P 1'
_cell_length_a   5.84971900
_cell_length_b   6.37870647
_cell_length_c   8.53970958
_cell_angle_alpha   78.40089208
_cell_angle_beta   90.00000000
_cell_angle_gamma   90.00000000
_symmetry_Int_Tables_number   1
_chemical_formula_structural   HfUF7
_chemical_formula_sum   'Hf2 U2 F14'
_cell_volume   312.14035159
_cell_formula_units_Z   2
loop_
 _symmetry_equiv_pos_site_id
 _symmetry_equiv_pos_as_xyz
  1  'x, y, z'
loop_
 _atom_site_type_symbol
 _atom_site_label
 _atom_site_symmetry_multiplicity
 _atom_site_fract_x
 _atom_site_fract_y
 _atom_site_fract_z
 _atom_site_occupancy
  Hf  Hf0  1  0.209645  0.809424  0.778133  1
  Hf  Hf1  1  0.709645  0.190576  0.221867  1
  U  U2  1  0.199556  0.659341  0.312892  1
  U  U3  1  0.699556  0.340659  0.687108  1
  F  F4  1  0.377643  0.440407  0.527177  1
  F  F5  1  0.877643  0.559593  0.472823  1
  F  F6  1  0.927907  0.944545  0.229463  1
  F  F7  1  0.427907  0.055455  0.770537  1
  F  F8  1  0.453600  0.976179  0.237735  1
  F  F9  1  0.953600  0.023821  0.762265  1
  F  F10  1  0.498091  0.441519  0.213515  1
  F  F11  1  0.998091  0.558481  0.786485  1
  F  F12  1  0.204793  0.756893  0.017262  1
  F  F13  1  0.704793  0.243107  0.982738  1
  F  F14  1  0.216280  0.853072  0.537621  1
  F  F15  1  0.716280  0.146928  0.462379  1
  F  F16  1  0.988844  0.380893  0.215204  1
  F  F17  1  0.488844  0.619107  0.784796  1
