# generated using pymatgen
data_Th8Nb12Si15P
_symmetry_space_group_name_H-M   'P 1'
_cell_length_a   7.19031554
_cell_length_b   7.19851796
_cell_length_c   13.39716275
_cell_angle_alpha   89.91416893
_cell_angle_beta   89.93636614
_cell_angle_gamma   89.92145364
_symmetry_Int_Tables_number   1
_chemical_formula_structural   Th8Nb12Si15P
_chemical_formula_sum   'Th8 Nb12 Si15 P1'
_cell_volume   693.43013822
_cell_formula_units_Z   1
loop_
 _symmetry_equiv_pos_site_id
 _symmetry_equiv_pos_as_xyz
  1  'x, y, z'
loop_
 _atom_site_type_symbol
 _atom_site_label
 _atom_site_symmetry_multiplicity
 _atom_site_fract_x
 _atom_site_fract_y
 _atom_site_fract_z
 _atom_site_occupancy
  Th  Th0  1  0.002611  0.335187  0.217907  1
  Th  Th1  1  0.001516  0.662536  0.717802  1
  Th  Th2  1  0.161175  0.500410  0.467772  1
  Th  Th3  1  0.498737  0.839582  0.033438  1
  Th  Th4  1  0.837914  0.500386  0.968119  1
  Th  Th5  1  0.498836  0.162524  0.532071  1
  Th  Th6  1  0.337452  0.998670  0.782339  1
  Th  Th7  1  0.658347  0.001332  0.281084  1
  Nb  Nb8  1  0.168193  0.166011  0.000947  1
  Nb  Nb9  1  0.832285  0.832319  0.499349  1
  Nb  Nb10  1  0.331543  0.669195  0.249190  1
  Nb  Nb11  1  0.667755  0.331987  0.750269  1
  Nb  Nb12  1  0.162526  0.998664  0.371323  1
  Nb  Nb13  1  0.839428  0.004117  0.874383  1
  Nb  Nb14  1  0.503320  0.660915  0.624369  1
  Nb  Nb15  1  0.339900  0.496238  0.875784  1
  Nb  Nb16  1  0.493949  0.335069  0.125642  1
  Nb  Nb17  1  0.662643  0.505264  0.376413  1
  Nb  Nb18  1  0.996824  0.160309  0.625526  1
  Nb  Nb19  1  0.005282  0.840669  0.125913  1
  Si  Si20  1  0.712096  0.960122  0.686287  1
  Si  Si21  1  0.459934  0.788255  0.436595  1
  Si  Si22  1  0.212581  0.539535  0.063181  1
  Si  Si23  1  0.539758  0.211609  0.936477  1
  Si  Si24  1  0.787478  0.459984  0.563993  1
  Si  Si25  1  0.040178  0.287948  0.813736  1
  Si  Si26  1  0.959195  0.712149  0.312890  1
  Si  Si27  1  0.379463  0.305359  0.316109  1
  Si  Si28  1  0.624427  0.701856  0.813798  1
  Si  Si29  1  0.200763  0.876185  0.562276  1
  Si  Si30  1  0.123905  0.797465  0.936671  1
  Si  Si31  1  0.798106  0.123982  0.063293  1
  Si  Si32  1  0.876020  0.200672  0.435927  1
  Si  Si33  1  0.298551  0.375461  0.686701  1
  Si  Si34  1  0.701936  0.622737  0.186562  1
  P  P35  1  0.285370  0.035296  0.185866  1
