# generated using pymatgen
data_La4NdUSe10
_symmetry_space_group_name_H-M   'P 1'
_cell_length_a   7.98024600
_cell_length_b   8.60037000
_cell_length_c   12.55539800
_cell_angle_alpha   90.00000000
_cell_angle_beta   90.00000000
_cell_angle_gamma   90.00000000
_symmetry_Int_Tables_number   1
_chemical_formula_structural   La4NdUSe10
_chemical_formula_sum   'La8 Nd2 U2 Se20'
_cell_volume   861.71548835
_cell_formula_units_Z   2
loop_
 _symmetry_equiv_pos_site_id
 _symmetry_equiv_pos_as_xyz
  1  'x, y, z'
loop_
 _atom_site_type_symbol
 _atom_site_label
 _atom_site_symmetry_multiplicity
 _atom_site_fract_x
 _atom_site_fract_y
 _atom_site_fract_z
 _atom_site_occupancy
  La  La0  1  0.530678  0.501989  0.323290  1
  La  La1  1  0.969322  0.998011  0.823290  1
  La  La2  1  0.473230  0.998454  0.677361  1
  La  La3  1  0.026770  0.501546  0.177361  1
  La  La4  1  0.473230  0.501546  0.677361  1
  La  La5  1  0.026770  0.998454  0.177361  1
  La  La6  1  0.530678  0.998011  0.323290  1
  La  La7  1  0.969322  0.501989  0.823290  1
  Nd  Nd8  1  0.076593  0.750000  0.490657  1
  Nd  Nd9  1  0.423407  0.750000  0.990657  1
  U  U10  1  0.938369  0.250000  0.506643  1
  U  U11  1  0.561631  0.250000  0.006643  1
  Se  Se12  1  0.832300  0.970124  0.593393  1
  Se  Se13  1  0.667700  0.529876  0.093393  1
  Se  Se14  1  0.165658  0.446952  0.406612  1
  Se  Se15  1  0.334342  0.053048  0.906612  1
  Se  Se16  1  0.165658  0.053048  0.406612  1
  Se  Se17  1  0.334342  0.446952  0.906612  1
  Se  Se18  1  0.832300  0.529876  0.593393  1
  Se  Se19  1  0.667700  0.970124  0.093393  1
  Se  Se20  1  0.829489  0.750000  0.307887  1
  Se  Se21  1  0.670511  0.750000  0.807887  1
  Se  Se22  1  0.161352  0.250000  0.683789  1
  Se  Se23  1  0.338648  0.250000  0.183789  1
  Se  Se24  1  0.461272  0.750000  0.498765  1
  Se  Se25  1  0.038728  0.750000  0.998765  1
  Se  Se26  1  0.548290  0.250000  0.500689  1
  Se  Se27  1  0.951710  0.250000  0.000689  1
  Se  Se28  1  0.194353  0.750000  0.719741  1
  Se  Se29  1  0.305647  0.750000  0.219741  1
  Se  Se30  1  0.811229  0.250000  0.290517  1
  Se  Se31  1  0.688771  0.250000  0.790517  1
