# generated using pymatgen
data_RbBa8Na3(ReN4)4
_symmetry_space_group_name_H-M   'P 1'
_cell_length_a   10.86761042
_cell_length_b   10.52854853
_cell_length_c   8.36932447
_cell_angle_alpha   69.12723098
_cell_angle_beta   64.85322508
_cell_angle_gamma   44.90707642
_symmetry_Int_Tables_number   1
_chemical_formula_structural   RbBa8Na3(ReN4)4
_chemical_formula_sum   'Rb1 Ba8 Na3 Re4 N16'
_cell_volume   609.66844124
_cell_formula_units_Z   1
loop_
 _symmetry_equiv_pos_site_id
 _symmetry_equiv_pos_as_xyz
  1  'x, y, z'
loop_
 _atom_site_type_symbol
 _atom_site_label
 _atom_site_symmetry_multiplicity
 _atom_site_fract_x
 _atom_site_fract_y
 _atom_site_fract_z
 _atom_site_occupancy
  Rb  Rb0  1  0.360769  0.360769  0.639231  1
  Ba  Ba1  1  0.579852  0.926905  0.927018  1
  Ba  Ba2  1  0.926905  0.579852  0.566226  1
  Ba  Ba3  1  0.337418  0.694491  0.681101  1
  Ba  Ba4  1  0.114534  0.114534  0.885466  1
  Ba  Ba5  1  0.137289  0.137289  0.362711  1
  Ba  Ba6  1  0.360117  0.360117  0.139883  1
  Ba  Ba7  1  0.694491  0.337418  0.286990  1
  Ba  Ba8  1  0.881436  0.881436  0.118564  1
  Na  Na9  1  0.912370  0.912370  0.587630  1
  Na  Na10  1  0.658430  0.658430  0.341570  1
  Na  Na11  1  0.591175  0.591175  0.908825  1
  Re  Re12  1  0.492888  0.002660  0.483677  1
  Re  Re13  1  0.002660  0.492888  0.020774  1
  Re  Re14  1  0.772919  0.221173  0.764141  1
  Re  Re15  1  0.221173  0.772919  0.241768  1
  N  N16  1  0.993415  0.667980  0.854547  1
  N  N17  1  0.723294  0.284770  0.976028  1
  N  N18  1  0.667980  0.993415  0.484059  1
  N  N19  1  0.505678  0.823285  0.646616  1
  N  N20  1  0.152144  0.644990  0.388497  1
  N  N21  1  0.719723  0.399690  0.579026  1
  N  N22  1  0.017470  0.028792  0.699624  1
  N  N23  1  0.536504  0.974001  0.253978  1
  N  N24  1  0.399690  0.719723  0.301561  1
  N  N25  1  0.974001  0.536504  0.235516  1
  N  N26  1  0.284770  0.723294  0.015908  1
  N  N27  1  0.823285  0.505678  0.024422  1
  N  N28  1  0.221915  0.261920  0.977513  1
  N  N29  1  0.644990  0.152144  0.814368  1
  N  N30  1  0.261920  0.221915  0.538650  1
  N  N31  1  0.028792  0.017470  0.254112  1
