# generated using pymatgen
data_Ba4HfFe2WO12
_symmetry_space_group_name_H-M   'P 1'
_cell_length_a   10.11773671
_cell_length_b   10.11773709
_cell_length_c   10.11773797
_cell_angle_alpha   33.49222774
_cell_angle_beta   33.49222653
_cell_angle_gamma   33.49222589
_symmetry_Int_Tables_number   1
_chemical_formula_structural   Ba4HfFe2WO12
_chemical_formula_sum   'Ba4 Hf1 Fe2 W1 O12'
_cell_volume   280.89733067
_cell_formula_units_Z   1
loop_
 _symmetry_equiv_pos_site_id
 _symmetry_equiv_pos_as_xyz
  1  'x, y, z'
loop_
 _atom_site_type_symbol
 _atom_site_label
 _atom_site_symmetry_multiplicity
 _atom_site_fract_x
 _atom_site_fract_y
 _atom_site_fract_z
 _atom_site_occupancy
  Ba  Ba0  1  0.623905  0.623905  0.623905  1
  Ba  Ba1  1  0.125812  0.125812  0.125812  1
  Ba  Ba2  1  0.874188  0.874188  0.874188  1
  Ba  Ba3  1  0.376095  0.376095  0.376095  1
  Hf  Hf4  1  0.500000  0.500000  0.500000  1
  Fe  Fe5  1  0.246628  0.246628  0.246628  1
  Fe  Fe6  1  0.753372  0.753372  0.753372  1
  W  W7  1  0.000000  0.000000  0.000000  1
  O  O8  1  0.120565  0.120565  0.640701  1
  O  O9  1  0.624992  0.624992  0.121334  1
  O  O10  1  0.375008  0.878666  0.375008  1
  O  O11  1  0.879435  0.359299  0.879435  1
  O  O12  1  0.640701  0.120565  0.120565  1
  O  O13  1  0.121334  0.624992  0.624992  1
  O  O14  1  0.375008  0.375008  0.878666  1
  O  O15  1  0.879435  0.879435  0.359299  1
  O  O16  1  0.120565  0.640701  0.120565  1
  O  O17  1  0.624992  0.121334  0.624992  1
  O  O18  1  0.878666  0.375008  0.375008  1
  O  O19  1  0.359299  0.879435  0.879435  1
