# generated using pymatgen
data_CaBr37
_symmetry_space_group_name_H-M   'P 1'
_cell_length_a   14.20848141
_cell_length_b   15.29732181
_cell_length_c   14.42416200
_cell_angle_alpha   103.00376457
_cell_angle_beta   48.80056783
_cell_angle_gamma   81.50743146
_symmetry_Int_Tables_number   1
_chemical_formula_structural   CaBr37
_chemical_formula_sum   'Ca1 Br37'
_cell_volume   2102.91272627
_cell_formula_units_Z   1
loop_
 _symmetry_equiv_pos_site_id
 _symmetry_equiv_pos_as_xyz
  1  'x, y, z'
loop_
 _atom_site_type_symbol
 _atom_site_label
 _atom_site_symmetry_multiplicity
 _atom_site_fract_x
 _atom_site_fract_y
 _atom_site_fract_z
 _atom_site_occupancy
  Ca  Ca0  1  0.500000  0.000000  0.000000  1
  Br  Br1  1  0.787648  0.299880  0.136234  1
  Br  Br2  1  0.212352  0.700120  0.863766  1
  Br  Br3  1  0.743862  0.083840  0.363687  1
  Br  Br4  1  0.256138  0.916160  0.636313  1
  Br  Br5  1  0.120812  0.349158  0.168429  1
  Br  Br6  1  0.879188  0.650842  0.831571  1
  Br  Br7  1  0.863574  0.532676  0.247867  1
  Br  Br8  1  0.136426  0.467324  0.752133  1
  Br  Br9  1  0.685969  0.276073  0.522841  1
  Br  Br10  1  0.314031  0.723927  0.477159  1
  Br  Br11  1  0.040336  0.146222  0.493180  1
  Br  Br12  1  0.959664  0.853778  0.506820  1
  Br  Br13  1  0.977104  0.008629  0.287381  1
  Br  Br14  1  0.022896  0.991371  0.712619  1
  Br  Br15  1  0.949119  0.339635  0.607118  1
  Br  Br16  1  0.050881  0.660365  0.392882  1
  Br  Br17  1  0.578924  0.429310  0.234704  1
  Br  Br18  1  0.421076  0.570690  0.765296  1
  Br  Br19  1  0.172591  0.477440  0.278682  1
  Br  Br20  1  0.827409  0.522560  0.721318  1
  Br  Br21  1  0.000000  0.500000  0.000000  1
  Br  Br22  1  0.564638  0.957273  0.143810  1
  Br  Br23  1  0.435362  0.042727  0.856190  1
  Br  Br24  1  0.305623  0.050928  0.314291  1
  Br  Br25  1  0.694377  0.949072  0.685709  1
  Br  Br26  1  0.532623  0.131738  0.411516  1
  Br  Br27  1  0.467377  0.868262  0.588484  1
  Br  Br28  1  0.101245  0.215045  0.063440  1
  Br  Br29  1  0.898755  0.784955  0.936560  1
  Br  Br30  1  0.662163  0.693754  0.404577  1
  Br  Br31  1  0.337837  0.306246  0.595423  1
  Br  Br32  1  0.900507  0.146934  0.921462  1
  Br  Br33  1  0.099493  0.853066  0.078538  1
  Br  Br34  1  0.457130  0.197667  0.082138  1
  Br  Br35  1  0.542870  0.802333  0.917862  1
  Br  Br36  1  0.650331  0.431000  0.651186  1
  Br  Br37  1  0.349669  0.569000  0.348814  1
