# generated using pymatgen
data_Ac4Te3N2
_symmetry_space_group_name_H-M   'P 1'
_cell_length_a   7.76394800
_cell_length_b   12.08903800
_cell_length_c   12.27766500
_cell_angle_alpha   90.00000000
_cell_angle_beta   90.00000000
_cell_angle_gamma   90.00000000
_symmetry_Int_Tables_number   1
_chemical_formula_structural   Ac4Te3N2
_chemical_formula_sum   'Ac16 Te12 N8'
_cell_volume   1152.36521432
_cell_formula_units_Z   4
loop_
 _symmetry_equiv_pos_site_id
 _symmetry_equiv_pos_as_xyz
  1  'x, y, z'
loop_
 _atom_site_type_symbol
 _atom_site_label
 _atom_site_symmetry_multiplicity
 _atom_site_fract_x
 _atom_site_fract_y
 _atom_site_fract_z
 _atom_site_occupancy
  Ac  Ac0  1  0.149647  0.390686  0.551363  1
  Ac  Ac1  1  0.350353  0.890686  0.051363  1
  Ac  Ac2  1  0.221624  0.030095  0.750000  1
  Ac  Ac3  1  0.149647  0.390686  0.948637  1
  Ac  Ac4  1  0.278376  0.530095  0.250000  1
  Ac  Ac5  1  0.850353  0.609314  0.448637  1
  Ac  Ac6  1  0.909674  0.339522  0.250000  1
  Ac  Ac7  1  0.090326  0.660478  0.750000  1
  Ac  Ac8  1  0.590326  0.839522  0.750000  1
  Ac  Ac9  1  0.409674  0.160478  0.250000  1
  Ac  Ac10  1  0.721624  0.469905  0.750000  1
  Ac  Ac11  1  0.850353  0.609314  0.051363  1
  Ac  Ac12  1  0.778376  0.969905  0.250000  1
  Ac  Ac13  1  0.649647  0.109314  0.948637  1
  Ac  Ac14  1  0.350353  0.890686  0.448637  1
  Ac  Ac15  1  0.649647  0.109314  0.551363  1
  Te  Te16  1  0.920527  0.232293  0.750000  1
  Te  Te17  1  0.579473  0.732293  0.250000  1
  Te  Te18  1  0.432542  0.635261  0.922983  1
  Te  Te19  1  0.432542  0.635261  0.577017  1
  Te  Te20  1  0.567458  0.364739  0.422983  1
  Te  Te21  1  0.932542  0.864739  0.577017  1
  Te  Te22  1  0.067458  0.135261  0.422983  1
  Te  Te23  1  0.067458  0.135261  0.077017  1
  Te  Te24  1  0.932542  0.864739  0.922983  1
  Te  Te25  1  0.567458  0.364739  0.077017  1
  Te  Te26  1  0.420527  0.267707  0.750000  1
  Te  Te27  1  0.079473  0.767707  0.250000  1
  N  N28  1  0.554652  0.034024  0.378073  1
  N  N29  1  0.445348  0.965976  0.878073  1
  N  N30  1  0.945348  0.534024  0.878073  1
  N  N31  1  0.054652  0.465976  0.378073  1
  N  N32  1  0.445348  0.965976  0.621927  1
  N  N33  1  0.945348  0.534024  0.621927  1
  N  N34  1  0.054652  0.465976  0.121927  1
  N  N35  1  0.554652  0.034024  0.121927  1
