# generated using pymatgen
data_BaGaFeCl8
_symmetry_space_group_name_H-M   'P 1'
_cell_length_a   7.35461300
_cell_length_b   7.66199298
_cell_length_c   13.36251301
_cell_angle_alpha   85.31021358
_cell_angle_beta   90.00000000
_cell_angle_gamma   90.00000000
_symmetry_Int_Tables_number   1
_chemical_formula_structural   BaGaFeCl8
_chemical_formula_sum   'Ba2 Ga2 Fe2 Cl16'
_cell_volume   750.46984947
_cell_formula_units_Z   2
loop_
 _symmetry_equiv_pos_site_id
 _symmetry_equiv_pos_as_xyz
  1  'x, y, z'
loop_
 _atom_site_type_symbol
 _atom_site_label
 _atom_site_symmetry_multiplicity
 _atom_site_fract_x
 _atom_site_fract_y
 _atom_site_fract_z
 _atom_site_occupancy
  Ba  Ba0  1  0.161226  0.501031  0.249780  1
  Ba  Ba1  1  0.838774  0.501031  0.749780  1
  Ga  Ga2  1  0.736676  0.315439  0.421315  1
  Ga  Ga3  1  0.263324  0.315439  0.921315  1
  Fe  Fe4  1  0.263376  0.684890  0.578686  1
  Fe  Fe5  1  0.736624  0.684890  0.078686  1
  Cl  Cl6  1  0.519266  0.749309  0.654089  1
  Cl  Cl7  1  0.305090  0.746569  0.415788  1
  Cl  Cl8  1  0.815160  0.407625  0.111973  1
  Cl  Cl9  1  0.185181  0.592129  0.888222  1
  Cl  Cl10  1  0.481665  0.249950  0.346297  1
  Cl  Cl11  1  0.305681  0.253025  0.083494  1
  Cl  Cl12  1  0.694319  0.253025  0.583494  1
  Cl  Cl13  1  0.480734  0.749309  0.154089  1
  Cl  Cl14  1  0.184840  0.407625  0.611973  1
  Cl  Cl15  1  0.518335  0.249950  0.846297  1
  Cl  Cl16  1  0.814819  0.592129  0.388222  1
  Cl  Cl17  1  0.965241  0.836555  0.135347  1
  Cl  Cl18  1  0.694910  0.746569  0.915788  1
  Cl  Cl19  1  0.035655  0.163476  0.865009  1
  Cl  Cl20  1  0.964345  0.163476  0.365009  1
  Cl  Cl21  1  0.034759  0.836555  0.635347  1
