# generated using pymatgen
data_Tm5(RuO6)2
_symmetry_space_group_name_H-M   'P 1'
_cell_length_a   6.76174636
_cell_length_b   6.76164438
_cell_length_c   7.36069018
_cell_angle_alpha   74.00246794
_cell_angle_beta   74.00071882
_cell_angle_gamma   49.30284854
_symmetry_Int_Tables_number   1
_chemical_formula_structural   Tm5(RuO6)2
_chemical_formula_sum   'Tm5 Ru2 O12'
_cell_volume   243.13479871
_cell_formula_units_Z   1
loop_
 _symmetry_equiv_pos_site_id
 _symmetry_equiv_pos_as_xyz
  1  'x, y, z'
loop_
 _atom_site_type_symbol
 _atom_site_label
 _atom_site_symmetry_multiplicity
 _atom_site_fract_x
 _atom_site_fract_y
 _atom_site_fract_z
 _atom_site_occupancy
  Tm  Tm0  1  0.801630  0.801632  0.358705  1
  Tm  Tm1  1  0.198370  0.198368  0.641295  1
  Tm  Tm2  1  0.187398  0.187389  0.173676  1
  Tm  Tm3  1  0.812602  0.812611  0.826324  1
  Tm  Tm4  1  0.500000  0.500000  0.500000  1
  Ru  Ru5  1  0.277597  0.722403  0.000022  1
  Ru  Ru6  1  0.722403  0.277597  0.999978  1
  O  O7  1  0.414626  0.921300  0.912448  1
  O  O8  1  0.078700  0.585375  0.087546  1
  O  O9  1  0.585374  0.078700  0.087552  1
  O  O10  1  0.921300  0.414625  0.912454  1
  O  O11  1  0.599066  0.095847  0.571777  1
  O  O12  1  0.904153  0.400935  0.428227  1
  O  O13  1  0.400934  0.904153  0.428223  1
  O  O14  1  0.001047  0.001020  0.820340  1
  O  O15  1  0.998953  0.998980  0.179660  1
  O  O16  1  0.497890  0.497842  0.796474  1
  O  O17  1  0.502110  0.502158  0.203526  1
  O  O18  1  0.095847  0.599065  0.571773  1
