# generated using pymatgen
data_Dy8Nb5Si16Mo7
_symmetry_space_group_name_H-M   'P 1'
_cell_length_a   6.79586653
_cell_length_b   7.01764294
_cell_length_c   13.17438124
_cell_angle_alpha   90.00270054
_cell_angle_beta   89.95083100
_cell_angle_gamma   90.05928219
_symmetry_Int_Tables_number   1
_chemical_formula_structural   Dy8Nb5Si16Mo7
_chemical_formula_sum   'Dy8 Nb5 Si16 Mo7'
_cell_volume   628.29838275
_cell_formula_units_Z   1
loop_
 _symmetry_equiv_pos_site_id
 _symmetry_equiv_pos_as_xyz
  1  'x, y, z'
loop_
 _atom_site_type_symbol
 _atom_site_label
 _atom_site_symmetry_multiplicity
 _atom_site_fract_x
 _atom_site_fract_y
 _atom_site_fract_z
 _atom_site_occupancy
  Dy  Dy0  1  0.501580  0.330279  0.094804  1
  Dy  Dy1  1  0.002123  0.170434  0.405863  1
  Dy  Dy2  1  0.500850  0.669140  0.595096  1
  Dy  Dy3  1  0.999504  0.831375  0.905072  1
  Dy  Dy4  1  0.500723  0.668995  0.904387  1
  Dy  Dy5  1  0.000893  0.830482  0.594669  1
  Dy  Dy6  1  0.501079  0.329633  0.405748  1
  Dy  Dy7  1  0.001534  0.170544  0.095426  1
  Nb  Nb8  1  0.336447  0.992201  0.250355  1
  Nb  Nb9  1  0.836667  0.508411  0.251186  1
  Nb  Nb10  1  0.663139  0.828140  0.125042  1
  Nb  Nb11  1  0.835374  0.331012  0.873356  1
  Nb  Nb12  1  0.334763  0.169194  0.625000  1
  Si  Si13  1  0.802507  0.628307  0.749214  1
  Si  Si14  1  0.301226  0.872284  0.750523  1
  Si  Si15  1  0.202042  0.375481  0.250242  1
  Si  Si16  1  0.703277  0.125510  0.250985  1
  Si  Si17  1  0.535995  0.370091  0.750569  1
  Si  Si18  1  0.035116  0.130147  0.748241  1
  Si  Si19  1  0.458918  0.626527  0.252019  1
  Si  Si20  1  0.962845  0.872915  0.251609  1
  Si  Si21  1  0.665283  0.041183  0.543996  1
  Si  Si22  1  0.164741  0.459020  0.955980  1
  Si  Si23  1  0.334798  0.958148  0.040329  1
  Si  Si24  1  0.837924  0.542881  0.458619  1
  Si  Si25  1  0.339715  0.955522  0.456271  1
  Si  Si26  1  0.841797  0.540079  0.042522  1
  Si  Si27  1  0.656747  0.039022  0.953799  1
  Si  Si28  1  0.158385  0.461823  0.544379  1
  Mo  Mo29  1  0.663270  0.003244  0.748896  1
  Mo  Mo30  1  0.163817  0.497534  0.749928  1
  Mo  Mo31  1  0.830746  0.334886  0.623583  1
  Mo  Mo32  1  0.329781  0.167738  0.874628  1
  Mo  Mo33  1  0.166880  0.670310  0.125570  1
  Mo  Mo34  1  0.666129  0.829327  0.376530  1
  Mo  Mo35  1  0.163385  0.668179  0.375561  1
