# generated using pymatgen
data_CuGeMo12(Rh3N2)2
_symmetry_space_group_name_H-M   'P 1'
_cell_length_a   6.81515511
_cell_length_b   6.82064002
_cell_length_c   6.81631665
_cell_angle_alpha   89.41872546
_cell_angle_beta   90.00095447
_cell_angle_gamma   89.97918140
_symmetry_Int_Tables_number   1
_chemical_formula_structural   CuGeMo12(Rh3N2)2
_chemical_formula_sum   'Cu1 Ge1 Mo12 Rh6 N4'
_cell_volume   316.83142603
_cell_formula_units_Z   1
loop_
 _symmetry_equiv_pos_site_id
 _symmetry_equiv_pos_as_xyz
  1  'x, y, z'
loop_
 _atom_site_type_symbol
 _atom_site_label
 _atom_site_symmetry_multiplicity
 _atom_site_fract_x
 _atom_site_fract_y
 _atom_site_fract_z
 _atom_site_occupancy
  Cu  Cu0  1  0.187839  0.816705  0.061610  1
  Ge  Ge1  1  0.685609  0.182817  0.934921  1
  Mo  Mo2  1  0.622995  0.044246  0.546952  1
  Mo  Mo3  1  0.123641  0.951656  0.450506  1
  Mo  Mo4  1  0.875717  0.550924  0.951091  1
  Mo  Mo5  1  0.367154  0.459333  0.054280  1
  Mo  Mo6  1  0.199628  0.625201  0.699891  1
  Mo  Mo7  1  0.294455  0.118481  0.792579  1
  Mo  Mo8  1  0.804996  0.873588  0.211070  1
  Mo  Mo9  1  0.700221  0.375507  0.302616  1
  Mo  Mo10  1  0.052382  0.205706  0.129679  1
  Mo  Mo11  1  0.961346  0.307533  0.618789  1
  Mo  Mo12  1  0.545123  0.789956  0.870106  1
  Mo  Mo13  1  0.452558  0.697955  0.371776  1
  Rh  Rh14  1  0.810085  0.689374  0.566010  1
  Rh  Rh15  1  0.313349  0.308594  0.435464  1
  Rh  Rh16  1  0.059694  0.565350  0.305964  1
  Rh  Rh17  1  0.442869  0.063767  0.175191  1
  Rh  Rh18  1  0.564265  0.427522  0.698881  1
  Rh  Rh19  1  0.931876  0.944425  0.821552  1
  N  N20  1  0.374658  0.872708  0.620502  1
  N  N21  1  0.876222  0.126952  0.378396  1
  N  N22  1  0.125932  0.375784  0.874228  1
  N  N23  1  0.627387  0.625916  0.127945  1
