# generated using pymatgen
data_Zr3Mo2P3Os
_symmetry_space_group_name_H-M   'P 1'
_cell_length_a   6.87720329
_cell_length_b   6.79725791
_cell_length_c   3.53841200
_cell_angle_alpha   90.00000000
_cell_angle_beta   90.00000000
_cell_angle_gamma   119.61620134
_symmetry_Int_Tables_number   1
_chemical_formula_structural   Zr3Mo2P3Os
_chemical_formula_sum   'Zr3 Mo2 P3 Os1'
_cell_volume   143.79748115
_cell_formula_units_Z   1
loop_
 _symmetry_equiv_pos_site_id
 _symmetry_equiv_pos_as_xyz
  1  'x, y, z'
loop_
 _atom_site_type_symbol
 _atom_site_label
 _atom_site_symmetry_multiplicity
 _atom_site_fract_x
 _atom_site_fract_y
 _atom_site_fract_z
 _atom_site_occupancy
  Zr  Zr0  1  0.408446  0.405578  0.500000  1
  Zr  Zr1  1  0.591554  0.997133  0.500000  1
  Zr  Zr2  1  0.000000  0.594529  0.500000  1
  Mo  Mo3  1  0.248422  0.000628  0.000000  1
  Mo  Mo4  1  0.751578  0.752206  0.000000  1
  P  P5  1  0.668730  0.332013  0.000000  1
  P  P6  1  0.331270  0.663284  0.000000  1
  P  P7  1  0.000000  0.007753  0.500000  1
  Os  Os8  1  0.000000  0.246876  0.000000  1
