# generated using pymatgen
data_K2Rb2UTe6Pb
_symmetry_space_group_name_H-M   'P 1'
_cell_length_a   8.27278719
_cell_length_b   8.27166471
_cell_length_c   8.71031254
_cell_angle_alpha   81.04707662
_cell_angle_beta   81.02875129
_cell_angle_gamma   119.64583542
_symmetry_Int_Tables_number   1
_chemical_formula_structural   K2Rb2UTe6Pb
_chemical_formula_sum   'K2 Rb2 U1 Te6 Pb1'
_cell_volume   492.51840829
_cell_formula_units_Z   1
loop_
 _symmetry_equiv_pos_site_id
 _symmetry_equiv_pos_as_xyz
  1  'x, y, z'
loop_
 _atom_site_type_symbol
 _atom_site_label
 _atom_site_symmetry_multiplicity
 _atom_site_fract_x
 _atom_site_fract_y
 _atom_site_fract_z
 _atom_site_occupancy
  K  K0  1  0.000569  0.999603  0.499991  1
  K  K1  1  0.499651  0.500285  0.000054  1
  Rb  Rb2  1  0.343037  0.656881  0.499985  1
  Rb  Rb3  1  0.652426  0.347481  0.499991  1
  U  U4  1  0.832417  0.167560  0.000026  1
  Te  Te5  1  0.791085  0.818422  0.202923  1
  Te  Te6  1  0.460911  0.078844  0.204249  1
  Te  Te7  1  0.047828  0.399740  0.205659  1
  Te  Te8  1  0.600317  0.952169  0.794346  1
  Te  Te9  1  0.921175  0.539092  0.795783  1
  Te  Te10  1  0.181584  0.208944  0.797069  1
  Pb  Pb11  1  0.169001  0.830979  0.999925  1
