# generated using pymatgen
data_La4Nd4Cd2CoIr
_symmetry_space_group_name_H-M   'P 1'
_cell_length_a   9.92791309
_cell_length_b   9.92791316
_cell_length_c   9.97356000
_cell_angle_alpha   59.84778815
_cell_angle_beta   59.84778793
_cell_angle_gamma   60.72130672
_symmetry_Int_Tables_number   1
_chemical_formula_structural   La4Nd4Cd2CoIr
_chemical_formula_sum   'La8 Nd8 Cd4 Co2 Ir2'
_cell_volume   697.18600645
_cell_formula_units_Z   2
loop_
 _symmetry_equiv_pos_site_id
 _symmetry_equiv_pos_as_xyz
  1  'x, y, z'
loop_
 _atom_site_type_symbol
 _atom_site_label
 _atom_site_symmetry_multiplicity
 _atom_site_fract_x
 _atom_site_fract_y
 _atom_site_fract_z
 _atom_site_occupancy
  La  La0  1  0.342977  0.342977  0.354678  1
  La  La1  1  0.342977  0.342977  0.959367  1
  La  La2  1  0.343960  0.960321  0.347859  1
  La  La3  1  0.960321  0.343960  0.347859  1
  La  La4  1  0.817734  0.189708  0.188129  1
  La  La5  1  0.189708  0.817734  0.804429  1
  La  La6  1  0.189708  0.817734  0.188129  1
  La  La7  1  0.817734  0.189708  0.804429  1
  Nd  Nd8  1  0.193257  0.193257  0.806743  1
  Nd  Nd9  1  0.805649  0.805649  0.194351  1
  Nd  Nd10  1  0.936176  0.565423  0.562581  1
  Nd  Nd11  1  0.565423  0.936176  0.935821  1
  Nd  Nd12  1  0.565423  0.936176  0.562581  1
  Nd  Nd13  1  0.936176  0.565423  0.935821  1
  Nd  Nd14  1  0.560442  0.560442  0.939558  1
  Nd  Nd15  1  0.936635  0.936635  0.563365  1
  Cd  Cd16  1  0.580848  0.580848  0.578009  1
  Cd  Cd17  1  0.580848  0.580848  0.260295  1
  Cd  Cd18  1  0.579410  0.258249  0.581170  1
  Cd  Cd19  1  0.258249  0.579410  0.581170  1
  Co  Co20  1  0.136216  0.136216  0.147334  1
  Co  Co21  1  0.136216  0.136216  0.580232  1
  Ir  Ir22  1  0.145776  0.578135  0.138044  1
  Ir  Ir23  1  0.578135  0.145776  0.138044  1
