# generated using pymatgen
data_Rb3IrRhBr9
_symmetry_space_group_name_H-M   'P 1'
_cell_length_a   7.50800300
_cell_length_b   7.50800283
_cell_length_c   19.41229700
_cell_angle_alpha   90.00000000
_cell_angle_beta   90.00000000
_cell_angle_gamma   119.99998753
_symmetry_Int_Tables_number   1
_chemical_formula_structural   Rb3IrRhBr9
_chemical_formula_sum   'Rb6 Ir2 Rh2 Br18'
_cell_volume   947.66857311
_cell_formula_units_Z   2
loop_
 _symmetry_equiv_pos_site_id
 _symmetry_equiv_pos_as_xyz
  1  'x, y, z'
loop_
 _atom_site_type_symbol
 _atom_site_label
 _atom_site_symmetry_multiplicity
 _atom_site_fract_x
 _atom_site_fract_y
 _atom_site_fract_z
 _atom_site_occupancy
  Rb  Rb0  1  0.666667  0.333333  0.939058  1
  Rb  Rb1  1  0.333333  0.666667  0.439058  1
  Rb  Rb2  1  0.666667  0.333333  0.561952  1
  Rb  Rb3  1  0.333333  0.666667  0.061952  1
  Rb  Rb4  1  0.000000  0.000000  0.749583  1
  Rb  Rb5  1  0.000000  0.000000  0.249583  1
  Ir  Ir6  1  0.333333  0.666667  0.665628  1
  Ir  Ir7  1  0.666667  0.333333  0.165628  1
  Rh  Rh8  1  0.666667  0.333333  0.335158  1
  Rh  Rh9  1  0.333333  0.666667  0.835158  1
  Br  Br10  1  0.824109  0.648216  0.407353  1
  Br  Br11  1  0.175891  0.351784  0.907353  1
  Br  Br12  1  0.175891  0.824109  0.907353  1
  Br  Br13  1  0.175525  0.351050  0.592671  1
  Br  Br14  1  0.648216  0.824109  0.907353  1
  Br  Br15  1  0.351784  0.175891  0.407353  1
  Br  Br16  1  0.031828  0.515913  0.749517  1
  Br  Br17  1  0.824109  0.175891  0.407353  1
  Br  Br18  1  0.515913  0.031828  0.249517  1
  Br  Br19  1  0.484087  0.515913  0.749517  1
  Br  Br20  1  0.515913  0.484087  0.249517  1
  Br  Br21  1  0.968172  0.484087  0.249517  1
  Br  Br22  1  0.351050  0.175525  0.092671  1
  Br  Br23  1  0.484087  0.968172  0.749517  1
  Br  Br24  1  0.824475  0.648950  0.092671  1
  Br  Br25  1  0.175525  0.824475  0.592671  1
  Br  Br26  1  0.648950  0.824475  0.592671  1
  Br  Br27  1  0.824475  0.175525  0.092671  1
