# generated using pymatgen
data_PrTlCu2(TeO6)2
_symmetry_space_group_name_H-M   'P 1'
_cell_length_a   5.19616200
_cell_length_b   5.19616052
_cell_length_c   9.99959000
_cell_angle_alpha   90.00164960
_cell_angle_beta   90.00085900
_cell_angle_gamma   120.00039727
_symmetry_Int_Tables_number   1
_chemical_formula_structural   PrTlCu2(TeO6)2
_chemical_formula_sum   'Pr1 Tl1 Cu2 Te2 O12'
_cell_volume   233.81713141
_cell_formula_units_Z   1
loop_
 _symmetry_equiv_pos_site_id
 _symmetry_equiv_pos_as_xyz
  1  'x, y, z'
loop_
 _atom_site_type_symbol
 _atom_site_label
 _atom_site_symmetry_multiplicity
 _atom_site_fract_x
 _atom_site_fract_y
 _atom_site_fract_z
 _atom_site_occupancy
  Pr  Pr0  1  0.999998  0.000002  0.000085  1
  Tl  Tl1  1  0.000003  0.000000  0.499890  1
  Cu  Cu2  1  0.333346  0.666686  0.257031  1
  Cu  Cu3  1  0.666651  0.333311  0.742945  1
  Te  Te4  1  0.666668  0.333338  0.258591  1
  Te  Te5  1  0.333336  0.666669  0.741437  1
  O  O6  1  0.631500  0.621760  0.146708  1
  O  O7  1  0.990308  0.368546  0.146707  1
  O  O8  1  0.378273  0.009744  0.146706  1
  O  O9  1  0.366481  0.359948  0.366147  1
  O  O10  1  0.993461  0.633552  0.366152  1
  O  O11  1  0.640104  0.006607  0.366141  1
  O  O12  1  0.359944  0.993333  0.633969  1
  O  O13  1  0.633408  0.640004  0.633963  1
  O  O14  1  0.006595  0.366553  0.633959  1
  O  O15  1  0.009706  0.631430  0.853192  1
  O  O16  1  0.621689  0.990245  0.853189  1
  O  O17  1  0.368526  0.378278  0.853187  1
