# generated using pymatgen
data_Dy3ErOsRu7
_symmetry_space_group_name_H-M   'P 1'
_cell_length_a   5.34566602
_cell_length_b   5.20804588
_cell_length_c   8.95421906
_cell_angle_alpha   90.01283669
_cell_angle_beta   89.99785907
_cell_angle_gamma   120.42835941
_symmetry_Int_Tables_number   1
_chemical_formula_structural   Dy3ErOsRu7
_chemical_formula_sum   'Dy3 Er1 Os1 Ru7'
_cell_volume   214.95330352
_cell_formula_units_Z   1
loop_
 _symmetry_equiv_pos_site_id
 _symmetry_equiv_pos_as_xyz
  1  'x, y, z'
loop_
 _atom_site_type_symbol
 _atom_site_label
 _atom_site_symmetry_multiplicity
 _atom_site_fract_x
 _atom_site_fract_y
 _atom_site_fract_z
 _atom_site_occupancy
  Dy  Dy0  1  0.332778  0.667226  0.432993  1
  Dy  Dy1  1  0.332781  0.667227  0.067256  1
  Dy  Dy2  1  0.669413  0.337076  0.933372  1
  Er  Er3  1  0.669713  0.337599  0.566815  1
  Os  Os4  1  0.163565  0.327493  0.749290  1
  Ru  Ru5  1  0.004577  0.008330  0.499988  1
  Ru  Ru6  1  0.004771  0.008570  0.000046  1
  Ru  Ru7  1  0.168754  0.821993  0.749238  1
  Ru  Ru8  1  0.649854  0.820158  0.749310  1
  Ru  Ru9  1  0.830526  0.660677  0.250590  1
  Ru  Ru10  1  0.828840  0.170219  0.250586  1
  Ru  Ru11  1  0.344427  0.173433  0.250515  1
