# generated using pymatgen
data_La3Cd2HgPtAu2
_symmetry_space_group_name_H-M   'P 1'
_cell_length_a   8.12065453
_cell_length_b   8.07269759
_cell_length_c   4.01573300
_cell_angle_alpha   90.00000000
_cell_angle_beta   90.00000000
_cell_angle_gamma   120.15547479
_symmetry_Int_Tables_number   1
_chemical_formula_structural   La3Cd2HgPtAu2
_chemical_formula_sum   'La3 Cd2 Hg1 Pt1 Au2'
_cell_volume   227.62641103
_cell_formula_units_Z   1
loop_
 _symmetry_equiv_pos_site_id
 _symmetry_equiv_pos_as_xyz
  1  'x, y, z'
loop_
 _atom_site_type_symbol
 _atom_site_label
 _atom_site_symmetry_multiplicity
 _atom_site_fract_x
 _atom_site_fract_y
 _atom_site_fract_z
 _atom_site_occupancy
  La  La0  1  0.420177  0.013875  0.000000  1
  La  La1  1  0.598892  0.586443  0.000000  1
  La  La2  1  0.984374  0.399317  0.000000  1
  Cd  Cd3  1  0.256223  0.257577  0.500000  1
  Cd  Cd4  1  0.002633  0.744299  0.500000  1
  Hg  Hg5  1  0.737576  0.997853  0.500000  1
  Pt  Pt6  1  0.665672  0.338849  0.500000  1
  Au  Au7  1  0.327638  0.661666  0.500000  1
  Au  Au8  1  0.006815  0.000122  0.000000  1
