# generated using pymatgen
data_TmSi(PRh2)3
_symmetry_space_group_name_H-M   'P 1'
_cell_length_a   7.04778100
_cell_length_b   7.04778128
_cell_length_c   3.73148600
_cell_angle_alpha   90.00000000
_cell_angle_beta   90.00000000
_cell_angle_gamma   119.99999399
_symmetry_Int_Tables_number   1
_chemical_formula_structural   TmSi(PRh2)3
_chemical_formula_sum   'Tm1 Si1 P3 Rh6'
_cell_volume   160.51561717
_cell_formula_units_Z   1
loop_
 _symmetry_equiv_pos_site_id
 _symmetry_equiv_pos_as_xyz
  1  'x, y, z'
loop_
 _atom_site_type_symbol
 _atom_site_label
 _atom_site_symmetry_multiplicity
 _atom_site_fract_x
 _atom_site_fract_y
 _atom_site_fract_z
 _atom_site_occupancy
  Tm  Tm0  1  0.000000  0.000000  0.000000  1
  Si  Si1  1  0.666667  0.333333  0.000000  1
  P  P2  1  0.197815  0.373281  0.500000  1
  P  P3  1  0.175465  0.802185  0.500000  1
  P  P4  1  0.626719  0.824535  0.500000  1
  Rh  Rh5  1  0.496700  0.929087  0.000000  1
  Rh  Rh6  1  0.432387  0.503300  0.000000  1
  Rh  Rh7  1  0.070913  0.567613  0.000000  1
  Rh  Rh8  1  0.785540  0.608425  0.500000  1
  Rh  Rh9  1  0.822886  0.214460  0.500000  1
  Rh  Rh10  1  0.391575  0.177114  0.500000  1
