# generated using pymatgen
data_Ca11Ac9Pb16
_symmetry_space_group_name_H-M   'P 1'
_cell_length_a   8.37730776
_cell_length_b   8.93239099
_cell_length_c   16.85141511
_cell_angle_alpha   90.00451617
_cell_angle_beta   90.05723629
_cell_angle_gamma   90.12127897
_symmetry_Int_Tables_number   1
_chemical_formula_structural   Ca11Ac9Pb16
_chemical_formula_sum   'Ca11 Ac9 Pb16'
_cell_volume   1260.97762807
_cell_formula_units_Z   1
loop_
 _symmetry_equiv_pos_site_id
 _symmetry_equiv_pos_as_xyz
  1  'x, y, z'
loop_
 _atom_site_type_symbol
 _atom_site_label
 _atom_site_symmetry_multiplicity
 _atom_site_fract_x
 _atom_site_fract_y
 _atom_site_fract_z
 _atom_site_occupancy
  Ca  Ca0  1  0.831289  0.664814  0.120998  1
  Ca  Ca1  1  0.331457  0.834314  0.377104  1
  Ca  Ca2  1  0.669398  0.163820  0.876379  1
  Ca  Ca3  1  0.171406  0.334401  0.625718  1
  Ca  Ca4  1  0.169214  0.336213  0.876443  1
  Ca  Ca5  1  0.665211  0.165238  0.626392  1
  Ca  Ca6  1  0.330233  0.835715  0.120849  1
  Ca  Ca7  1  0.664444  0.999927  0.246284  1
  Ca  Ca8  1  0.165883  0.499267  0.246991  1
  Ca  Ca9  1  0.833770  0.496005  0.751500  1
  Ca  Ca10  1  0.333103  0.003437  0.751097  1
  Ac  Ac11  1  0.832759  0.670463  0.376812  1
  Ac  Ac12  1  0.998150  0.184511  0.092447  1
  Ac  Ac13  1  0.496833  0.314118  0.406482  1
  Ac  Ac14  1  0.503400  0.684632  0.904430  1
  Ac  Ac15  1  0.004916  0.816084  0.599363  1
  Ac  Ac16  1  0.002683  0.814937  0.904315  1
  Ac  Ac17  1  0.502634  0.683228  0.597232  1
  Ac  Ac18  1  0.496600  0.315665  0.091091  1
  Ac  Ac19  1  0.999266  0.182269  0.405303  1
  Pb  Pb20  1  0.034341  0.890364  0.247796  1
  Pb  Pb21  1  0.527044  0.611096  0.245894  1
  Pb  Pb22  1  0.469264  0.387419  0.751823  1
  Pb  Pb23  1  0.969242  0.113169  0.750910  1
  Pb  Pb24  1  0.792065  0.358251  0.248828  1
  Pb  Pb25  1  0.295431  0.140619  0.248942  1
  Pb  Pb26  1  0.704732  0.861260  0.750423  1
  Pb  Pb27  1  0.206200  0.638831  0.750755  1
  Pb  Pb28  1  0.827377  0.460149  0.958326  1
  Pb  Pb29  1  0.324365  0.040872  0.541834  1
  Pb  Pb30  1  0.672801  0.960583  0.039640  1
  Pb  Pb31  1  0.178892  0.536787  0.461608  1
  Pb  Pb32  1  0.171604  0.539428  0.039951  1
  Pb  Pb33  1  0.667769  0.966464  0.462589  1
  Pb  Pb34  1  0.327001  0.039855  0.958189  1
  Pb  Pb35  1  0.829223  0.455794  0.545264  1
