# generated using pymatgen
data_La8Re(Si4Au)3
_symmetry_space_group_name_H-M   'P 1'
_cell_length_a   8.39404504
_cell_length_b   8.39458153
_cell_length_c   8.80335201
_cell_angle_alpha   90.00542014
_cell_angle_beta   89.99604275
_cell_angle_gamma   120.00817499
_symmetry_Int_Tables_number   1
_chemical_formula_structural   La8Re(Si4Au)3
_chemical_formula_sum   'La8 Re1 Si12 Au3'
_cell_volume   537.17187081
_cell_formula_units_Z   1
loop_
 _symmetry_equiv_pos_site_id
 _symmetry_equiv_pos_as_xyz
  1  'x, y, z'
loop_
 _atom_site_type_symbol
 _atom_site_label
 _atom_site_symmetry_multiplicity
 _atom_site_fract_x
 _atom_site_fract_y
 _atom_site_fract_z
 _atom_site_occupancy
  La  La0  1  0.000021  0.000013  0.748894  1
  La  La1  1  0.999987  0.999978  0.251118  1
  La  La2  1  0.495351  0.504609  0.758553  1
  La  La3  1  0.495308  0.990694  0.758534  1
  La  La4  1  0.009297  0.504683  0.758538  1
  La  La5  1  0.496275  0.503762  0.241196  1
  La  La6  1  0.007376  0.503721  0.241251  1
  La  La7  1  0.496277  0.992589  0.241270  1
  Re  Re8  1  0.333450  0.666605  0.001033  1
  Si  Si9  1  0.838668  0.161338  0.999508  1
  Si  Si10  1  0.838687  0.677320  0.999566  1
  Si  Si11  1  0.322678  0.161320  0.999559  1
  Si  Si12  1  0.836934  0.163062  0.500291  1
  Si  Si13  1  0.836944  0.673884  0.500326  1
  Si  Si14  1  0.326105  0.163048  0.500333  1
  Si  Si15  1  0.162753  0.837272  0.499526  1
  Si  Si16  1  0.674503  0.837244  0.499531  1
  Si  Si17  1  0.162764  0.325510  0.499524  1
  Si  Si18  1  0.167661  0.832351  0.001066  1
  Si  Si19  1  0.664604  0.832297  0.000960  1
  Si  Si20  1  0.167696  0.335370  0.000961  1
  Au  Au21  1  0.666676  0.333333  0.997515  1
  Au  Au22  1  0.666654  0.333349  0.502510  1
  Au  Au23  1  0.333331  0.666648  0.498435  1
