# generated using pymatgen
data_Zr4Ti2Si3GeMo2
_symmetry_space_group_name_H-M   'P 1'
_cell_length_a   3.60925000
_cell_length_b   6.95576645
_cell_length_c   8.35830645
_cell_angle_alpha   89.86972929
_cell_angle_beta   90.00000000
_cell_angle_gamma   90.00000000
_symmetry_Int_Tables_number   1
_chemical_formula_structural   Zr4Ti2Si3GeMo2
_chemical_formula_sum   'Zr4 Ti2 Si3 Ge1 Mo2'
_cell_volume   209.83557751
_cell_formula_units_Z   1
loop_
 _symmetry_equiv_pos_site_id
 _symmetry_equiv_pos_as_xyz
  1  'x, y, z'
loop_
 _atom_site_type_symbol
 _atom_site_label
 _atom_site_symmetry_multiplicity
 _atom_site_fract_x
 _atom_site_fract_y
 _atom_site_fract_z
 _atom_site_occupancy
  Zr  Zr0  1  0.250000  0.550913  0.837860  1
  Zr  Zr1  1  0.250000  0.057186  0.665652  1
  Zr  Zr2  1  0.750000  0.455424  0.165815  1
  Zr  Zr3  1  0.750000  0.956030  0.331986  1
  Ti  Ti4  1  0.250000  0.619210  0.439924  1
  Ti  Ti5  1  0.250000  0.122338  0.057611  1
  Si  Si6  1  0.250000  0.753172  0.139944  1
  Si  Si7  1  0.250000  0.252310  0.359862  1
  Si  Si8  1  0.750000  0.247991  0.861317  1
  Ge  Ge9  1  0.750000  0.749659  0.638221  1
  Mo  Mo10  1  0.750000  0.365904  0.557199  1
  Mo  Mo11  1  0.750000  0.869863  0.944608  1
