# generated using pymatgen
data_Ho2Lu2MnRu7
_symmetry_space_group_name_H-M   'P 1'
_cell_length_a   5.30686700
_cell_length_b   5.19095619
_cell_length_c   8.84846673
_cell_angle_alpha   89.89818833
_cell_angle_beta   90.00000000
_cell_angle_gamma   120.74142095
_symmetry_Int_Tables_number   1
_chemical_formula_structural   Ho2Lu2MnRu7
_chemical_formula_sum   'Ho2 Lu2 Mn1 Ru7'
_cell_volume   209.50284802
_cell_formula_units_Z   1
loop_
 _symmetry_equiv_pos_site_id
 _symmetry_equiv_pos_as_xyz
  1  'x, y, z'
loop_
 _atom_site_type_symbol
 _atom_site_label
 _atom_site_symmetry_multiplicity
 _atom_site_fract_x
 _atom_site_fract_y
 _atom_site_fract_z
 _atom_site_occupancy
  Ho  Ho0  1  0.331316  0.662634  0.432374  1
  Ho  Ho1  1  0.667824  0.335646  0.566604  1
  Lu  Lu2  1  0.668172  0.336343  0.934705  1
  Lu  Lu3  1  0.330961  0.661925  0.066450  1
  Mn  Mn4  1  0.166579  0.333160  0.752122  1
  Ru  Ru5  1  0.173563  0.825597  0.752476  1
  Ru  Ru6  1  0.346938  0.172755  0.247477  1
  Ru  Ru7  1  0.834653  0.669305  0.247777  1
  Ru  Ru8  1  0.652033  0.825597  0.752476  1
  Ru  Ru9  1  0.001311  0.002622  0.997787  1
  Ru  Ru10  1  0.825818  0.172755  0.247477  1
  Ru  Ru11  1  0.000832  0.001664  0.502276  1
