# generated using pymatgen
data_Nd5Y15(SnSb)8
_symmetry_space_group_name_H-M   'P 1'
_cell_length_a   8.16571648
_cell_length_b   8.22469748
_cell_length_c   15.53054920
_cell_angle_alpha   89.99609549
_cell_angle_beta   90.69294755
_cell_angle_gamma   89.96391506
_symmetry_Int_Tables_number   1
_chemical_formula_structural   Nd5Y15(SnSb)8
_chemical_formula_sum   'Nd5 Y15 Sn8 Sb8'
_cell_volume   1042.96369890
_cell_formula_units_Z   1
loop_
 _symmetry_equiv_pos_site_id
 _symmetry_equiv_pos_as_xyz
  1  'x, y, z'
loop_
 _atom_site_type_symbol
 _atom_site_label
 _atom_site_symmetry_multiplicity
 _atom_site_fract_x
 _atom_site_fract_y
 _atom_site_fract_z
 _atom_site_occupancy
  Nd  Nd0  1  0.466157  0.821668  0.899710  1
  Nd  Nd1  1  0.958005  0.673220  0.603443  1
  Nd  Nd2  1  0.541642  0.174067  0.396326  1
  Nd  Nd3  1  0.034798  0.322903  0.101124  1
  Nd  Nd4  1  0.537706  0.179644  0.101481  1
  Y  Y5  1  0.052420  0.329866  0.391158  1
  Y  Y6  1  0.446817  0.828590  0.609704  1
  Y  Y7  1  0.958920  0.674608  0.894935  1
  Y  Y8  1  0.622446  0.340002  0.877231  1
  Y  Y9  1  0.112814  0.160448  0.620882  1
  Y  Y10  1  0.387636  0.661620  0.380041  1
  Y  Y11  1  0.878559  0.841133  0.121913  1
  Y  Y12  1  0.377408  0.661526  0.121640  1
  Y  Y13  1  0.881622  0.838701  0.379864  1
  Y  Y14  1  0.618810  0.338465  0.620789  1
  Y  Y15  1  0.124057  0.160737  0.878880  1
  Y  Y16  1  0.288853  0.501145  0.749897  1
  Y  Y17  1  0.787468  0.997413  0.751434  1
  Y  Y18  1  0.711921  0.499006  0.248298  1
  Y  Y19  1  0.212202  0.002998  0.250499  1
  Sn  Sn20  1  0.650649  0.642360  0.748675  1
  Sn  Sn21  1  0.149910  0.856820  0.752398  1
  Sn  Sn22  1  0.347701  0.360398  0.249584  1
  Sn  Sn23  1  0.849886  0.142760  0.251776  1
  Sn  Sn24  1  0.420728  0.126718  0.749452  1
  Sn  Sn25  1  0.922379  0.372927  0.750068  1
  Sn  Sn26  1  0.578466  0.872992  0.250295  1
  Sn  Sn27  1  0.079286  0.628409  0.250990  1
  Sb  Sb28  1  0.218442  0.968944  0.045920  1
  Sb  Sb29  1  0.732614  0.517516  0.451427  1
  Sb  Sb30  1  0.767312  0.017136  0.548715  1
  Sb  Sb31  1  0.277933  0.471973  0.953891  1
  Sb  Sb32  1  0.786548  0.033055  0.954848  1
  Sb  Sb33  1  0.280157  0.470379  0.544583  1
  Sb  Sb34  1  0.219868  0.970902  0.456330  1
  Sb  Sb35  1  0.717861  0.538953  0.041797  1
