# generated using pymatgen
data_NdDyFe3Tc14C3
_symmetry_space_group_name_H-M   'P 1'
_cell_length_a   6.91180625
_cell_length_b   6.91180663
_cell_length_c   6.91180578
_cell_angle_alpha   82.63761804
_cell_angle_beta   82.63760516
_cell_angle_gamma   82.63760617
_symmetry_Int_Tables_number   1
_chemical_formula_structural   NdDyFe3Tc14C3
_chemical_formula_sum   'Nd1 Dy1 Fe3 Tc14 C3'
_cell_volume   322.67397030
_cell_formula_units_Z   1
loop_
 _symmetry_equiv_pos_site_id
 _symmetry_equiv_pos_as_xyz
  1  'x, y, z'
loop_
 _atom_site_type_symbol
 _atom_site_label
 _atom_site_symmetry_multiplicity
 _atom_site_fract_x
 _atom_site_fract_y
 _atom_site_fract_z
 _atom_site_occupancy
  Nd  Nd0  1  0.650329  0.650329  0.650329  1
  Dy  Dy1  1  0.347932  0.347932  0.347932  1
  Fe  Fe2  1  0.999160  0.999160  0.500517  1
  Fe  Fe3  1  0.500517  0.999160  0.999160  1
  Fe  Fe4  1  0.999160  0.500517  0.999160  1
  Tc  Tc5  1  0.724069  0.275468  0.000584  1
  Tc  Tc6  1  0.000584  0.724069  0.275468  1
  Tc  Tc7  1  0.275468  0.000584  0.724069  1
  Tc  Tc8  1  0.000584  0.275468  0.724069  1
  Tc  Tc9  1  0.724069  0.000584  0.275468  1
  Tc  Tc10  1  0.275468  0.724069  0.000584  1
  Tc  Tc11  1  0.346949  0.346949  0.863829  1
  Tc  Tc12  1  0.863829  0.346949  0.346949  1
  Tc  Tc13  1  0.346949  0.863829  0.346949  1
  Tc  Tc14  1  0.651838  0.651838  0.139851  1
  Tc  Tc15  1  0.139851  0.651838  0.651838  1
  Tc  Tc16  1  0.651838  0.139851  0.651838  1
  Tc  Tc17  1  0.899805  0.899805  0.899805  1
  Tc  Tc18  1  0.100753  0.100753  0.100753  1
  C  C19  1  0.497105  0.497105  0.006637  1
  C  C20  1  0.006637  0.497105  0.497105  1
  C  C21  1  0.497105  0.006637  0.497105  1
