# generated using pymatgen
data_Er8Lu12Si15As
_symmetry_space_group_name_H-M   'P 1'
_cell_length_a   7.58261613
_cell_length_b   7.54353572
_cell_length_c   13.77003660
_cell_angle_alpha   89.85393915
_cell_angle_beta   89.26974199
_cell_angle_gamma   90.04524727
_symmetry_Int_Tables_number   1
_chemical_formula_structural   Er8Lu12Si15As
_chemical_formula_sum   'Er8 Lu12 Si15 As1'
_cell_volume   787.57565431
_cell_formula_units_Z   1
loop_
 _symmetry_equiv_pos_site_id
 _symmetry_equiv_pos_as_xyz
  1  'x, y, z'
loop_
 _atom_site_type_symbol
 _atom_site_label
 _atom_site_symmetry_multiplicity
 _atom_site_fract_x
 _atom_site_fract_y
 _atom_site_fract_z
 _atom_site_occupancy
  Er  Er0  1  0.349432  0.999496  0.461369  1
  Er  Er1  1  0.501863  0.851145  0.713502  1
  Er  Er2  1  0.500987  0.149740  0.212355  1
  Er  Er3  1  0.848423  0.497653  0.286841  1
  Er  Er4  1  0.149886  0.502454  0.787944  1
  Er  Er5  1  0.654918  0.996688  0.964874  1
  Er  Er6  1  0.993558  0.353531  0.534244  1
  Er  Er7  1  0.999890  0.649959  0.037688  1
  Lu  Lu8  1  0.325736  0.324537  0.000444  1
  Lu  Lu9  1  0.175595  0.822954  0.249752  1
  Lu  Lu10  1  0.821781  0.175490  0.750260  1
  Lu  Lu11  1  0.673144  0.674715  0.499657  1
  Lu  Lu12  1  0.153930  0.002156  0.871537  1
  Lu  Lu13  1  0.504461  0.647742  0.123337  1
  Lu  Lu14  1  0.493002  0.349297  0.627587  1
  Lu  Lu15  1  0.652505  0.506478  0.878856  1
  Lu  Lu16  1  0.350953  0.496439  0.377471  1
  Lu  Lu17  1  0.850424  0.004743  0.372122  1
  Lu  Lu18  1  0.996181  0.147637  0.126715  1
  Lu  Lu19  1  0.998049  0.847410  0.623957  1
  Si  Si20  1  0.356472  0.707354  0.930129  1
  Si  Si21  1  0.641207  0.294158  0.431234  1
  Si  Si22  1  0.708028  0.357087  0.071814  1
  Si  Si23  1  0.294689  0.644206  0.572066  1
  Si  Si24  1  0.793064  0.855516  0.180755  1
  Si  Si25  1  0.143772  0.206715  0.319454  1
  Si  Si26  1  0.861254  0.797253  0.819699  1
  Si  Si27  1  0.297469  0.948762  0.062700  1
  Si  Si28  1  0.548664  0.797645  0.312792  1
  Si  Si29  1  0.468061  0.202230  0.822459  1
  Si  Si30  1  0.797145  0.546802  0.686414  1
  Si  Si31  1  0.202267  0.449260  0.187367  1
  Si  Si32  1  0.698884  0.048790  0.562736  1
  Si  Si33  1  0.955111  0.298229  0.936337  1
  Si  Si34  1  0.046472  0.702956  0.434574  1
  As  As35  1  0.192721  0.142773  0.668960  1
