# generated using pymatgen
data_U4TiTc3C8
_symmetry_space_group_name_H-M   'P 1'
_cell_length_a   3.19637200
_cell_length_b   5.59221072
_cell_length_c   11.05613353
_cell_angle_alpha   90.30340797
_cell_angle_beta   90.00000000
_cell_angle_gamma   90.00000000
_symmetry_Int_Tables_number   1
_chemical_formula_structural   U4TiTc3C8
_chemical_formula_sum   'U4 Ti1 Tc3 C8'
_cell_volume   197.62324717
_cell_formula_units_Z   1
loop_
 _symmetry_equiv_pos_site_id
 _symmetry_equiv_pos_as_xyz
  1  'x, y, z'
loop_
 _atom_site_type_symbol
 _atom_site_label
 _atom_site_symmetry_multiplicity
 _atom_site_fract_x
 _atom_site_fract_y
 _atom_site_fract_z
 _atom_site_occupancy
  U  U0  1  0.250000  0.080381  0.857694  1
  U  U1  1  0.250000  0.585825  0.643293  1
  U  U2  1  0.750000  0.919526  0.140273  1
  U  U3  1  0.750000  0.415266  0.358800  1
  Ti  Ti4  1  0.250000  0.421336  0.101196  1
  Tc  Tc5  1  0.250000  0.914664  0.397145  1
  Tc  Tc6  1  0.750000  0.575264  0.898601  1
  Tc  Tc7  1  0.750000  0.085476  0.601958  1
  C  C8  1  0.250000  0.160865  0.245799  1
  C  C9  1  0.250000  0.662542  0.256945  1
  C  C10  1  0.750000  0.841663  0.754149  1
  C  C11  1  0.750000  0.341246  0.744411  1
  C  C12  1  0.250000  0.745969  0.992840  1
  C  C13  1  0.250000  0.246396  0.507573  1
  C  C14  1  0.750000  0.248336  0.006257  1
  C  C15  1  0.750000  0.755246  0.493065  1
