# generated using pymatgen
data_Dy15ThCd3Ni4Hg
_symmetry_space_group_name_H-M   'P 1'
_cell_length_a   9.55190425
_cell_length_b   9.55190474
_cell_length_c   9.55190503
_cell_angle_alpha   60.13464833
_cell_angle_beta   60.13465041
_cell_angle_gamma   60.13464548
_symmetry_Int_Tables_number   1
_chemical_formula_structural   Dy15ThCd3Ni4Hg
_chemical_formula_sum   'Dy15 Th1 Cd3 Ni4 Hg1'
_cell_volume   618.12685584
_cell_formula_units_Z   1
loop_
 _symmetry_equiv_pos_site_id
 _symmetry_equiv_pos_as_xyz
  1  'x, y, z'
loop_
 _atom_site_type_symbol
 _atom_site_label
 _atom_site_symmetry_multiplicity
 _atom_site_fract_x
 _atom_site_fract_y
 _atom_site_fract_z
 _atom_site_occupancy
  Dy  Dy0  1  0.599383  0.599383  0.199094  1
  Dy  Dy1  1  0.599383  0.199094  0.599383  1
  Dy  Dy2  1  0.199094  0.599383  0.599383  1
  Dy  Dy3  1  0.062772  0.439160  0.439160  1
  Dy  Dy4  1  0.440035  0.061835  0.061835  1
  Dy  Dy5  1  0.439160  0.062772  0.439160  1
  Dy  Dy6  1  0.061835  0.440035  0.061835  1
  Dy  Dy7  1  0.439160  0.439160  0.062772  1
  Dy  Dy8  1  0.061835  0.061835  0.440035  1
  Dy  Dy9  1  0.187304  0.814429  0.814429  1
  Dy  Dy10  1  0.813179  0.186227  0.186227  1
  Dy  Dy11  1  0.814429  0.187304  0.814429  1
  Dy  Dy12  1  0.186227  0.813179  0.186227  1
  Dy  Dy13  1  0.814429  0.814429  0.187304  1
  Dy  Dy14  1  0.186227  0.186227  0.813179  1
  Th  Th15  1  0.593558  0.593558  0.593558  1
  Cd  Cd16  1  0.831485  0.831485  0.505921  1
  Cd  Cd17  1  0.831485  0.505921  0.831485  1
  Cd  Cd18  1  0.505921  0.831485  0.831485  1
  Ni  Ni19  1  0.393093  0.393093  0.393093  1
  Ni  Ni20  1  0.392378  0.392378  0.821031  1
  Ni  Ni21  1  0.392378  0.821031  0.392378  1
  Ni  Ni22  1  0.821031  0.392378  0.392378  1
  Hg  Hg23  1  0.834220  0.834220  0.834220  1
