# generated using pymatgen
data_Nd3SnPt2RhPb2
_symmetry_space_group_name_H-M   'P 1'
_cell_length_a   7.84212300
_cell_length_b   7.89320033
_cell_length_c   3.98902900
_cell_angle_alpha   90.00000000
_cell_angle_beta   90.00000000
_cell_angle_gamma   119.78617329
_symmetry_Int_Tables_number   1
_chemical_formula_structural   Nd3SnPt2RhPb2
_chemical_formula_sum   'Nd3 Sn1 Pt2 Rh1 Pb2'
_cell_volume   214.29711807
_cell_formula_units_Z   1
loop_
 _symmetry_equiv_pos_site_id
 _symmetry_equiv_pos_as_xyz
  1  'x, y, z'
loop_
 _atom_site_type_symbol
 _atom_site_label
 _atom_site_symmetry_multiplicity
 _atom_site_fract_x
 _atom_site_fract_y
 _atom_site_fract_z
 _atom_site_occupancy
  Nd  Nd0  1  0.003088  0.594435  0.000000  1
  Nd  Nd1  1  0.408652  0.405565  0.000000  1
  Nd  Nd2  1  0.589903  0.000000  0.000000  1
  Sn  Sn3  1  0.253343  0.000000  0.500000  1
  Pt  Pt4  1  0.654797  0.325523  0.500000  1
  Pt  Pt5  1  0.329274  0.674477  0.500000  1
  Rh  Rh6  1  0.012682  0.000000  0.000000  1
  Pb  Pb7  1  0.746901  0.745540  0.500000  1
  Pb  Pb8  1  0.001360  0.254460  0.500000  1
