# generated using pymatgen
data_Cs4HfTe4
_symmetry_space_group_name_H-M   'P 1'
_cell_length_a   9.91000700
_cell_length_b   11.51168300
_cell_length_c   17.00552500
_cell_angle_alpha   90.00000000
_cell_angle_beta   90.00000000
_cell_angle_gamma   90.00000000
_symmetry_Int_Tables_number   1
_chemical_formula_structural   Cs4HfTe4
_chemical_formula_sum   'Cs16 Hf4 Te16'
_cell_volume   1940.00490165
_cell_formula_units_Z   4
loop_
 _symmetry_equiv_pos_site_id
 _symmetry_equiv_pos_as_xyz
  1  'x, y, z'
loop_
 _atom_site_type_symbol
 _atom_site_label
 _atom_site_symmetry_multiplicity
 _atom_site_fract_x
 _atom_site_fract_y
 _atom_site_fract_z
 _atom_site_occupancy
  Cs  Cs0  1  0.500000  0.500000  0.500000  1
  Cs  Cs1  1  0.152352  0.446602  0.277490  1
  Cs  Cs2  1  0.152352  0.053398  0.277490  1
  Cs  Cs3  1  0.011526  0.750000  0.427628  1
  Cs  Cs4  1  0.988474  0.250000  0.572372  1
  Cs  Cs5  1  0.652352  0.946602  0.222510  1
  Cs  Cs6  1  0.347648  0.053398  0.777490  1
  Cs  Cs7  1  0.847648  0.946602  0.722510  1
  Cs  Cs8  1  0.347648  0.446602  0.777490  1
  Cs  Cs9  1  0.000000  0.500000  0.000000  1
  Cs  Cs10  1  0.511526  0.250000  0.072372  1
  Cs  Cs11  1  0.652352  0.553398  0.222510  1
  Cs  Cs12  1  0.488474  0.750000  0.927628  1
  Cs  Cs13  1  0.000000  0.000000  0.000000  1
  Cs  Cs14  1  0.847648  0.553398  0.722510  1
  Cs  Cs15  1  0.500000  0.000000  0.500000  1
  Hf  Hf16  1  0.746789  0.250000  0.832991  1
  Hf  Hf17  1  0.753211  0.250000  0.332991  1
  Hf  Hf18  1  0.246789  0.750000  0.667009  1
  Hf  Hf19  1  0.253211  0.750000  0.167009  1
  Te  Te20  1  0.524159  0.750000  0.674871  1
  Te  Te21  1  0.475841  0.250000  0.325129  1
  Te  Te22  1  0.360926  0.750000  0.316467  1
  Te  Te23  1  0.139074  0.750000  0.816467  1
  Te  Te24  1  0.024159  0.250000  0.825129  1
  Te  Te25  1  0.975841  0.750000  0.174871  1
  Te  Te26  1  0.639074  0.250000  0.683533  1
  Te  Te27  1  0.860926  0.250000  0.183533  1
  Te  Te28  1  0.839672  0.444475  0.409669  1
  Te  Te29  1  0.660328  0.055525  0.909669  1
  Te  Te30  1  0.339672  0.944475  0.090331  1
  Te  Te31  1  0.339672  0.555525  0.090331  1
  Te  Te32  1  0.160328  0.555525  0.590331  1
  Te  Te33  1  0.839672  0.055525  0.409669  1
  Te  Te34  1  0.160328  0.944475  0.590331  1
  Te  Te35  1  0.660328  0.444475  0.909669  1
