# generated using pymatgen
data_Dy5Ho(CI3)2
_symmetry_space_group_name_H-M   'P 1'
_cell_length_a   3.90129100
_cell_length_b   8.69930233
_cell_length_c   11.93013700
_cell_angle_alpha   92.23935557
_cell_angle_beta   90.00000000
_cell_angle_gamma   90.00000000
_symmetry_Int_Tables_number   1
_chemical_formula_structural   Dy5Ho(CI3)2
_chemical_formula_sum   'Dy5 Ho1 C2 I6'
_cell_volume   404.58186250
_cell_formula_units_Z   1
loop_
 _symmetry_equiv_pos_site_id
 _symmetry_equiv_pos_as_xyz
  1  'x, y, z'
loop_
 _atom_site_type_symbol
 _atom_site_label
 _atom_site_symmetry_multiplicity
 _atom_site_fract_x
 _atom_site_fract_y
 _atom_site_fract_z
 _atom_site_occupancy
  Dy  Dy0  1  0.250000  0.918802  0.598820  1
  Dy  Dy1  1  0.750000  0.080959  0.401168  1
  Dy  Dy2  1  0.250000  0.887199  0.189067  1
  Dy  Dy3  1  0.750000  0.112684  0.811000  1
  Dy  Dy4  1  0.250000  0.291654  0.614690  1
  Ho  Ho5  1  0.750000  0.709379  0.385305  1
  C  C6  1  0.250000  0.882252  0.387715  1
  C  C7  1  0.750000  0.116787  0.612264  1
  I  I8  1  0.250000  0.859566  0.871969  1
  I  I9  1  0.750000  0.140392  0.128050  1
  I  I10  1  0.250000  0.375040  0.870150  1
  I  I11  1  0.750000  0.624976  0.130193  1
  I  I12  1  0.250000  0.382767  0.368276  1
  I  I13  1  0.750000  0.617543  0.631334  1
