# generated using pymatgen
data_Zr4Ir2PdRh
_symmetry_space_group_name_H-M   'P 1'
_cell_length_a   4.43822700
_cell_length_b   5.35971972
_cell_length_c   6.36214099
_cell_angle_alpha   90.34697603
_cell_angle_beta   90.00000000
_cell_angle_gamma   90.00000000
_symmetry_Int_Tables_number   1
_chemical_formula_structural   Zr4Ir2PdRh
_chemical_formula_sum   'Zr4 Ir2 Pd1 Rh1'
_cell_volume   151.33762562
_cell_formula_units_Z   1
loop_
 _symmetry_equiv_pos_site_id
 _symmetry_equiv_pos_as_xyz
  1  'x, y, z'
loop_
 _atom_site_type_symbol
 _atom_site_label
 _atom_site_symmetry_multiplicity
 _atom_site_fract_x
 _atom_site_fract_y
 _atom_site_fract_z
 _atom_site_occupancy
  Zr  Zr0  1  0.750000  0.858089  0.820900  1
  Zr  Zr1  1  0.250000  0.362758  0.685403  1
  Zr  Zr2  1  0.750000  0.639506  0.323367  1
  Zr  Zr3  1  0.250000  0.135864  0.168059  1
  Ir  Ir4  1  0.250000  0.838012  0.539406  1
  Ir  Ir5  1  0.750000  0.339195  0.958875  1
  Pd  Pd6  1  0.750000  0.158717  0.453474  1
  Rh  Rh7  1  0.250000  0.667860  0.050514  1
