# generated using pymatgen
data_Nd10OsRu3
_symmetry_space_group_name_H-M   'P 1'
_cell_length_a   8.84280173
_cell_length_b   8.85083001
_cell_length_c   7.44233589
_cell_angle_alpha   83.70016207
_cell_angle_beta   83.74872655
_cell_angle_gamma   43.95102728
_symmetry_Int_Tables_number   1
_chemical_formula_structural   Nd10OsRu3
_chemical_formula_sum   'Nd10 Os1 Ru3'
_cell_volume   401.44969705
_cell_formula_units_Z   1
loop_
 _symmetry_equiv_pos_site_id
 _symmetry_equiv_pos_as_xyz
  1  'x, y, z'
loop_
 _atom_site_type_symbol
 _atom_site_label
 _atom_site_symmetry_multiplicity
 _atom_site_fract_x
 _atom_site_fract_y
 _atom_site_fract_z
 _atom_site_occupancy
  Nd  Nd0  1  0.019465  0.795675  0.915096  1
  Nd  Nd1  1  0.204219  0.979048  0.586259  1
  Nd  Nd2  1  0.980316  0.204311  0.086069  1
  Nd  Nd3  1  0.794938  0.020073  0.414595  1
  Nd  Nd4  1  0.358842  0.208681  0.814088  1
  Nd  Nd5  1  0.794694  0.640097  0.684351  1
  Nd  Nd6  1  0.639608  0.793144  0.185287  1
  Nd  Nd7  1  0.207303  0.358724  0.314598  1
  Nd  Nd8  1  0.575224  0.424265  0.749565  1
  Nd  Nd9  1  0.423553  0.576158  0.250930  1
  Os  Os10  1  0.177097  0.601913  0.575209  1
  Ru  Ru11  1  0.397168  0.825062  0.925093  1
  Ru  Ru12  1  0.825583  0.396843  0.423973  1
  Ru  Ru13  1  0.601988  0.176006  0.074886  1
