# generated using pymatgen
data_SmGa4Ni9
_symmetry_space_group_name_H-M   'P 1'
_cell_length_a   8.12730092
_cell_length_b   8.12730114
_cell_length_c   8.12730105
_cell_angle_alpha   120.88149412
_cell_angle_beta   120.88149577
_cell_angle_gamma   88.47987154
_symmetry_Int_Tables_number   1
_chemical_formula_structural   SmGa4Ni9
_chemical_formula_sum   'Sm2 Ga8 Ni18'
_cell_volume   374.39742401
_cell_formula_units_Z   2
loop_
 _symmetry_equiv_pos_site_id
 _symmetry_equiv_pos_as_xyz
  1  'x, y, z'
loop_
 _atom_site_type_symbol
 _atom_site_label
 _atom_site_symmetry_multiplicity
 _atom_site_fract_x
 _atom_site_fract_y
 _atom_site_fract_z
 _atom_site_occupancy
  Sm  Sm0  1  0.750000  0.750000  0.000000  1
  Sm  Sm1  1  0.250000  0.250000  0.000000  1
  Ga  Ga2  1  0.800817  0.300816  0.856709  1
  Ga  Ga3  1  0.444108  0.944109  0.143292  1
  Ga  Ga4  1  0.699185  0.555892  0.500000  1
  Ga  Ga5  1  0.055891  0.199184  0.500000  1
  Ga  Ga6  1  0.199185  0.699185  0.143292  1
  Ga  Ga7  1  0.555891  0.055891  0.856709  1
  Ga  Ga8  1  0.944109  0.800816  0.500000  1
  Ga  Ga9  1  0.300816  0.444109  0.500000  1
  Ni  Ni10  1  0.203370  0.065195  0.268564  1
  Ni  Ni11  1  0.796628  0.934806  0.731437  1
  Ni  Ni12  1  0.296629  0.565194  0.861823  1
  Ni  Ni13  1  0.703369  0.434805  0.138176  1
  Ni  Ni14  1  0.434807  0.296629  0.731437  1
  Ni  Ni15  1  0.565194  0.703369  0.268564  1
  Ni  Ni16  1  0.934806  0.203370  0.138178  1
  Ni  Ni17  1  0.065195  0.796629  0.861824  1
  Ni  Ni18  1  0.499999  0.000000  0.499999  1
  Ni  Ni19  1  0.000000  0.499999  0.499999  1
  Ni  Ni20  1  0.296857  0.796856  0.736689  1
  Ni  Ni21  1  0.060167  0.560168  0.263312  1
  Ni  Ni22  1  0.203144  0.939833  0.499999  1
  Ni  Ni23  1  0.439834  0.703145  0.500002  1
  Ni  Ni24  1  0.703145  0.203144  0.263312  1
  Ni  Ni25  1  0.939833  0.439834  0.736689  1
  Ni  Ni26  1  0.560168  0.296857  0.500002  1
  Ni  Ni27  1  0.796856  0.060167  0.499999  1
