# generated using pymatgen
data_SrErTmGa8Ag3
_symmetry_space_group_name_H-M   'P 1'
_cell_length_a   4.37619859
_cell_length_b   8.46254483
_cell_length_c   8.46254555
_cell_angle_alpha   69.02698931
_cell_angle_beta   75.01520523
_cell_angle_gamma   75.01519819
_symmetry_Int_Tables_number   1
_chemical_formula_structural   SrErTmGa8Ag3
_chemical_formula_sum   'Sr1 Er1 Tm1 Ga8 Ag3'
_cell_volume   277.85636734
_cell_formula_units_Z   1
loop_
 _symmetry_equiv_pos_site_id
 _symmetry_equiv_pos_as_xyz
  1  'x, y, z'
loop_
 _atom_site_type_symbol
 _atom_site_label
 _atom_site_symmetry_multiplicity
 _atom_site_fract_x
 _atom_site_fract_y
 _atom_site_fract_z
 _atom_site_occupancy
  Sr  Sr0  1  0.500031  0.499969  0.499969  1
  Er  Er1  1  0.200320  0.799680  0.799680  1
  Tm  Tm2  1  0.799764  0.200236  0.200236  1
  Ga  Ga3  1  0.353670  0.362251  0.930409  1
  Ga  Ga4  1  0.646307  0.637625  0.069762  1
  Ga  Ga5  1  0.353670  0.930409  0.362251  1
  Ga  Ga6  1  0.646307  0.069762  0.637625  1
  Ga  Ga7  1  0.163183  0.469819  0.203815  1
  Ga  Ga8  1  0.836896  0.530028  0.796180  1
  Ga  Ga9  1  0.163183  0.203815  0.469819  1
  Ga  Ga10  1  0.836896  0.796180  0.530028  1
  Ag  Ag11  1  0.499927  0.000073  0.000073  1
  Ag  Ag12  1  0.999923  0.809532  0.190622  1
  Ag  Ag13  1  0.999923  0.190622  0.809532  1
