# generated using pymatgen
data_YTh2ScAl2Ir3
_symmetry_space_group_name_H-M   'P 1'
_cell_length_a   7.10239800
_cell_length_b   7.26301847
_cell_length_c   4.22922300
_cell_angle_alpha   90.00000000
_cell_angle_beta   90.00000000
_cell_angle_gamma   119.27110421
_symmetry_Int_Tables_number   1
_chemical_formula_structural   YTh2ScAl2Ir3
_chemical_formula_sum   'Y1 Th2 Sc1 Al2 Ir3'
_cell_volume   190.30778857
_cell_formula_units_Z   1
loop_
 _symmetry_equiv_pos_site_id
 _symmetry_equiv_pos_as_xyz
  1  'x, y, z'
loop_
 _atom_site_type_symbol
 _atom_site_label
 _atom_site_symmetry_multiplicity
 _atom_site_fract_x
 _atom_site_fract_y
 _atom_site_fract_z
 _atom_site_occupancy
  Y  Y0  1  0.399719  0.000000  0.500000  1
  Th  Th1  1  0.008468  0.431000  0.500000  1
  Th  Th2  1  0.577468  0.569000  0.500000  1
  Sc  Sc3  1  0.756421  0.000000  0.000000  1
  Al  Al4  1  0.010606  0.773136  0.000000  1
  Al  Al5  1  0.237471  0.226864  0.000000  1
  Ir  Ir6  1  0.330361  0.650244  0.000000  1
  Ir  Ir7  1  0.680118  0.349756  0.000000  1
  Ir  Ir8  1  0.999367  0.000000  0.500000  1
