# generated using pymatgen
data_Sr3Li2Pd7
_symmetry_space_group_name_H-M   'P 1'
_cell_length_a   9.20347235
_cell_length_b   9.20347300
_cell_length_c   9.20347159
_cell_angle_alpha   35.53213695
_cell_angle_beta   35.53213020
_cell_angle_gamma   35.53213373
_symmetry_Int_Tables_number   1
_chemical_formula_structural   Sr3Li2Pd7
_chemical_formula_sum   'Sr3 Li2 Pd7'
_cell_volume   235.30802137
_cell_formula_units_Z   1
loop_
 _symmetry_equiv_pos_site_id
 _symmetry_equiv_pos_as_xyz
  1  'x, y, z'
loop_
 _atom_site_type_symbol
 _atom_site_label
 _atom_site_symmetry_multiplicity
 _atom_site_fract_x
 _atom_site_fract_y
 _atom_site_fract_z
 _atom_site_occupancy
  Sr  Sr0  1  0.359575  0.359575  0.359575  1
  Sr  Sr1  1  0.500000  0.500000  0.500000  1
  Sr  Sr2  1  0.640425  0.640425  0.640425  1
  Li  Li3  1  0.165355  0.165355  0.165355  1
  Li  Li4  1  0.834645  0.834645  0.834645  1
  Pd  Pd5  1  0.000000  0.000000  0.000000  1
  Pd  Pd6  1  0.577538  0.080262  0.080262  1
  Pd  Pd7  1  0.080262  0.577538  0.080262  1
  Pd  Pd8  1  0.919738  0.919738  0.422462  1
  Pd  Pd9  1  0.080262  0.080262  0.577538  1
  Pd  Pd10  1  0.919738  0.422462  0.919738  1
  Pd  Pd11  1  0.422462  0.919738  0.919738  1
