# generated using pymatgen
data_Ho5Er5Cd3Ru
_symmetry_space_group_name_H-M   'P 1'
_cell_length_a   9.54042706
_cell_length_b   9.53899126
_cell_length_c   9.79105802
_cell_angle_alpha   89.99415399
_cell_angle_beta   90.00709548
_cell_angle_gamma   120.01526318
_symmetry_Int_Tables_number   1
_chemical_formula_structural   Ho5Er5Cd3Ru
_chemical_formula_sum   'Ho10 Er10 Cd6 Ru2'
_cell_volume   771.54933685
_cell_formula_units_Z   2
loop_
 _symmetry_equiv_pos_site_id
 _symmetry_equiv_pos_as_xyz
  1  'x, y, z'
loop_
 _atom_site_type_symbol
 _atom_site_label
 _atom_site_symmetry_multiplicity
 _atom_site_fract_x
 _atom_site_fract_y
 _atom_site_fract_z
 _atom_site_occupancy
  Ho  Ho0  1  0.209718  0.790274  0.440460  1
  Ho  Ho1  1  0.209827  0.419478  0.440385  1
  Ho  Ho2  1  0.580503  0.790181  0.440397  1
  Ho  Ho3  1  0.790033  0.209927  0.559640  1
  Ho  Ho4  1  0.540975  0.459027  0.249836  1
  Ho  Ho5  1  0.540873  0.081854  0.249769  1
  Ho  Ho6  1  0.918112  0.459109  0.249761  1
  Ho  Ho7  1  0.459193  0.540808  0.750191  1
  Ho  Ho8  1  0.459039  0.918233  0.750282  1
  Ho  Ho9  1  0.081762  0.540947  0.750273  1
  Er  Er10  1  0.000069  0.999982  0.500042  1
  Er  Er11  1  0.000001  0.999979  0.000069  1
  Er  Er12  1  0.789963  0.580146  0.559698  1
  Er  Er13  1  0.419962  0.210103  0.559695  1
  Er  Er14  1  0.790042  0.209935  0.940479  1
  Er  Er15  1  0.789991  0.580073  0.940358  1
  Er  Er16  1  0.419976  0.210054  0.940382  1
  Er  Er17  1  0.209923  0.790006  0.059546  1
  Er  Er18  1  0.209970  0.419901  0.059501  1
  Er  Er19  1  0.580094  0.790023  0.059465  1
  Cd  Cd20  1  0.885556  0.114452  0.249833  1
  Cd  Cd21  1  0.885506  0.771000  0.249890  1
  Cd  Cd22  1  0.228959  0.114477  0.249884  1
  Cd  Cd23  1  0.114451  0.885515  0.750122  1
  Cd  Cd24  1  0.114527  0.228960  0.750159  1
  Cd  Cd25  1  0.771061  0.885472  0.750172  1
  Ru  Ru26  1  0.333322  0.666663  0.249627  1
  Ru  Ru27  1  0.666593  0.333421  0.750083  1
