# generated using pymatgen
data_Ti5Si6Tc5MoOs
_symmetry_space_group_name_H-M   'P 1'
_cell_length_a   7.49616517
_cell_length_b   7.56800463
_cell_length_c   7.49561304
_cell_angle_alpha   126.56072233
_cell_angle_beta   128.98187988
_cell_angle_gamma   76.79646366
_symmetry_Int_Tables_number   1
_chemical_formula_structural   Ti5Si6Tc5MoOs
_chemical_formula_sum   'Ti5 Si6 Tc5 Mo1 Os1'
_cell_volume   258.11637408
_cell_formula_units_Z   1
loop_
 _symmetry_equiv_pos_site_id
 _symmetry_equiv_pos_as_xyz
  1  'x, y, z'
loop_
 _atom_site_type_symbol
 _atom_site_label
 _atom_site_symmetry_multiplicity
 _atom_site_fract_x
 _atom_site_fract_y
 _atom_site_fract_z
 _atom_site_occupancy
  Ti  Ti0  1  0.551662  0.998965  0.949248  1
  Ti  Ti1  1  0.049129  0.001598  0.449765  1
  Ti  Ti2  1  0.950338  0.406875  0.955870  1
  Ti  Ti3  1  0.246829  0.597690  0.853549  1
  Ti  Ti4  1  0.747646  0.598241  0.349454  1
  Si  Si5  1  0.253401  0.009575  0.257654  1
  Si  Si6  1  0.749838  0.003116  0.751160  1
  Si  Si7  1  0.166175  0.669170  0.503243  1
  Si  Si8  1  0.830694  0.335385  0.502388  1
  Si  Si9  1  0.665623  0.667644  0.001052  1
  Si  Si10  1  0.332147  0.333334  0.005093  1
  Tc  Tc11  1  0.998205  0.264938  0.262439  1
  Tc  Tc12  1  0.501256  0.264123  0.767490  1
  Tc  Tc13  1  0.369007  0.745808  0.372606  1
  Tc  Tc14  1  0.630577  0.002166  0.370208  1
  Tc  Tc15  1  0.873860  0.746584  0.876702  1
  Mo  Mo16  1  0.453510  0.411848  0.460285  1
  Os  Os17  1  0.130104  0.000939  0.869795  1
