# generated using pymatgen
data_Tb2MgAl3Si2Pd
_symmetry_space_group_name_H-M   'P 1'
_cell_length_a   6.89304400
_cell_length_b   6.75192036
_cell_length_c   4.24374800
_cell_angle_alpha   90.00000000
_cell_angle_beta   90.00000000
_cell_angle_gamma   120.69385061
_symmetry_Int_Tables_number   1
_chemical_formula_structural   Tb2MgAl3Si2Pd
_chemical_formula_sum   'Tb2 Mg1 Al3 Si2 Pd1'
_cell_volume   169.83979790
_cell_formula_units_Z   1
loop_
 _symmetry_equiv_pos_site_id
 _symmetry_equiv_pos_as_xyz
  1  'x, y, z'
loop_
 _atom_site_type_symbol
 _atom_site_label
 _atom_site_symmetry_multiplicity
 _atom_site_fract_x
 _atom_site_fract_y
 _atom_site_fract_z
 _atom_site_occupancy
  Tb  Tb0  1  0.996442  0.422742  0.000000  1
  Tb  Tb1  1  0.573698  0.577257  0.000000  1
  Mg  Mg2  1  0.416341  0.000000  0.000000  1
  Al  Al3  1  0.762287  0.000000  0.500000  1
  Al  Al4  1  0.236585  0.242449  0.500000  1
  Al  Al5  1  0.994137  0.757551  0.500000  1
  Si  Si6  1  0.664392  0.329919  0.500000  1
  Si  Si7  1  0.334473  0.670080  0.500000  1
  Pd  Pd8  1  0.021642  0.000000  0.000000  1
