# generated using pymatgen
data_Ho3Zr2(In2Rh)2
_symmetry_space_group_name_H-M   'P 1'
_cell_length_a   3.52102200
_cell_length_b   7.95512900
_cell_length_c   17.90025100
_cell_angle_alpha   90.00000000
_cell_angle_beta   90.00000000
_cell_angle_gamma   90.00000000
_symmetry_Int_Tables_number   1
_chemical_formula_structural   Ho3Zr2(In2Rh)2
_chemical_formula_sum   'Ho6 Zr4 In8 Rh4'
_cell_volume   501.38932813
_cell_formula_units_Z   2
loop_
 _symmetry_equiv_pos_site_id
 _symmetry_equiv_pos_as_xyz
  1  'x, y, z'
loop_
 _atom_site_type_symbol
 _atom_site_label
 _atom_site_symmetry_multiplicity
 _atom_site_fract_x
 _atom_site_fract_y
 _atom_site_fract_z
 _atom_site_occupancy
  Ho  Ho0  1  0.000000  0.000000  0.000000  1
  Ho  Ho1  1  0.000000  0.500000  0.500000  1
  Ho  Ho2  1  0.000000  0.749415  0.782207  1
  Ho  Ho3  1  0.000000  0.250585  0.217793  1
  Ho  Ho4  1  0.000000  0.249415  0.717793  1
  Ho  Ho5  1  0.000000  0.750585  0.282207  1
  Zr  Zr6  1  0.000000  0.875854  0.585959  1
  Zr  Zr7  1  0.000000  0.124146  0.414041  1
  Zr  Zr8  1  0.000000  0.375854  0.914041  1
  Zr  Zr9  1  0.000000  0.624146  0.085959  1
  In  In10  1  0.500000  0.807498  0.438472  1
  In  In11  1  0.500000  0.192502  0.561528  1
  In  In12  1  0.500000  0.307498  0.061528  1
  In  In13  1  0.500000  0.692502  0.938472  1
  In  In14  1  0.500000  0.925703  0.150715  1
  In  In15  1  0.500000  0.074297  0.849285  1
  In  In16  1  0.500000  0.425703  0.349285  1
  In  In17  1  0.500000  0.574297  0.650715  1
  Rh  Rh18  1  0.500000  0.962407  0.690189  1
  Rh  Rh19  1  0.500000  0.037593  0.309811  1
  Rh  Rh20  1  0.500000  0.462407  0.809811  1
  Rh  Rh21  1  0.500000  0.537593  0.190189  1
