# generated using pymatgen
data_TmLu2Ga5Ir
_symmetry_space_group_name_H-M   'P 1'
_cell_length_a   6.88041100
_cell_length_b   6.88163300
_cell_length_c   4.21942700
_cell_angle_alpha   90.00000000
_cell_angle_beta   90.00000000
_cell_angle_gamma   119.99412128
_symmetry_Int_Tables_number   1
_chemical_formula_structural   TmLu2Ga5Ir
_chemical_formula_sum   'Tm1 Lu2 Ga5 Ir1'
_cell_volume   173.02773468
_cell_formula_units_Z   1
loop_
 _symmetry_equiv_pos_site_id
 _symmetry_equiv_pos_as_xyz
  1  'x, y, z'
loop_
 _atom_site_type_symbol
 _atom_site_label
 _atom_site_symmetry_multiplicity
 _atom_site_fract_x
 _atom_site_fract_y
 _atom_site_fract_z
 _atom_site_occupancy
  Tm  Tm0  1  0.587420  0.000000  0.500000  1
  Lu  Lu1  1  0.411755  0.411911  0.500000  1
  Lu  Lu2  1  0.999843  0.588089  0.500000  1
  Ga  Ga3  1  0.238788  0.000000  0.000000  1
  Ga  Ga4  1  0.000102  0.238835  0.000000  1
  Ga  Ga5  1  0.666840  0.333750  0.000000  1
  Ga  Ga6  1  0.333089  0.666250  0.000000  1
  Ga  Ga7  1  0.761267  0.761165  0.000000  1
  Ir  Ir8  1  0.000895  0.000000  0.500000  1
