# generated using pymatgen
data_Er7Lu(BBr6)2
_symmetry_space_group_name_H-M   'P 1'
_cell_length_a   3.91920200
_cell_length_b   13.06112587
_cell_length_c   13.52175297
_cell_angle_alpha   89.92402822
_cell_angle_beta   90.00000000
_cell_angle_gamma   90.00000000
_symmetry_Int_Tables_number   1
_chemical_formula_structural   Er7Lu(BBr6)2
_chemical_formula_sum   'Er7 Lu1 B2 Br12'
_cell_volume   692.16698210
_cell_formula_units_Z   1
loop_
 _symmetry_equiv_pos_site_id
 _symmetry_equiv_pos_as_xyz
  1  'x, y, z'
loop_
 _atom_site_type_symbol
 _atom_site_label
 _atom_site_symmetry_multiplicity
 _atom_site_fract_x
 _atom_site_fract_y
 _atom_site_fract_z
 _atom_site_occupancy
  Er  Er0  1  0.000000  0.101053  0.080246  1
  Er  Er1  1  0.000000  0.898955  0.919751  1
  Er  Er2  1  0.000000  0.600390  0.420290  1
  Er  Er3  1  0.500000  0.122152  0.856409  1
  Er  Er4  1  0.500000  0.877850  0.143588  1
  Er  Er5  1  0.500000  0.621710  0.643619  1
  Er  Er6  1  0.500000  0.377783  0.356872  1
  Lu  Lu7  1  0.000000  0.400156  0.579335  1
  B  B8  1  0.500000  0.000050  0.999923  1
  B  B9  1  0.500000  0.498987  0.500826  1
  Br  Br10  1  0.500000  0.269886  0.680749  1
  Br  Br11  1  0.500000  0.731731  0.317892  1
  Br  Br12  1  0.500000  0.767937  0.817659  1
  Br  Br13  1  0.500000  0.232013  0.182354  1
  Br  Br14  1  0.000000  0.261156  0.930860  1
  Br  Br15  1  0.000000  0.738878  0.069029  1
  Br  Br16  1  0.000000  0.480448  0.239405  1
  Br  Br17  1  0.000000  0.518367  0.759996  1
  Br  Br18  1  0.000000  0.980456  0.260824  1
  Br  Br19  1  0.000000  0.019687  0.739113  1
  Br  Br20  1  0.000000  0.239477  0.432282  1
  Br  Br21  1  0.000000  0.760879  0.568978  1
