# generated using pymatgen
data_Dy16MgTl2AgRh4
_symmetry_space_group_name_H-M   'P 1'
_cell_length_a   9.64591474
_cell_length_b   9.62473633
_cell_length_c   9.69102500
_cell_angle_alpha   59.77190301
_cell_angle_beta   59.84517432
_cell_angle_gamma   59.83014653
_symmetry_Int_Tables_number   1
_chemical_formula_structural   Dy16MgTl2AgRh4
_chemical_formula_sum   'Dy16 Mg1 Tl2 Ag1 Rh4'
_cell_volume   633.52880424
_cell_formula_units_Z   1
loop_
 _symmetry_equiv_pos_site_id
 _symmetry_equiv_pos_as_xyz
  1  'x, y, z'
loop_
 _atom_site_type_symbol
 _atom_site_label
 _atom_site_symmetry_multiplicity
 _atom_site_fract_x
 _atom_site_fract_y
 _atom_site_fract_z
 _atom_site_occupancy
  Dy  Dy0  1  0.061856  0.436455  0.435993  1
  Dy  Dy1  1  0.647987  0.047337  0.652338  1
  Dy  Dy2  1  0.814758  0.812659  0.186292  1
  Dy  Dy3  1  0.437926  0.056231  0.069642  1
  Dy  Dy4  1  0.436298  0.434931  0.064386  1
  Dy  Dy5  1  0.192354  0.191084  0.808281  1
  Dy  Dy6  1  0.814055  0.188409  0.186684  1
  Dy  Dy7  1  0.061856  0.436455  0.065696  1
  Dy  Dy8  1  0.437926  0.056231  0.436203  1
  Dy  Dy9  1  0.053982  0.646924  0.649547  1
  Dy  Dy10  1  0.190456  0.811771  0.809275  1
  Dy  Dy11  1  0.650554  0.650806  0.044294  1
  Dy  Dy12  1  0.190456  0.811771  0.188497  1
  Dy  Dy13  1  0.064737  0.059582  0.437840  1
  Dy  Dy14  1  0.814055  0.188409  0.810852  1
  Dy  Dy15  1  0.650554  0.650806  0.654347  1
  Mg  Mg16  1  0.721804  0.430926  0.423635  1
  Tl  Tl17  1  0.417196  0.418185  0.753095  1
  Tl  Tl18  1  0.417196  0.418185  0.411523  1
  Ag  Ag19  1  0.418585  0.755179  0.413117  1
  Rh  Rh20  1  0.859373  0.427201  0.856714  1
  Rh  Rh21  1  0.426708  0.857412  0.857940  1
  Rh  Rh22  1  0.859666  0.856526  0.427344  1
  Rh  Rh23  1  0.859666  0.856526  0.856466  1
