# generated using pymatgen
data_HoLuU(InIr)3
_symmetry_space_group_name_H-M   'P 1'
_cell_length_a   7.46516299
_cell_length_b   7.45411673
_cell_length_c   3.83887600
_cell_angle_alpha   90.00000000
_cell_angle_beta   90.00000000
_cell_angle_gamma   117.37154790
_symmetry_Int_Tables_number   1
_chemical_formula_structural   HoLuU(InIr)3
_chemical_formula_sum   'Ho1 Lu1 U1 In3 Ir3'
_cell_volume   189.70289375
_cell_formula_units_Z   1
loop_
 _symmetry_equiv_pos_site_id
 _symmetry_equiv_pos_as_xyz
  1  'x, y, z'
loop_
 _atom_site_type_symbol
 _atom_site_label
 _atom_site_symmetry_multiplicity
 _atom_site_fract_x
 _atom_site_fract_y
 _atom_site_fract_z
 _atom_site_occupancy
  Ho  Ho0  1  0.999781  0.403672  0.000000  1
  Lu  Lu1  1  0.402474  0.999561  0.000000  1
  U  U2  1  0.583578  0.583703  0.000000  1
  In  In3  1  0.013412  0.740055  0.500000  1
  In  In4  1  0.244429  0.243597  0.500000  1
  In  In5  1  0.739517  0.013131  0.500000  1
  Ir  Ir6  1  0.989269  0.987215  0.000000  1
  Ir  Ir7  1  0.661271  0.364307  0.500000  1
  Ir  Ir8  1  0.366271  0.664760  0.500000  1
