# generated using pymatgen
data_Ho5Zr5Co7Si20Ir
_symmetry_space_group_name_H-M   'P 1'
_cell_length_a   12.25203392
_cell_length_b   12.24799395
_cell_length_c   4.02734000
_cell_angle_alpha   90.00000000
_cell_angle_beta   90.00000000
_cell_angle_gamma   89.86160156
_symmetry_Int_Tables_number   1
_chemical_formula_structural   Ho5Zr5Co7Si20Ir
_chemical_formula_sum   'Ho5 Zr5 Co7 Si20 Ir1'
_cell_volume   604.35230411
_cell_formula_units_Z   1
loop_
 _symmetry_equiv_pos_site_id
 _symmetry_equiv_pos_as_xyz
  1  'x, y, z'
loop_
 _atom_site_type_symbol
 _atom_site_label
 _atom_site_symmetry_multiplicity
 _atom_site_fract_x
 _atom_site_fract_y
 _atom_site_fract_z
 _atom_site_occupancy
  Ho  Ho0  1  0.000584  0.006518  0.000000  1
  Ho  Ho1  1  0.885164  0.387458  0.500000  1
  Ho  Ho2  1  0.115102  0.612912  0.500000  1
  Ho  Ho3  1  0.386304  0.113676  0.500000  1
  Ho  Ho4  1  0.611942  0.887328  0.500000  1
  Zr  Zr5  1  0.499703  0.500766  0.000000  1
  Zr  Zr6  1  0.679144  0.176126  0.500000  1
  Zr  Zr7  1  0.330564  0.820023  0.500000  1
  Zr  Zr8  1  0.175647  0.322834  0.500000  1
  Zr  Zr9  1  0.816516  0.673970  0.500000  1
  Co  Co10  1  0.738702  0.524847  0.000000  1
  Co  Co11  1  0.257728  0.476419  0.000000  1
  Co  Co12  1  0.247177  0.977285  0.000000  1
  Co  Co13  1  0.755413  0.027873  0.000000  1
  Co  Co14  1  0.474585  0.741345  0.000000  1
  Co  Co15  1  0.524390  0.258959  0.000000  1
  Co  Co16  1  0.025576  0.246710  0.000000  1
  Si  Si17  1  0.568927  0.071533  0.000000  1
  Si  Si18  1  0.432139  0.931253  0.000000  1
  Si  Si19  1  0.069941  0.431315  0.000000  1
  Si  Si20  1  0.925990  0.563746  0.000000  1
  Si  Si21  1  0.653651  0.696329  0.000000  1
  Si  Si22  1  0.343291  0.304108  0.000000  1
  Si  Si23  1  0.166604  0.804245  0.000000  1
  Si  Si24  1  0.843773  0.199337  0.000000  1
  Si  Si25  1  0.305353  0.655819  0.000000  1
  Si  Si26  1  0.695352  0.343521  0.000000  1
  Si  Si27  1  0.198208  0.157307  0.000000  1
  Si  Si28  1  0.795891  0.845464  0.000000  1
  Si  Si29  1  0.661980  0.498402  0.500000  1
  Si  Si30  1  0.337215  0.487901  0.500000  1
  Si  Si31  1  0.167110  0.980652  0.500000  1
  Si  Si32  1  0.832475  0.997779  0.500000  1
  Si  Si33  1  0.502736  0.664761  0.500000  1
  Si  Si34  1  0.508151  0.337604  0.500000  1
  Si  Si35  1  0.999546  0.171822  0.500000  1
  Si  Si36  1  0.990286  0.847298  0.500000  1
  Ir  Ir37  1  0.977140  0.754753  0.000000  1
