# generated using pymatgen
data_Y5Ho4Tm11Pt16
_symmetry_space_group_name_H-M   'P 1'
_cell_length_a   7.44046804
_cell_length_b   7.51487040
_cell_length_c   14.62641208
_cell_angle_alpha   89.97377813
_cell_angle_beta   90.00167404
_cell_angle_gamma   90.01767857
_symmetry_Int_Tables_number   1
_chemical_formula_structural   Y5Ho4Tm11Pt16
_chemical_formula_sum   'Y5 Ho4 Tm11 Pt16'
_cell_volume   817.82331902
_cell_formula_units_Z   1
loop_
 _symmetry_equiv_pos_site_id
 _symmetry_equiv_pos_as_xyz
  1  'x, y, z'
loop_
 _atom_site_type_symbol
 _atom_site_label
 _atom_site_symmetry_multiplicity
 _atom_site_fract_x
 _atom_site_fract_y
 _atom_site_fract_z
 _atom_site_occupancy
  Y  Y0  1  0.001586  0.180113  0.907041  1
  Y  Y1  1  0.001116  0.179075  0.592881  1
  Y  Y2  1  0.500981  0.320920  0.907062  1
  Y  Y3  1  0.498709  0.679156  0.406961  1
  Y  Y4  1  0.998799  0.820524  0.093099  1
  Ho  Ho5  1  0.656144  0.832152  0.877992  1
  Ho  Ho6  1  0.998454  0.820405  0.406827  1
  Ho  Ho7  1  0.498118  0.679277  0.093780  1
  Ho  Ho8  1  0.501578  0.320479  0.592868  1
  Tm  Tm9  1  0.681093  0.989752  0.250089  1
  Tm  Tm10  1  0.181086  0.510236  0.250095  1
  Tm  Tm11  1  0.819112  0.489506  0.749500  1
  Tm  Tm12  1  0.318757  0.010667  0.749599  1
  Tm  Tm13  1  0.656046  0.832503  0.622369  1
  Tm  Tm14  1  0.156238  0.667526  0.877398  1
  Tm  Tm15  1  0.843950  0.332562  0.377502  1
  Tm  Tm16  1  0.343766  0.167692  0.122671  1
  Tm  Tm17  1  0.343827  0.167528  0.377568  1
  Tm  Tm18  1  0.844092  0.332681  0.122917  1
  Tm  Tm19  1  0.156155  0.667508  0.622142  1
  Pt  Pt20  1  0.816630  0.641688  0.250303  1
  Pt  Pt21  1  0.316429  0.858389  0.249938  1
  Pt  Pt22  1  0.683482  0.142446  0.748889  1
  Pt  Pt23  1  0.183265  0.358313  0.749746  1
  Pt  Pt24  1  0.546249  0.384127  0.250027  1
  Pt  Pt25  1  0.046395  0.115937  0.250289  1
  Pt  Pt26  1  0.954782  0.884563  0.749082  1
  Pt  Pt27  1  0.453098  0.614419  0.749011  1
  Pt  Pt28  1  0.817578  0.533978  0.542026  1
  Pt  Pt29  1  0.316222  0.966334  0.958507  1
  Pt  Pt30  1  0.682391  0.033906  0.457858  1
  Pt  Pt31  1  0.182932  0.466433  0.042305  1
  Pt  Pt32  1  0.181918  0.466233  0.457829  1
  Pt  Pt33  1  0.681490  0.034765  0.043456  1
  Pt  Pt34  1  0.318131  0.966266  0.542041  1
  Pt  Pt35  1  0.819396  0.531939  0.958332  1
