# generated using pymatgen
data_Sc12Co4SiIr
_symmetry_space_group_name_H-M   'P 1'
_cell_length_a   7.64856829
_cell_length_b   7.64856881
_cell_length_c   7.64856854
_cell_angle_alpha   110.93637545
_cell_angle_beta   110.53430743
_cell_angle_gamma   106.97179419
_symmetry_Int_Tables_number   1
_chemical_formula_structural   Sc12Co4SiIr
_chemical_formula_sum   'Sc12 Co4 Si1 Ir1'
_cell_volume   343.95060411
_cell_formula_units_Z   1
loop_
 _symmetry_equiv_pos_site_id
 _symmetry_equiv_pos_as_xyz
  1  'x, y, z'
loop_
 _atom_site_type_symbol
 _atom_site_label
 _atom_site_symmetry_multiplicity
 _atom_site_fract_x
 _atom_site_fract_y
 _atom_site_fract_z
 _atom_site_occupancy
  Sc  Sc0  1  0.429183  0.232272  0.196911  1
  Sc  Sc1  1  0.570817  0.767728  0.803089  1
  Sc  Sc2  1  0.035362  0.232272  0.803089  1
  Sc  Sc3  1  0.964638  0.767728  0.196911  1
  Sc  Sc4  1  0.320024  0.619997  0.299973  1
  Sc  Sc5  1  0.679976  0.380003  0.700027  1
  Sc  Sc6  1  0.320024  0.020050  0.700027  1
  Sc  Sc7  1  0.679976  0.979950  0.299973  1
  Sc  Sc8  1  0.183663  0.276935  0.460598  1
  Sc  Sc9  1  0.816337  0.723064  0.539402  1
  Sc  Sc10  1  0.183663  0.723064  0.906728  1
  Sc  Sc11  1  0.816337  0.276935  0.093272  1
  Co  Co12  1  0.356429  0.000000  0.356429  1
  Co  Co13  1  0.643571  0.000000  0.643571  1
  Co  Co14  1  0.120625  0.620625  0.500000  1
  Co  Co15  1  0.879375  0.379375  0.500000  1
  Si  Si16  1  0.500000  0.500000  0.000000  1
  Ir  Ir17  1  0.000000  0.000000  0.000000  1
