# generated using pymatgen
data_TbHo5Er10(InIr)4
_symmetry_space_group_name_H-M   'P 1'
_cell_length_a   9.61522887
_cell_length_b   9.61384724
_cell_length_c   9.61151700
_cell_angle_alpha   60.00802111
_cell_angle_beta   60.01277275
_cell_angle_gamma   59.97517206
_symmetry_Int_Tables_number   1
_chemical_formula_structural   TbHo5Er10(InIr)4
_chemical_formula_sum   'Tb1 Ho5 Er10 In4 Ir4'
_cell_volume   628.23254681
_cell_formula_units_Z   1
loop_
 _symmetry_equiv_pos_site_id
 _symmetry_equiv_pos_as_xyz
  1  'x, y, z'
loop_
 _atom_site_type_symbol
 _atom_site_label
 _atom_site_symmetry_multiplicity
 _atom_site_fract_x
 _atom_site_fract_y
 _atom_site_fract_z
 _atom_site_occupancy
  Tb  Tb0  1  0.438854  0.438949  0.061098  1
  Ho  Ho1  1  0.439193  0.059853  0.060545  1
  Ho  Ho2  1  0.059971  0.060173  0.439928  1
  Ho  Ho3  1  0.650543  0.047248  0.651105  1
  Ho  Ho4  1  0.809697  0.809412  0.190446  1
  Ho  Ho5  1  0.439193  0.059853  0.440410  1
  Er  Er6  1  0.651136  0.651089  0.045922  1
  Er  Er7  1  0.190482  0.810253  0.190337  1
  Er  Er8  1  0.059655  0.439384  0.060486  1
  Er  Er9  1  0.190482  0.810253  0.808928  1
  Er  Er10  1  0.059655  0.439384  0.440477  1
  Er  Er11  1  0.810503  0.190546  0.190159  1
  Er  Er12  1  0.651136  0.651089  0.651853  1
  Er  Er13  1  0.810503  0.190546  0.808792  1
  Er  Er14  1  0.190519  0.190751  0.809365  1
  Er  Er15  1  0.047073  0.650482  0.651223  1
  In  In16  1  0.416429  0.416851  0.417167  1
  In  In17  1  0.416429  0.416851  0.749555  1
  In  In18  1  0.416779  0.750217  0.416502  1
  In  In19  1  0.750629  0.416844  0.416264  1
  Ir  Ir20  1  0.423042  0.859387  0.858785  1
  Ir  Ir21  1  0.859247  0.858542  0.858390  1
  Ir  Ir22  1  0.859605  0.423502  0.858446  1
  Ir  Ir23  1  0.859247  0.858542  0.423820  1
