# generated using pymatgen
data_YbPr15(InRu)4
_symmetry_space_group_name_H-M   'P 1'
_cell_length_a   10.00467997
_cell_length_b   9.97781416
_cell_length_c   9.97781358
_cell_angle_alpha   59.83786673
_cell_angle_beta   59.91089403
_cell_angle_gamma   59.91088829
_symmetry_Int_Tables_number   1
_chemical_formula_structural   YbPr15(InRu)4
_chemical_formula_sum   'Yb1 Pr15 In4 Ru4'
_cell_volume   702.48846649
_cell_formula_units_Z   1
loop_
 _symmetry_equiv_pos_site_id
 _symmetry_equiv_pos_as_xyz
  1  'x, y, z'
loop_
 _atom_site_type_symbol
 _atom_site_label
 _atom_site_symmetry_multiplicity
 _atom_site_fract_x
 _atom_site_fract_y
 _atom_site_fract_z
 _atom_site_occupancy
  Yb  Yb0  1  0.058946  0.441054  0.441054  1
  Pr  Pr1  1  0.193786  0.805941  0.193053  1
  Pr  Pr2  1  0.653550  0.652492  0.652492  1
  Pr  Pr3  1  0.439018  0.439610  0.061579  1
  Pr  Pr4  1  0.059792  0.439610  0.061579  1
  Pr  Pr5  1  0.439897  0.060103  0.060103  1
  Pr  Pr6  1  0.059792  0.061579  0.439610  1
  Pr  Pr7  1  0.653121  0.652460  0.041298  1
  Pr  Pr8  1  0.653121  0.041298  0.652460  1
  Pr  Pr9  1  0.193339  0.806661  0.806661  1
  Pr  Pr10  1  0.439018  0.061579  0.439610  1
  Pr  Pr11  1  0.193786  0.193053  0.805941  1
  Pr  Pr12  1  0.041465  0.652492  0.652492  1
  Pr  Pr13  1  0.807219  0.805941  0.193053  1
  Pr  Pr14  1  0.807604  0.192396  0.192396  1
  Pr  Pr15  1  0.807219  0.193053  0.805941  1
  In  In16  1  0.419855  0.418793  0.418793  1
  In  In17  1  0.419590  0.740965  0.419858  1
  In  In18  1  0.742562  0.418793  0.418793  1
  In  In19  1  0.419590  0.419858  0.740965  1
  Ru  Ru20  1  0.862548  0.863106  0.863106  1
  Ru  Ru21  1  0.411239  0.863106  0.863106  1
  Ru  Ru22  1  0.861973  0.412785  0.863269  1
  Ru  Ru23  1  0.861973  0.863269  0.412785  1
