# generated using pymatgen
data_Dy4Er12Cd4FeNi3
_symmetry_space_group_name_H-M   'P 1'
_cell_length_a   9.48365605
_cell_length_b   9.48365514
_cell_length_c   9.48365616
_cell_angle_alpha   59.72996356
_cell_angle_beta   59.72997000
_cell_angle_gamma   59.72997049
_symmetry_Int_Tables_number   1
_chemical_formula_structural   Dy4Er12Cd4FeNi3
_chemical_formula_sum   'Dy4 Er12 Cd4 Fe1 Ni3'
_cell_volume   599.43319439
_cell_formula_units_Z   1
loop_
 _symmetry_equiv_pos_site_id
 _symmetry_equiv_pos_as_xyz
  1  'x, y, z'
loop_
 _atom_site_type_symbol
 _atom_site_label
 _atom_site_symmetry_multiplicity
 _atom_site_fract_x
 _atom_site_fract_y
 _atom_site_fract_z
 _atom_site_occupancy
  Dy  Dy0  1  0.347716  0.347716  0.347716  1
  Dy  Dy1  1  0.348084  0.348084  0.954911  1
  Dy  Dy2  1  0.348084  0.954911  0.348084  1
  Dy  Dy3  1  0.954911  0.348084  0.348084  1
  Er  Er4  1  0.815911  0.187350  0.187350  1
  Er  Er5  1  0.186543  0.812228  0.812228  1
  Er  Er6  1  0.187350  0.815911  0.187350  1
  Er  Er7  1  0.812228  0.186543  0.812228  1
  Er  Er8  1  0.187350  0.187350  0.815911  1
  Er  Er9  1  0.812228  0.812228  0.186543  1
  Er  Er10  1  0.935799  0.564959  0.564959  1
  Er  Er11  1  0.559437  0.937823  0.937823  1
  Er  Er12  1  0.564959  0.935799  0.564959  1
  Er  Er13  1  0.937823  0.559437  0.937823  1
  Er  Er14  1  0.564959  0.564959  0.935799  1
  Er  Er15  1  0.937823  0.937823  0.559437  1
  Cd  Cd16  1  0.579559  0.579559  0.579559  1
  Cd  Cd17  1  0.580528  0.580528  0.255330  1
  Cd  Cd18  1  0.580528  0.255330  0.580528  1
  Cd  Cd19  1  0.255330  0.580528  0.580528  1
  Fe  Fe20  1  0.143108  0.143108  0.143108  1
  Ni  Ni21  1  0.141270  0.141270  0.577200  1
  Ni  Ni22  1  0.141270  0.577200  0.141270  1
  Ni  Ni23  1  0.577200  0.141270  0.141270  1
