# generated using pymatgen
data_Ba6PrSc(BO3)6
_symmetry_space_group_name_H-M   'P 1'
_cell_length_a   8.21508190
_cell_length_b   8.21508217
_cell_length_c   8.21508223
_cell_angle_alpha   105.79487435
_cell_angle_beta   105.79487556
_cell_angle_gamma   105.79488812
_symmetry_Int_Tables_number   1
_chemical_formula_structural   Ba6PrSc(BO3)6
_chemical_formula_sum   'Ba6 Pr1 Sc1 B6 O18'
_cell_volume   476.08718415
_cell_formula_units_Z   1
loop_
 _symmetry_equiv_pos_site_id
 _symmetry_equiv_pos_as_xyz
  1  'x, y, z'
loop_
 _atom_site_type_symbol
 _atom_site_label
 _atom_site_symmetry_multiplicity
 _atom_site_fract_x
 _atom_site_fract_y
 _atom_site_fract_z
 _atom_site_occupancy
  Ba  Ba0  1  0.650129  0.266838  0.164177  1
  Ba  Ba1  1  0.164177  0.650129  0.266837  1
  Ba  Ba2  1  0.733162  0.835823  0.349871  1
  Ba  Ba3  1  0.266838  0.164177  0.650129  1
  Ba  Ba4  1  0.835823  0.349871  0.733162  1
  Ba  Ba5  1  0.349871  0.733162  0.835823  1
  Pr  Pr6  1  0.000000  0.000000  0.000000  1
  Sc  Sc7  1  0.500000  0.500000  0.500000  1
  B  B8  1  0.299215  0.377914  0.050882  1
  B  B9  1  0.377914  0.050883  0.299215  1
  B  B10  1  0.050883  0.299215  0.377914  1
  B  B11  1  0.949117  0.700785  0.622086  1
  B  B12  1  0.622086  0.949117  0.700785  1
  B  B13  1  0.700785  0.622086  0.949117  1
  O  O14  1  0.725951  0.807094  0.011946  1
  O  O15  1  0.795141  0.551969  0.059595  1
  O  O16  1  0.988054  0.274049  0.192906  1
  O  O17  1  0.448030  0.940404  0.204859  1
  O  O18  1  0.427073  0.491049  0.227139  1
  O  O19  1  0.192906  0.988054  0.274049  1
  O  O20  1  0.491049  0.227139  0.427072  1
  O  O21  1  0.940404  0.204860  0.448030  1
  O  O22  1  0.227139  0.427073  0.491049  1
  O  O23  1  0.772861  0.572927  0.508951  1
  O  O24  1  0.059596  0.795140  0.551970  1
  O  O25  1  0.508951  0.772861  0.572928  1
  O  O26  1  0.807094  0.011946  0.725951  1
  O  O27  1  0.572927  0.508951  0.772861  1
  O  O28  1  0.551970  0.059596  0.795141  1
  O  O29  1  0.011946  0.725951  0.807094  1
  O  O30  1  0.204859  0.448031  0.940405  1
  O  O31  1  0.274049  0.192906  0.988054  1
