# generated using pymatgen
data_Tb2Mn2VFe9P7
_symmetry_space_group_name_H-M   'P 1'
_cell_length_a   9.13883325
_cell_length_b   9.04900358
_cell_length_c   3.62515200
_cell_angle_alpha   90.00000000
_cell_angle_beta   90.00000000
_cell_angle_gamma   119.74956502
_symmetry_Int_Tables_number   1
_chemical_formula_structural   Tb2Mn2VFe9P7
_chemical_formula_sum   'Tb2 Mn2 V1 Fe9 P7'
_cell_volume   260.27880663
_cell_formula_units_Z   1
loop_
 _symmetry_equiv_pos_site_id
 _symmetry_equiv_pos_as_xyz
  1  'x, y, z'
loop_
 _atom_site_type_symbol
 _atom_site_label
 _atom_site_symmetry_multiplicity
 _atom_site_fract_x
 _atom_site_fract_y
 _atom_site_fract_z
 _atom_site_occupancy
  Tb  Tb0  1  0.663047  0.331064  0.000000  1
  Tb  Tb1  1  0.336215  0.668231  0.500000  1
  Mn  Mn2  1  0.781299  0.896352  0.500000  1
  Mn  Mn3  1  0.118820  0.220805  0.500000  1
  V  V4  1  0.106805  0.886004  0.500000  1
  Fe  Fe5  1  0.052484  0.624517  0.000000  1
  Fe  Fe6  1  0.576450  0.944043  0.000000  1
  Fe  Fe7  1  0.368876  0.424468  0.000000  1
  Fe  Fe8  1  0.271466  0.119954  0.000000  1
  Fe  Fe9  1  0.842609  0.726065  0.000000  1
  Fe  Fe10  1  0.880538  0.155826  0.000000  1
  Fe  Fe11  1  0.434984  0.049967  0.500000  1
  Fe  Fe12  1  0.612173  0.564402  0.500000  1
  Fe  Fe13  1  0.954533  0.389839  0.500000  1
  P  P14  1  0.307678  0.894037  0.000000  1
  P  P15  1  0.586815  0.697263  0.000000  1
  P  P16  1  0.115887  0.408628  0.000000  1
  P  P17  1  0.405385  0.288703  0.500000  1
  P  P18  1  0.874993  0.594556  0.500000  1
  P  P19  1  0.710144  0.114795  0.500000  1
  P  P20  1  0.998797  0.000483  0.000000  1
