# generated using pymatgen
data_Ho3MgHgSb3O14
_symmetry_space_group_name_H-M   'P 1'
_cell_length_a   7.22050839
_cell_length_b   7.22047622
_cell_length_c   7.22048483
_cell_angle_alpha   117.40758622
_cell_angle_beta   62.59228951
_cell_angle_gamma   117.40760917
_symmetry_Int_Tables_number   1
_chemical_formula_structural   Ho3MgHgSb3O14
_chemical_formula_sum   'Ho3 Mg1 Hg1 Sb3 O14'
_cell_volume   281.55315063
_cell_formula_units_Z   1
loop_
 _symmetry_equiv_pos_site_id
 _symmetry_equiv_pos_as_xyz
  1  'x, y, z'
loop_
 _atom_site_type_symbol
 _atom_site_label
 _atom_site_symmetry_multiplicity
 _atom_site_fract_x
 _atom_site_fract_y
 _atom_site_fract_z
 _atom_site_occupancy
  Ho  Ho0  1  0.999887  0.500113  0.000131  1
  Ho  Ho1  1  0.500084  0.999977  0.999811  1
  Ho  Ho2  1  0.500201  0.500253  0.499968  1
  Mg  Mg3  1  0.999915  0.999910  0.500027  1
  Hg  Hg4  1  0.499835  0.499891  0.999978  1
  Sb  Sb5  1  0.500078  0.999937  0.499993  1
  Sb  Sb6  1  0.999935  0.499971  0.500020  1
  Sb  Sb7  1  0.999919  0.999907  0.000054  1
  O  O8  1  0.625518  0.374369  0.125579  1
  O  O9  1  0.374223  0.625661  0.874286  1
  O  O10  1  0.068370  0.322980  0.177024  1
  O  O11  1  0.676912  0.931391  0.176896  1
  O  O12  1  0.676971  0.323051  0.568500  1
  O  O13  1  0.931431  0.676900  0.823104  1
  O  O14  1  0.322991  0.068349  0.822982  1
  O  O15  1  0.323049  0.676966  0.431541  1
  O  O16  1  0.654528  0.909137  0.590871  1
  O  O17  1  0.090977  0.345844  0.590964  1
  O  O18  1  0.090930  0.909094  0.154331  1
  O  O19  1  0.346004  0.090986  0.409030  1
  O  O20  1  0.909143  0.654395  0.409134  1
  O  O21  1  0.909100  0.090921  0.845778  1
