# generated using pymatgen
data_CdBi7(Ru2O11)2
_symmetry_space_group_name_H-M   'P 1'
_cell_length_a   6.55654905
_cell_length_b   7.53670540
_cell_length_c   9.82358777
_cell_angle_alpha   100.89417120
_cell_angle_beta   91.83335578
_cell_angle_gamma   89.96680050
_symmetry_Int_Tables_number   1
_chemical_formula_structural   CdBi7(Ru2O11)2
_chemical_formula_sum   'Cd1 Bi7 Ru4 O22'
_cell_volume   476.43055838
_cell_formula_units_Z   1
loop_
 _symmetry_equiv_pos_site_id
 _symmetry_equiv_pos_as_xyz
  1  'x, y, z'
loop_
 _atom_site_type_symbol
 _atom_site_label
 _atom_site_symmetry_multiplicity
 _atom_site_fract_x
 _atom_site_fract_y
 _atom_site_fract_z
 _atom_site_occupancy
  Cd  Cd0  1  0.742385  0.371602  0.482712  1
  Bi  Bi1  1  0.248144  0.625214  0.519362  1
  Bi  Bi2  1  0.751285  0.875358  0.485567  1
  Bi  Bi3  1  0.241114  0.133751  0.514422  1
  Bi  Bi4  1  0.476293  0.954623  0.823101  1
  Bi  Bi5  1  0.529018  0.049820  0.182116  1
  Bi  Bi6  1  0.397122  0.454690  0.830829  1
  Bi  Bi7  1  0.609821  0.541493  0.176338  1
  Ru  Ru8  1  0.932409  0.701715  0.809864  1
  Ru  Ru9  1  0.068445  0.295739  0.186386  1
  Ru  Ru10  1  0.930512  0.203572  0.811248  1
  Ru  Ru11  1  0.071389  0.796341  0.185795  1
  O  O12  1  0.229874  0.723563  0.768740  1
  O  O13  1  0.770903  0.277867  0.233131  1
  O  O14  1  0.636306  0.674379  0.832487  1
  O  O15  1  0.364252  0.323924  0.163994  1
  O  O16  1  0.635878  0.242266  0.844135  1
  O  O17  1  0.361907  0.755384  0.152967  1
  O  O18  1  0.888640  0.178798  0.610969  1
  O  O19  1  0.111899  0.824737  0.385237  1
  O  O20  1  0.226676  0.158006  0.763629  1
  O  O21  1  0.774703  0.841959  0.236804  1
  O  O22  1  0.905344  0.633428  0.607891  1
  O  O23  1  0.107211  0.362525  0.389334  1
  O  O24  1  0.000861  0.543033  0.173774  1
  O  O25  1  0.998584  0.456647  0.825287  1
  O  O26  1  0.994810  0.778423  0.998930  1
  O  O27  1  0.001072  0.221046  0.998804  1
  O  O28  1  0.575463  0.607826  0.397568  1
  O  O29  1  0.416855  0.393988  0.607440  1
  O  O30  1  0.156411  0.052692  0.211903  1
  O  O31  1  0.844142  0.946213  0.784395  1
  O  O32  1  0.543590  0.095494  0.403068  1
  O  O33  1  0.456680  0.903880  0.601776  1
