# generated using pymatgen
data_LiTb2LuIr8
_symmetry_space_group_name_H-M   'P 1'
_cell_length_a   5.32244200
_cell_length_b   5.32244115
_cell_length_c   8.64222800
_cell_angle_alpha   90.00000000
_cell_angle_beta   90.00000000
_cell_angle_gamma   120.00000529
_symmetry_Int_Tables_number   1
_chemical_formula_structural   LiTb2LuIr8
_chemical_formula_sum   'Li1 Tb2 Lu1 Ir8'
_cell_volume   212.02063648
_cell_formula_units_Z   1
loop_
 _symmetry_equiv_pos_site_id
 _symmetry_equiv_pos_as_xyz
  1  'x, y, z'
loop_
 _atom_site_type_symbol
 _atom_site_label
 _atom_site_symmetry_multiplicity
 _atom_site_fract_x
 _atom_site_fract_y
 _atom_site_fract_z
 _atom_site_occupancy
  Li  Li0  1  0.333333  0.666667  0.439613  1
  Tb  Tb1  1  0.333333  0.666667  0.084918  1
  Tb  Tb2  1  0.666667  0.333333  0.555327  1
  Lu  Lu3  1  0.666667  0.333333  0.930020  1
  Ir  Ir4  1  0.000000  0.000000  0.997314  1
  Ir  Ir5  1  0.000000  0.000000  0.497802  1
  Ir  Ir6  1  0.830613  0.661228  0.249378  1
  Ir  Ir7  1  0.171176  0.828824  0.748958  1
  Ir  Ir8  1  0.657647  0.828824  0.748958  1
  Ir  Ir9  1  0.338772  0.169387  0.249378  1
  Ir  Ir10  1  0.830613  0.169387  0.249378  1
  Ir  Ir11  1  0.171176  0.342353  0.748958  1
