# generated using pymatgen
data_LiYb2IO6
_symmetry_space_group_name_H-M   'P 1'
_cell_length_a   5.46115567
_cell_length_b   5.46115545
_cell_length_c   5.49461909
_cell_angle_alpha   119.82019334
_cell_angle_beta   119.82019127
_cell_angle_gamma   59.56608223
_symmetry_Int_Tables_number   1
_chemical_formula_structural   LiYb2IO6
_chemical_formula_sum   'Li1 Yb2 I1 O6'
_cell_volume   115.80161006
_cell_formula_units_Z   1
loop_
 _symmetry_equiv_pos_site_id
 _symmetry_equiv_pos_as_xyz
  1  'x, y, z'
loop_
 _atom_site_type_symbol
 _atom_site_label
 _atom_site_symmetry_multiplicity
 _atom_site_fract_x
 _atom_site_fract_y
 _atom_site_fract_z
 _atom_site_occupancy
  Li  Li0  1  0.500000  0.500000  0.000000  1
  Yb  Yb1  1  0.249244  0.249244  0.267286  1
  Yb  Yb2  1  0.750756  0.750756  0.732714  1
  I  I3  1  0.000000  0.000000  0.500000  1
  O  O4  1  0.767154  0.767154  0.169117  1
  O  O5  1  0.811582  0.298007  0.320038  1
  O  O6  1  0.298007  0.811582  0.320038  1
  O  O7  1  0.701993  0.188418  0.679962  1
  O  O8  1  0.188418  0.701993  0.679962  1
  O  O9  1  0.232846  0.232846  0.830883  1
