# generated using pymatgen
data_CeHo15(CdRu)4
_symmetry_space_group_name_H-M   'P 1'
_cell_length_a   9.62937736
_cell_length_b   9.62937742
_cell_length_c   9.62937752
_cell_angle_alpha   59.29804807
_cell_angle_beta   59.29804994
_cell_angle_gamma   59.29804663
_symmetry_Int_Tables_number   1
_chemical_formula_structural   CeHo15(CdRu)4
_chemical_formula_sum   'Ce1 Ho15 Cd4 Ru4'
_cell_volume   621.27221161
_cell_formula_units_Z   1
loop_
 _symmetry_equiv_pos_site_id
 _symmetry_equiv_pos_as_xyz
  1  'x, y, z'
loop_
 _atom_site_type_symbol
 _atom_site_label
 _atom_site_symmetry_multiplicity
 _atom_site_fract_x
 _atom_site_fract_y
 _atom_site_fract_z
 _atom_site_occupancy
  Ce  Ce0  1  0.342881  0.342881  0.342881  1
  Ho  Ho1  1  0.562559  0.562559  0.937852  1
  Ho  Ho2  1  0.938773  0.560918  0.938773  1
  Ho  Ho3  1  0.560918  0.938773  0.938773  1
  Ho  Ho4  1  0.938773  0.938773  0.560918  1
  Ho  Ho5  1  0.562559  0.937852  0.562559  1
  Ho  Ho6  1  0.937852  0.562559  0.562559  1
  Ho  Ho7  1  0.189029  0.189029  0.812347  1
  Ho  Ho8  1  0.810760  0.187947  0.810760  1
  Ho  Ho9  1  0.187946  0.810761  0.810760  1
  Ho  Ho10  1  0.810760  0.810761  0.187947  1
  Ho  Ho11  1  0.189028  0.812347  0.189028  1
  Ho  Ho12  1  0.812347  0.189029  0.189029  1
  Ho  Ho13  1  0.346885  0.346885  0.956953  1
  Ho  Ho14  1  0.346885  0.956953  0.346885  1
  Ho  Ho15  1  0.956953  0.346885  0.346885  1
  Cd  Cd16  1  0.579838  0.579838  0.257505  1
  Cd  Cd17  1  0.579838  0.257505  0.579838  1
  Cd  Cd18  1  0.257505  0.579838  0.579838  1
  Cd  Cd19  1  0.579888  0.579888  0.579888  1
  Ru  Ru20  1  0.146323  0.146323  0.575763  1
  Ru  Ru21  1  0.146323  0.575763  0.146323  1
  Ru  Ru22  1  0.575763  0.146323  0.146323  1
  Ru  Ru23  1  0.139612  0.139612  0.139612  1
