# generated using pymatgen
data_Y7Tm(InAu2)4
_symmetry_space_group_name_H-M   'P 1'
_cell_length_a   8.04475077
_cell_length_b   8.04475213
_cell_length_c   7.36997100
_cell_angle_alpha   90.00000000
_cell_angle_beta   90.00000000
_cell_angle_gamma   89.81545113
_symmetry_Int_Tables_number   1
_chemical_formula_structural   Y7Tm(InAu2)4
_chemical_formula_sum   'Y7 Tm1 In4 Au8'
_cell_volume   476.96750024
_cell_formula_units_Z   1
loop_
 _symmetry_equiv_pos_site_id
 _symmetry_equiv_pos_as_xyz
  1  'x, y, z'
loop_
 _atom_site_type_symbol
 _atom_site_label
 _atom_site_symmetry_multiplicity
 _atom_site_fract_x
 _atom_site_fract_y
 _atom_site_fract_z
 _atom_site_occupancy
  Y  Y0  1  0.835354  0.164646  0.500000  1
  Y  Y1  1  0.162012  0.837988  0.500000  1
  Y  Y2  1  0.336363  0.336739  0.000000  1
  Y  Y3  1  0.663261  0.663637  0.000000  1
  Y  Y4  1  0.677435  0.672893  0.500000  1
  Y  Y5  1  0.327107  0.322565  0.500000  1
  Y  Y6  1  0.175126  0.824874  0.000000  1
  Tm  Tm7  1  0.826285  0.173715  0.000000  1
  In  In8  1  0.499506  0.999103  0.250627  1
  In  In9  1  0.000897  0.500494  0.749373  1
  In  In10  1  0.499506  0.999103  0.749373  1
  In  In11  1  0.000897  0.500494  0.250627  1
  Au  Au12  1  0.630650  0.369350  0.255957  1
  Au  Au13  1  0.372061  0.627939  0.264186  1
  Au  Au14  1  0.126059  0.130643  0.764746  1
  Au  Au15  1  0.869357  0.873941  0.764746  1
  Au  Au16  1  0.372061  0.627939  0.735814  1
  Au  Au17  1  0.630650  0.369350  0.744043  1
  Au  Au18  1  0.869357  0.873941  0.235254  1
  Au  Au19  1  0.126059  0.130643  0.235254  1
