# generated using pymatgen
data_Ho3Er(TcB2)4
_symmetry_space_group_name_H-M   'P 1'
_cell_length_a   5.27871300
_cell_length_b   5.93996200
_cell_length_c   6.43455642
_cell_angle_alpha   89.98004893
_cell_angle_beta   90.00000000
_cell_angle_gamma   90.00000000
_symmetry_Int_Tables_number   1
_chemical_formula_structural   Ho3Er(TcB2)4
_chemical_formula_sum   'Ho3 Er1 Tc4 B8'
_cell_volume   201.75778636
_cell_formula_units_Z   1
loop_
 _symmetry_equiv_pos_site_id
 _symmetry_equiv_pos_as_xyz
  1  'x, y, z'
loop_
 _atom_site_type_symbol
 _atom_site_label
 _atom_site_symmetry_multiplicity
 _atom_site_fract_x
 _atom_site_fract_y
 _atom_site_fract_z
 _atom_site_occupancy
  Ho  Ho0  1  0.250000  0.014304  0.338464  1
  Ho  Ho1  1  0.250000  0.514444  0.161516  1
  Ho  Ho2  1  0.750000  0.986255  0.660207  1
  Er  Er3  1  0.750000  0.486220  0.839432  1
  Tc  Tc4  1  0.250000  0.181891  0.814919  1
  Tc  Tc5  1  0.250000  0.681357  0.685312  1
  Tc  Tc6  1  0.750000  0.818465  0.184878  1
  Tc  Tc7  1  0.750000  0.318414  0.314863  1
  B  B8  1  0.077867  0.369810  0.536421  1
  B  B9  1  0.422069  0.869944  0.963672  1
  B  B10  1  0.578561  0.629532  0.465293  1
  B  B11  1  0.921582  0.130038  0.034819  1
  B  B12  1  0.921439  0.629532  0.465293  1
  B  B13  1  0.578418  0.130038  0.034819  1
  B  B14  1  0.422133  0.369810  0.536421  1
  B  B15  1  0.077931  0.869944  0.963672  1
