# generated using pymatgen
data_Th5SnHgBi2
_symmetry_space_group_name_H-M   'P 1'
_cell_length_a   9.71185800
_cell_length_b   9.70699589
_cell_length_c   6.64840900
_cell_angle_alpha   90.00000000
_cell_angle_beta   90.00000000
_cell_angle_gamma   120.01657059
_symmetry_Int_Tables_number   1
_chemical_formula_structural   Th5SnHgBi2
_chemical_formula_sum   'Th10 Sn2 Hg2 Bi4'
_cell_volume   542.70395815
_cell_formula_units_Z   2
loop_
 _symmetry_equiv_pos_site_id
 _symmetry_equiv_pos_as_xyz
  1  'x, y, z'
loop_
 _atom_site_type_symbol
 _atom_site_label
 _atom_site_symmetry_multiplicity
 _atom_site_fract_x
 _atom_site_fract_y
 _atom_site_fract_z
 _atom_site_occupancy
  Th  Th0  1  0.001029  0.724930  0.750000  1
  Th  Th1  1  0.276099  0.275070  0.750000  1
  Th  Th2  1  0.329881  0.662668  0.497558  1
  Th  Th3  1  0.667214  0.337332  0.497558  1
  Th  Th4  1  0.723989  0.720782  0.250000  1
  Th  Th5  1  0.725130  0.000000  0.750000  1
  Th  Th6  1  0.003207  0.279218  0.250000  1
  Th  Th7  1  0.275882  0.000000  0.250000  1
  Th  Th8  1  0.329881  0.662668  0.002442  1
  Th  Th9  1  0.667214  0.337332  0.002442  1
  Sn  Sn10  1  0.380482  0.380147  0.250000  1
  Sn  Sn11  1  0.000335  0.619853  0.250000  1
  Hg  Hg12  1  0.999626  0.000000  0.001294  1
  Hg  Hg13  1  0.999626  0.000000  0.498706  1
  Bi  Bi14  1  0.618663  0.619281  0.750000  1
  Bi  Bi15  1  0.999382  0.380719  0.750000  1
  Bi  Bi16  1  0.382894  0.000000  0.750000  1
  Bi  Bi17  1  0.619465  0.000000  0.250000  1
