# generated using pymatgen
data_Cs3Ac(BiTe3)2
_symmetry_space_group_name_H-M   'P 1'
_cell_length_a   8.21798868
_cell_length_b   8.21799029
_cell_length_c   9.56847300
_cell_angle_alpha   81.76507561
_cell_angle_beta   81.76508104
_cell_angle_gamma   120.02592834
_symmetry_Int_Tables_number   1
_chemical_formula_structural   Cs3Ac(BiTe3)2
_chemical_formula_sum   'Cs3 Ac1 Bi2 Te6'
_cell_volume   536.02172491
_cell_formula_units_Z   1
loop_
 _symmetry_equiv_pos_site_id
 _symmetry_equiv_pos_as_xyz
  1  'x, y, z'
loop_
 _atom_site_type_symbol
 _atom_site_label
 _atom_site_symmetry_multiplicity
 _atom_site_fract_x
 _atom_site_fract_y
 _atom_site_fract_z
 _atom_site_occupancy
  Cs  Cs0  1  0.666857  0.333143  0.500000  1
  Cs  Cs1  1  0.333143  0.666857  0.500000  1
  Cs  Cs2  1  0.000000  0.000000  0.500000  1
  Ac  Ac3  1  0.500000  0.500000  0.000000  1
  Bi  Bi4  1  0.833475  0.166525  0.000000  1
  Bi  Bi5  1  0.166525  0.833475  0.000000  1
  Te  Te6  1  0.782839  0.782839  0.193735  1
  Te  Te7  1  0.217161  0.217161  0.806265  1
  Te  Te8  1  0.435299  0.087759  0.193855  1
  Te  Te9  1  0.564701  0.912241  0.806145  1
  Te  Te10  1  0.912241  0.564701  0.806145  1
  Te  Te11  1  0.087759  0.435299  0.193855  1
