# generated using pymatgen
data_Zn2Cd2P6SeN12
_symmetry_space_group_name_H-M   'P 1'
_cell_length_a   7.32466792
_cell_length_b   7.32466786
_cell_length_c   7.29935491
_cell_angle_alpha   109.53212625
_cell_angle_beta   109.53214032
_cell_angle_gamma   109.48985499
_symmetry_Int_Tables_number   1
_chemical_formula_structural   Zn2Cd2P6SeN12
_chemical_formula_sum   'Zn2 Cd2 P6 Se1 N12'
_cell_volume   300.94233362
_cell_formula_units_Z   1
loop_
 _symmetry_equiv_pos_site_id
 _symmetry_equiv_pos_as_xyz
  1  'x, y, z'
loop_
 _atom_site_type_symbol
 _atom_site_label
 _atom_site_symmetry_multiplicity
 _atom_site_fract_x
 _atom_site_fract_y
 _atom_site_fract_z
 _atom_site_occupancy
  Zn  Zn0  1  0.368875  0.368875  0.372526  1
  Zn  Zn1  1  0.996349  0.996349  0.627475  1
  Cd  Cd2  1  0.680380  0.995682  0.000000  1
  Cd  Cd3  1  0.995682  0.680380  0.000000  1
  P  P4  1  0.492576  0.244012  0.748328  1
  P  P5  1  0.495683  0.744247  0.251671  1
  P  P6  1  0.744247  0.495683  0.251671  1
  P  P7  1  0.246217  0.746216  0.500000  1
  P  P8  1  0.244012  0.492576  0.748328  1
  P  P9  1  0.746216  0.246217  0.500000  1
  Se  Se10  1  0.043459  0.043459  0.000000  1
  N  N11  1  0.564291  0.564291  0.295859  1
  N  N12  1  0.268431  0.268431  0.704140  1
  N  N13  1  0.431590  0.710126  0.000000  1
  N  N14  1  0.710126  0.431590  0.000000  1
  N  N15  1  0.283590  0.560177  0.564006  1
  N  N16  1  0.560177  0.283590  0.564006  1
  N  N17  1  0.996171  0.719585  0.435994  1
  N  N18  1  0.277668  0.709914  0.281412  1
  N  N19  1  0.709914  0.277668  0.281412  1
  N  N20  1  0.719585  0.996171  0.435994  1
  N  N21  1  0.996256  0.428503  0.718588  1
  N  N22  1  0.428503  0.996256  0.718588  1
