# generated using pymatgen
data_La13PrPdRh5
_symmetry_space_group_name_H-M   'P 1'
_cell_length_a   10.23219400
_cell_length_b   10.24566787
_cell_length_c   6.55106384
_cell_angle_alpha   89.57140603
_cell_angle_beta   90.00000000
_cell_angle_gamma   119.95650705
_symmetry_Int_Tables_number   1
_chemical_formula_structural   La13PrPdRh5
_chemical_formula_sum   'La13 Pr1 Pd1 Rh5'
_cell_volume   595.01167089
_cell_formula_units_Z   1
loop_
 _symmetry_equiv_pos_site_id
 _symmetry_equiv_pos_as_xyz
  1  'x, y, z'
loop_
 _atom_site_type_symbol
 _atom_site_label
 _atom_site_symmetry_multiplicity
 _atom_site_fract_x
 _atom_site_fract_y
 _atom_site_fract_z
 _atom_site_occupancy
  La  La0  1  0.666173  0.332343  0.973453  1
  La  La1  1  0.125119  0.876531  0.241163  1
  La  La2  1  0.751412  0.876531  0.241163  1
  La  La3  1  0.124282  0.248563  0.232650  1
  La  La4  1  0.867238  0.119619  0.740436  1
  La  La5  1  0.252381  0.119619  0.740436  1
  La  La6  1  0.875941  0.751881  0.743715  1
  La  La7  1  0.540659  0.462668  0.439024  1
  La  La8  1  0.922010  0.462668  0.439024  1
  La  La9  1  0.538477  0.076953  0.432542  1
  La  La10  1  0.468653  0.543909  0.940588  1
  La  La11  1  0.075256  0.543909  0.940588  1
  La  La12  1  0.458549  0.917098  0.939294  1
  Pr  Pr13  1  0.335134  0.670269  0.462014  1
  Pd  Pd14  1  0.187759  0.375518  0.692209  1
  Rh  Rh15  1  0.813584  0.188765  0.197266  1
  Rh  Rh16  1  0.375182  0.188765  0.197266  1
  Rh  Rh17  1  0.811067  0.622134  0.194103  1
  Rh  Rh18  1  0.186410  0.811127  0.699426  1
  Rh  Rh19  1  0.624717  0.811127  0.699426  1
