# generated using pymatgen
data_Sm7ThC10
_symmetry_space_group_name_H-M   'P 1'
_cell_length_a   3.78554100
_cell_length_b   6.80456238
_cell_length_c   12.28142590
_cell_angle_alpha   90.84411891
_cell_angle_beta   90.00000000
_cell_angle_gamma   90.00000000
_symmetry_Int_Tables_number   1
_chemical_formula_structural   Sm7ThC10
_chemical_formula_sum   'Sm7 Th1 C10'
_cell_volume   316.32230231
_cell_formula_units_Z   1
loop_
 _symmetry_equiv_pos_site_id
 _symmetry_equiv_pos_as_xyz
  1  'x, y, z'
loop_
 _atom_site_type_symbol
 _atom_site_label
 _atom_site_symmetry_multiplicity
 _atom_site_fract_x
 _atom_site_fract_y
 _atom_site_fract_z
 _atom_site_occupancy
  Sm  Sm0  1  0.000000  0.254523  0.541048  1
  Sm  Sm1  1  0.000000  0.744878  0.459119  1
  Sm  Sm2  1  0.000000  0.754449  0.957410  1
  Sm  Sm3  1  0.500000  0.109115  0.799421  1
  Sm  Sm4  1  0.500000  0.889553  0.198532  1
  Sm  Sm5  1  0.500000  0.599141  0.698909  1
  Sm  Sm6  1  0.500000  0.396339  0.303131  1
  Th  Th7  1  0.000000  0.254099  0.041487  1
  C  C8  1  0.500000  0.500470  0.500762  1
  C  C9  1  0.500000  0.011811  0.001156  1
  C  C10  1  0.000000  0.360853  0.733478  1
  C  C11  1  0.000000  0.638350  0.265723  1
  C  C12  1  0.000000  0.854203  0.760573  1
  C  C13  1  0.000000  0.141269  0.238529  1
  C  C14  1  0.000000  0.384075  0.842122  1
  C  C15  1  0.000000  0.607380  0.158033  1
  C  C16  1  0.000000  0.081387  0.340900  1
  C  C17  1  0.000000  0.918105  0.659668  1
