# generated using pymatgen
data_Ta2MnNb(BRu2)2
_symmetry_space_group_name_H-M   'P 1'
_cell_length_a   9.30871116
_cell_length_b   9.30871116
_cell_length_c   3.03821200
_cell_angle_alpha   90.00000000
_cell_angle_beta   90.00000000
_cell_angle_gamma   89.97899890
_symmetry_Int_Tables_number   1
_chemical_formula_structural   Ta2MnNb(BRu2)2
_chemical_formula_sum   'Ta4 Mn2 Nb2 B4 Ru8'
_cell_volume   263.26744267
_cell_formula_units_Z   2
loop_
 _symmetry_equiv_pos_site_id
 _symmetry_equiv_pos_as_xyz
  1  'x, y, z'
loop_
 _atom_site_type_symbol
 _atom_site_label
 _atom_site_symmetry_multiplicity
 _atom_site_fract_x
 _atom_site_fract_y
 _atom_site_fract_z
 _atom_site_occupancy
  Ta  Ta0  1  0.830699  0.669301  0.000000  1
  Ta  Ta1  1  0.169301  0.330699  0.000000  1
  Ta  Ta2  1  0.500000  0.500000  0.000000  1
  Ta  Ta3  1  0.000000  0.000000  0.000000  1
  Mn  Mn4  1  0.500000  0.000000  0.500000  1
  Mn  Mn5  1  0.000000  0.500000  0.500000  1
  Nb  Nb6  1  0.330840  0.830840  0.000000  1
  Nb  Nb7  1  0.669160  0.169160  0.000000  1
  B  B8  1  0.613554  0.886446  0.000000  1
  B  B9  1  0.386446  0.113554  0.000000  1
  B  B10  1  0.112844  0.612844  0.000000  1
  B  B11  1  0.887156  0.387156  0.000000  1
  Ru  Ru12  1  0.572057  0.719954  0.500000  1
  Ru  Ru13  1  0.427943  0.280046  0.500000  1
  Ru  Ru14  1  0.070354  0.779206  0.500000  1
  Ru  Ru15  1  0.929646  0.220794  0.500000  1
  Ru  Ru16  1  0.279206  0.570354  0.500000  1
  Ru  Ru17  1  0.720794  0.429646  0.500000  1
  Ru  Ru18  1  0.219954  0.072057  0.500000  1
  Ru  Ru19  1  0.780046  0.927943  0.500000  1
