# generated using pymatgen
data_Tb4ErPb4
_symmetry_space_group_name_H-M   'P 1'
_cell_length_a   8.22637878
_cell_length_b   8.30670378
_cell_length_c   15.70826900
_cell_angle_alpha   90.02184449
_cell_angle_beta   89.69210883
_cell_angle_gamma   89.91494093
_symmetry_Int_Tables_number   1
_chemical_formula_structural   Tb4ErPb4
_chemical_formula_sum   'Tb16 Er4 Pb16'
_cell_volume   1073.39353176
_cell_formula_units_Z   4
loop_
 _symmetry_equiv_pos_site_id
 _symmetry_equiv_pos_as_xyz
  1  'x, y, z'
loop_
 _atom_site_type_symbol
 _atom_site_label
 _atom_site_symmetry_multiplicity
 _atom_site_fract_x
 _atom_site_fract_y
 _atom_site_fract_z
 _atom_site_occupancy
  Tb  Tb0  1  0.623915  0.157653  0.620976  1
  Tb  Tb1  1  0.121705  0.342024  0.879841  1
  Tb  Tb2  1  0.378275  0.842310  0.120576  1
  Tb  Tb3  1  0.876033  0.657844  0.378880  1
  Tb  Tb4  1  0.376731  0.842275  0.378924  1
  Tb  Tb5  1  0.878409  0.657803  0.120457  1
  Tb  Tb6  1  0.621136  0.157845  0.879545  1
  Tb  Tb7  1  0.123154  0.342153  0.621034  1
  Tb  Tb8  1  0.465029  0.675999  0.599454  1
  Tb  Tb9  1  0.961971  0.824615  0.899458  1
  Tb  Tb10  1  0.537554  0.324514  0.100647  1
  Tb  Tb11  1  0.035077  0.176563  0.400436  1
  Tb  Tb12  1  0.534573  0.324107  0.400608  1
  Tb  Tb13  1  0.037532  0.175397  0.100618  1
  Tb  Tb14  1  0.462828  0.675529  0.899705  1
  Tb  Tb15  1  0.966579  0.823124  0.598883  1
  Er  Er16  1  0.789927  0.495374  0.750134  1
  Er  Er17  1  0.290108  0.004228  0.750036  1
  Er  Er18  1  0.209775  0.504496  0.249990  1
  Er  Er19  1  0.709854  0.995754  0.249742  1
  Pb  Pb20  1  0.718432  0.966421  0.456065  1
  Pb  Pb21  1  0.220343  0.531991  0.044035  1
  Pb  Pb22  1  0.279607  0.031305  0.956158  1
  Pb  Pb23  1  0.781822  0.465809  0.543490  1
  Pb  Pb24  1  0.282788  0.034828  0.543386  1
  Pb  Pb25  1  0.779662  0.467545  0.956389  1
  Pb  Pb26  1  0.720128  0.968107  0.043907  1
  Pb  Pb27  1  0.217492  0.534825  0.456509  1
  Pb  Pb28  1  0.426943  0.374466  0.750152  1
  Pb  Pb29  1  0.927175  0.125273  0.750398  1
  Pb  Pb30  1  0.572671  0.625628  0.249640  1
  Pb  Pb31  1  0.072678  0.874301  0.249844  1
  Pb  Pb32  1  0.651892  0.845250  0.749564  1
  Pb  Pb33  1  0.151714  0.654411  0.749811  1
  Pb  Pb34  1  0.348319  0.154863  0.250385  1
  Pb  Pb35  1  0.848165  0.345374  0.250324  1
