# generated using pymatgen
data_Tm2Nb3Co16(P4W)3
_symmetry_space_group_name_H-M   'P 1'
_cell_length_a   11.91028800
_cell_length_b   11.91028889
_cell_length_c   3.65491400
_cell_angle_alpha   90.00000000
_cell_angle_beta   90.00000000
_cell_angle_gamma   119.99999753
_symmetry_Int_Tables_number   1
_chemical_formula_structural   Tm2Nb3Co16(P4W)3
_chemical_formula_sum   'Tm2 Nb3 Co16 P12 W3'
_cell_volume   449.00622671
_cell_formula_units_Z   1
loop_
 _symmetry_equiv_pos_site_id
 _symmetry_equiv_pos_as_xyz
  1  'x, y, z'
loop_
 _atom_site_type_symbol
 _atom_site_label
 _atom_site_symmetry_multiplicity
 _atom_site_fract_x
 _atom_site_fract_y
 _atom_site_fract_z
 _atom_site_occupancy
  Tm  Tm0  1  0.333333  0.666667  0.000000  1
  Tm  Tm1  1  0.666667  0.333333  0.000000  1
  Nb  Nb2  1  0.820579  0.000000  0.500000  1
  Nb  Nb3  1  0.000000  0.820579  0.500000  1
  Nb  Nb4  1  0.179421  0.179421  0.500000  1
  Co  Co5  1  0.274565  0.000000  0.500000  1
  Co  Co6  1  0.000000  0.274565  0.500000  1
  Co  Co7  1  0.725435  0.725435  0.500000  1
  Co  Co8  1  0.633020  0.809660  0.000000  1
  Co  Co9  1  0.190340  0.823362  0.000000  1
  Co  Co10  1  0.176638  0.366980  0.000000  1
  Co  Co11  1  0.366980  0.176638  0.000000  1
  Co  Co12  1  0.809660  0.633020  0.000000  1
  Co  Co13  1  0.823362  0.190340  0.000000  1
  Co  Co14  1  0.518857  0.873459  0.500000  1
  Co  Co15  1  0.126541  0.645397  0.500000  1
  Co  Co16  1  0.354603  0.481143  0.500000  1
  Co  Co17  1  0.481143  0.354603  0.500000  1
  Co  Co18  1  0.873459  0.518857  0.500000  1
  Co  Co19  1  0.645397  0.126541  0.500000  1
  Co  Co20  1  0.000000  0.000000  0.000000  1
  P  P21  1  0.173166  0.000000  0.000000  1
  P  P22  1  0.000000  0.173166  0.000000  1
  P  P23  1  0.826834  0.826834  0.000000  1
  P  P24  1  0.521803  0.687535  0.500000  1
  P  P25  1  0.312465  0.834268  0.500000  1
  P  P26  1  0.165732  0.478197  0.500000  1
  P  P27  1  0.478197  0.165732  0.500000  1
  P  P28  1  0.687535  0.521803  0.500000  1
  P  P29  1  0.834268  0.312465  0.500000  1
  P  P30  1  0.644354  0.000000  0.000000  1
  P  P31  1  0.000000  0.644354  0.000000  1
  P  P32  1  0.355646  0.355646  0.000000  1
  W  W33  1  0.446833  0.000000  0.000000  1
  W  W34  1  0.000000  0.446833  0.000000  1
  W  W35  1  0.553167  0.553167  0.000000  1
