# generated using pymatgen
data_Tb16Cd2Hg2Ir3Ru
_symmetry_space_group_name_H-M   'P 1'
_cell_length_a   9.67453475
_cell_length_b   9.67453498
_cell_length_c   9.68059899
_cell_angle_alpha   59.81458389
_cell_angle_beta   59.81458372
_cell_angle_gamma   59.84632016
_symmetry_Int_Tables_number   1
_chemical_formula_structural   Tb16Cd2Hg2Ir3Ru
_chemical_formula_sum   'Tb16 Cd2 Hg2 Ir3 Ru1'
_cell_volume   638.14662302
_cell_formula_units_Z   1
loop_
 _symmetry_equiv_pos_site_id
 _symmetry_equiv_pos_as_xyz
  1  'x, y, z'
loop_
 _atom_site_type_symbol
 _atom_site_label
 _atom_site_symmetry_multiplicity
 _atom_site_fract_x
 _atom_site_fract_y
 _atom_site_fract_z
 _atom_site_occupancy
  Tb  Tb0  1  0.599045  0.599045  0.598543  1
  Tb  Tb1  1  0.599176  0.599176  0.204181  1
  Tb  Tb2  1  0.600134  0.201993  0.599475  1
  Tb  Tb3  1  0.201993  0.600134  0.599475  1
  Tb  Tb4  1  0.061279  0.438910  0.439766  1
  Tb  Tb5  1  0.438100  0.059467  0.059726  1
  Tb  Tb6  1  0.438910  0.061279  0.439766  1
  Tb  Tb7  1  0.059467  0.438100  0.059726  1
  Tb  Tb8  1  0.438666  0.438666  0.061989  1
  Tb  Tb9  1  0.058598  0.058598  0.439625  1
  Tb  Tb10  1  0.188567  0.810861  0.811859  1
  Tb  Tb11  1  0.808894  0.188286  0.189696  1
  Tb  Tb12  1  0.810861  0.188567  0.811859  1
  Tb  Tb13  1  0.188286  0.808894  0.189696  1
  Tb  Tb14  1  0.811092  0.811092  0.189747  1
  Tb  Tb15  1  0.188914  0.188914  0.809256  1
  Cd  Cd16  1  0.830044  0.507451  0.830687  1
  Cd  Cd17  1  0.507451  0.830044  0.830687  1
  Hg  Hg18  1  0.833728  0.833728  0.835781  1
  Hg  Hg19  1  0.834337  0.834337  0.494215  1
  Ir  Ir20  1  0.393275  0.393275  0.825945  1
  Ir  Ir21  1  0.393028  0.826139  0.393616  1
  Ir  Ir22  1  0.826139  0.393028  0.393616  1
  Ru  Ru23  1  0.390016  0.390016  0.391068  1
