# generated using pymatgen
data_Dy2Ti3Co9P7
_symmetry_space_group_name_H-M   'P 1'
_cell_length_a   3.63216100
_cell_length_b   9.17763830
_cell_length_c   9.17763900
_cell_angle_alpha   119.99999892
_cell_angle_beta   90.00000000
_cell_angle_gamma   90.00000000
_symmetry_Int_Tables_number   1
_chemical_formula_structural   Dy2Ti3Co9P7
_chemical_formula_sum   'Dy2 Ti3 Co9 P7'
_cell_volume   264.94616389
_cell_formula_units_Z   1
loop_
 _symmetry_equiv_pos_site_id
 _symmetry_equiv_pos_as_xyz
  1  'x, y, z'
loop_
 _atom_site_type_symbol
 _atom_site_label
 _atom_site_symmetry_multiplicity
 _atom_site_fract_x
 _atom_site_fract_y
 _atom_site_fract_z
 _atom_site_occupancy
  Dy  Dy0  1  0.000000  0.666667  0.333333  1
  Dy  Dy1  1  0.500000  0.333333  0.666667  1
  Ti  Ti2  1  0.500000  0.776984  0.892801  1
  Ti  Ti3  1  0.500000  0.115817  0.223016  1
  Ti  Ti4  1  0.500000  0.107199  0.884183  1
  Co  Co5  1  0.000000  0.571554  0.938867  1
  Co  Co6  1  0.000000  0.367314  0.428446  1
  Co  Co7  1  0.000000  0.061133  0.632686  1
  Co  Co8  1  0.000000  0.879938  0.160314  1
  Co  Co9  1  0.000000  0.280377  0.120062  1
  Co  Co10  1  0.000000  0.839686  0.719623  1
  Co  Co11  1  0.500000  0.949079  0.388424  1
  Co  Co12  1  0.500000  0.439344  0.050921  1
  Co  Co13  1  0.500000  0.611576  0.560656  1
  P  P14  1  0.000000  0.000000  0.000000  1
  P  P15  1  0.500000  0.711410  0.123577  1
  P  P16  1  0.500000  0.412166  0.288590  1
  P  P17  1  0.500000  0.876423  0.587834  1
  P  P18  1  0.000000  0.582314  0.692373  1
  P  P19  1  0.000000  0.110059  0.417686  1
  P  P20  1  0.000000  0.307627  0.889941  1
