# generated using pymatgen
data_Dy3Er(TmSb5)4
_symmetry_space_group_name_H-M   'P 1'
_cell_length_a   4.21376600
_cell_length_b   13.18213297
_cell_length_c   14.60054900
_cell_angle_alpha   78.27447228
_cell_angle_beta   90.00000000
_cell_angle_gamma   90.00000000
_symmetry_Int_Tables_number   1
_chemical_formula_structural   Dy3Er(TmSb5)4
_chemical_formula_sum   'Dy3 Er1 Tm4 Sb20'
_cell_volume   794.08445457
_cell_formula_units_Z   1
loop_
 _symmetry_equiv_pos_site_id
 _symmetry_equiv_pos_as_xyz
  1  'x, y, z'
loop_
 _atom_site_type_symbol
 _atom_site_label
 _atom_site_symmetry_multiplicity
 _atom_site_fract_x
 _atom_site_fract_y
 _atom_site_fract_z
 _atom_site_occupancy
  Dy  Dy0  1  0.750000  0.330871  0.423871  1
  Dy  Dy1  1  0.250000  0.953165  0.358352  1
  Dy  Dy2  1  0.750000  0.046876  0.641556  1
  Er  Er3  1  0.250000  0.669119  0.576327  1
  Tm  Tm4  1  0.250000  0.395642  0.771014  1
  Tm  Tm5  1  0.750000  0.604381  0.228940  1
  Tm  Tm6  1  0.250000  0.661672  0.856369  1
  Tm  Tm7  1  0.750000  0.338458  0.143514  1
  Sb  Sb8  1  0.250000  0.145103  0.779283  1
  Sb  Sb9  1  0.750000  0.854974  0.220674  1
  Sb  Sb10  1  0.250000  0.143156  0.482311  1
  Sb  Sb11  1  0.750000  0.856097  0.517968  1
  Sb  Sb12  1  0.250000  0.153940  0.170192  1
  Sb  Sb13  1  0.750000  0.846092  0.829864  1
  Sb  Sb14  1  0.250000  0.420714  0.975534  1
  Sb  Sb15  1  0.750000  0.579274  0.024607  1
  Sb  Sb16  1  0.750000  0.028631  0.910052  1
  Sb  Sb17  1  0.250000  0.971472  0.090019  1
  Sb  Sb18  1  0.750000  0.140008  0.321323  1
  Sb  Sb19  1  0.250000  0.859438  0.678394  1
  Sb  Sb20  1  0.750000  0.279881  0.936720  1
  Sb  Sb21  1  0.250000  0.720168  0.063347  1
  Sb  Sb22  1  0.750000  0.286123  0.653924  1
  Sb  Sb23  1  0.250000  0.713857  0.346297  1
  Sb  Sb24  1  0.750000  0.576284  0.735431  1
  Sb  Sb25  1  0.250000  0.424116  0.263740  1
  Sb  Sb26  1  0.750000  0.571872  0.446710  1
  Sb  Sb27  1  0.250000  0.428618  0.553666  1
