# generated using pymatgen
data_Lu6CrB14Os
_symmetry_space_group_name_H-M   'P 1'
_cell_length_a   7.90235531
_cell_length_b   7.90235495
_cell_length_c   9.19311800
_cell_angle_alpha   90.00000000
_cell_angle_beta   90.00000000
_cell_angle_gamma   154.96141417
_symmetry_Int_Tables_number   1
_chemical_formula_structural   Lu6CrB14Os
_chemical_formula_sum   'Lu6 Cr1 B14 Os1'
_cell_volume   242.96898810
_cell_formula_units_Z   1
loop_
 _symmetry_equiv_pos_site_id
 _symmetry_equiv_pos_as_xyz
  1  'x, y, z'
loop_
 _atom_site_type_symbol
 _atom_site_label
 _atom_site_symmetry_multiplicity
 _atom_site_fract_x
 _atom_site_fract_y
 _atom_site_fract_z
 _atom_site_occupancy
  Lu  Lu0  1  0.105774  0.894226  0.061957  1
  Lu  Lu1  1  0.894071  0.105929  0.941837  1
  Lu  Lu2  1  0.757539  0.242461  0.250000  1
  Lu  Lu3  1  0.244702  0.755298  0.750000  1
  Lu  Lu4  1  0.105774  0.894226  0.438043  1
  Lu  Lu5  1  0.894071  0.105929  0.558163  1
  Cr  Cr6  1  0.947696  0.052304  0.250000  1
  B  B7  1  0.727530  0.272470  0.534541  1
  B  B8  1  0.271670  0.728330  0.465853  1
  B  B9  1  0.271670  0.728330  0.034147  1
  B  B10  1  0.727530  0.272470  0.965459  1
  B  B11  1  0.519545  0.480455  0.906223  1
  B  B12  1  0.479787  0.520213  0.095108  1
  B  B13  1  0.479787  0.520213  0.404892  1
  B  B14  1  0.519545  0.480455  0.593777  1
  B  B15  1  0.453403  0.546597  0.750000  1
  B  B16  1  0.545213  0.454787  0.250000  1
  B  B17  1  0.632301  0.367699  0.648886  1
  B  B18  1  0.368256  0.631744  0.348895  1
  B  B19  1  0.368256  0.631744  0.151105  1
  B  B20  1  0.632301  0.367699  0.851114  1
  Os  Os21  1  0.053578  0.946422  0.750000  1
