# generated using pymatgen
data_ThCrFe3Re8
_symmetry_space_group_name_H-M   'P 1'
_cell_length_a   6.81669569
_cell_length_b   6.81669450
_cell_length_c   6.83291949
_cell_angle_alpha   97.43887911
_cell_angle_beta   97.43887944
_cell_angle_gamma   138.38241344
_symmetry_Int_Tables_number   1
_chemical_formula_structural   ThCrFe3Re8
_chemical_formula_sum   'Th1 Cr1 Fe3 Re8'
_cell_volume   196.37171328
_cell_formula_units_Z   1
loop_
 _symmetry_equiv_pos_site_id
 _symmetry_equiv_pos_as_xyz
  1  'x, y, z'
loop_
 _atom_site_type_symbol
 _atom_site_label
 _atom_site_symmetry_multiplicity
 _atom_site_fract_x
 _atom_site_fract_y
 _atom_site_fract_z
 _atom_site_occupancy
  Th  Th0  1  0.000000  0.000000  0.000000  1
  Cr  Cr1  1  0.000000  0.000000  0.500000  1
  Fe  Fe2  1  0.500000  0.500000  0.500000  1
  Fe  Fe3  1  0.000000  0.500000  0.000000  1
  Fe  Fe4  1  0.500000  0.000000  0.000000  1
  Re  Re5  1  0.278693  0.498917  0.779733  1
  Re  Re6  1  0.498917  0.278693  0.779733  1
  Re  Re7  1  0.501083  0.721307  0.220267  1
  Re  Re8  1  0.721307  0.501083  0.220267  1
  Re  Re9  1  0.358024  0.999836  0.355743  1
  Re  Re10  1  0.641976  0.000164  0.644257  1
  Re  Re11  1  0.000164  0.641976  0.644257  1
  Re  Re12  1  0.999836  0.358024  0.355743  1
