# generated using pymatgen
data_La3PrB2CI5
_symmetry_space_group_name_H-M   'P 1'
_cell_length_a   4.28818645
_cell_length_b   12.21076143
_cell_length_c   15.67958559
_cell_angle_alpha   91.45047952
_cell_angle_beta   97.86576393
_cell_angle_gamma   100.09623388
_symmetry_Int_Tables_number   1
_chemical_formula_structural   La3PrB2CI5
_chemical_formula_sum   'La6 Pr2 B4 C2 I10'
_cell_volume   799.67232233
_cell_formula_units_Z   2
loop_
 _symmetry_equiv_pos_site_id
 _symmetry_equiv_pos_as_xyz
  1  'x, y, z'
loop_
 _atom_site_type_symbol
 _atom_site_label
 _atom_site_symmetry_multiplicity
 _atom_site_fract_x
 _atom_site_fract_y
 _atom_site_fract_z
 _atom_site_occupancy
  La  La0  1  0.551377  0.706111  0.396404  1
  La  La1  1  0.913200  0.418456  0.407800  1
  La  La2  1  0.085903  0.580695  0.590949  1
  La  La3  1  0.448462  0.293768  0.603273  1
  La  La4  1  0.364338  0.852923  0.875669  1
  La  La5  1  0.026857  0.154990  0.898961  1
  Pr  Pr6  1  0.974459  0.848181  0.100933  1
  Pr  Pr7  1  0.633991  0.143807  0.124262  1
  B  B8  1  0.314466  0.000202  0.999796  1
  B  B9  1  0.685494  0.000228  0.999784  1
  B  B10  1  0.053018  0.056938  0.049180  1
  B  B11  1  0.947317  0.944361  0.950274  1
  C  C12  1  0.511707  0.547741  0.475733  1
  C  C13  1  0.488042  0.452022  0.523742  1
  I  I14  1  0.344088  0.666035  0.021739  1
  I  I15  1  0.930651  0.608097  0.253040  1
  I  I16  1  0.592453  0.932103  0.252607  1
  I  I17  1  0.279115  0.294814  0.262870  1
  I  I18  1  0.820874  0.162252  0.479793  1
  I  I19  1  0.178972  0.837405  0.520091  1
  I  I20  1  0.719564  0.703476  0.735685  1
  I  I21  1  0.405509  0.067133  0.744865  1
  I  I22  1  0.069680  0.392062  0.747514  1
  I  I23  1  0.660458  0.336198  0.985036  1
