# generated using pymatgen
data_Sr2ErLu(Si4N7)2
_symmetry_space_group_name_H-M   'P 1'
_cell_length_a   6.02514300
_cell_length_b   6.02514234
_cell_length_c   9.81969800
_cell_angle_alpha   90.00000000
_cell_angle_beta   90.00000000
_cell_angle_gamma   119.99998717
_symmetry_Int_Tables_number   1
_chemical_formula_structural   Sr2ErLu(Si4N7)2
_chemical_formula_sum   'Sr2 Er1 Lu1 Si8 N14'
_cell_volume   308.71909274
_cell_formula_units_Z   1
loop_
 _symmetry_equiv_pos_site_id
 _symmetry_equiv_pos_as_xyz
  1  'x, y, z'
loop_
 _atom_site_type_symbol
 _atom_site_label
 _atom_site_symmetry_multiplicity
 _atom_site_fract_x
 _atom_site_fract_y
 _atom_site_fract_z
 _atom_site_occupancy
  Sr  Sr0  1  0.666667  0.333333  0.581393  1
  Sr  Sr1  1  0.333333  0.666667  0.080144  1
  Er  Er2  1  0.333333  0.666667  0.450446  1
  Lu  Lu3  1  0.666667  0.333333  0.950494  1
  Si  Si4  1  0.173782  0.347563  0.761071  1
  Si  Si5  1  0.825993  0.174007  0.259151  1
  Si  Si6  1  0.348014  0.174007  0.259151  1
  Si  Si7  1  0.652437  0.826218  0.761071  1
  Si  Si8  1  0.173782  0.826218  0.761071  1
  Si  Si9  1  0.825993  0.651986  0.259151  1
  Si  Si10  1  0.000000  0.000000  0.026443  1
  Si  Si11  1  0.000000  0.000000  0.527243  1
  N  N12  1  0.000000  0.000000  0.836132  1
  N  N13  1  0.000000  0.000000  0.335280  1
  N  N14  1  0.845389  0.690777  0.084913  1
  N  N15  1  0.153917  0.846083  0.587046  1
  N  N16  1  0.692166  0.846083  0.587046  1
  N  N17  1  0.309223  0.154611  0.084913  1
  N  N18  1  0.845389  0.154611  0.084913  1
  N  N19  1  0.153917  0.307834  0.587046  1
  N  N20  1  0.489914  0.510086  0.814582  1
  N  N21  1  0.978369  0.489184  0.312593  1
  N  N22  1  0.510816  0.021631  0.312593  1
  N  N23  1  0.489914  0.979829  0.814582  1
  N  N24  1  0.510816  0.489184  0.312593  1
  N  N25  1  0.020171  0.510086  0.814582  1
