# generated using pymatgen
data_Ho4GeAsSe2
_symmetry_space_group_name_H-M   'P 1'
_cell_length_a   7.09966230
_cell_length_b   7.09966224
_cell_length_c   7.09966333
_cell_angle_alpha   132.04620206
_cell_angle_beta   132.04620252
_cell_angle_gamma   70.15606907
_symmetry_Int_Tables_number   1
_chemical_formula_structural   Ho4GeAsSe2
_chemical_formula_sum   'Ho4 Ge1 As1 Se2'
_cell_volume   193.44721048
_cell_formula_units_Z   1
loop_
 _symmetry_equiv_pos_site_id
 _symmetry_equiv_pos_as_xyz
  1  'x, y, z'
loop_
 _atom_site_type_symbol
 _atom_site_label
 _atom_site_symmetry_multiplicity
 _atom_site_fract_x
 _atom_site_fract_y
 _atom_site_fract_z
 _atom_site_occupancy
  Ho  Ho0  1  0.755818  0.755818  0.000000  1
  Ho  Ho1  1  0.244183  0.244183  0.000000  1
  Ho  Ho2  1  0.004394  0.504394  0.500000  1
  Ho  Ho3  1  0.495606  0.995606  0.500000  1
  Ge  Ge4  1  0.000000  0.000000  0.000000  1
  As  As5  1  0.250000  0.750000  0.500000  1
  Se  Se6  1  0.500000  0.500000  0.000000  1
  Se  Se7  1  0.750000  0.250000  0.500000  1
