# generated using pymatgen
data_Ba4Ni3P4Pd
_symmetry_space_group_name_H-M   'P 1'
_cell_length_a   6.27112630
_cell_length_b   6.23128126
_cell_length_c   7.53570029
_cell_angle_alpha   89.55866111
_cell_angle_beta   89.58698192
_cell_angle_gamma   105.27317196
_symmetry_Int_Tables_number   1
_chemical_formula_structural   Ba4Ni3P4Pd
_chemical_formula_sum   'Ba4 Ni3 P4 Pd1'
_cell_volume   284.05169638
_cell_formula_units_Z   1
loop_
 _symmetry_equiv_pos_site_id
 _symmetry_equiv_pos_as_xyz
  1  'x, y, z'
loop_
 _atom_site_type_symbol
 _atom_site_label
 _atom_site_symmetry_multiplicity
 _atom_site_fract_x
 _atom_site_fract_y
 _atom_site_fract_z
 _atom_site_occupancy
  Ba  Ba0  1  0.186195  0.811875  0.511713  1
  Ba  Ba1  1  0.688144  0.315098  0.992441  1
  Ba  Ba2  1  0.814928  0.190391  0.491000  1
  Ba  Ba3  1  0.318834  0.692525  0.012980  1
  Ni  Ni4  1  0.380672  0.378410  0.615460  1
  Ni  Ni5  1  0.611607  0.612175  0.376812  1
  Ni  Ni6  1  0.118833  0.120200  0.121639  1
  P  P7  1  0.168060  0.206642  0.829547  1
  P  P8  1  0.643857  0.682122  0.661672  1
  P  P9  1  0.847429  0.808784  0.185960  1
  P  P10  1  0.341540  0.304726  0.325391  1
  Pd  Pd11  1  0.879902  0.877049  0.875386  1
