# generated using pymatgen
data_Er13Lu3(InIr)4
_symmetry_space_group_name_H-M   'P 1'
_cell_length_a   9.56016220
_cell_length_b   9.55064511
_cell_length_c   9.56016220
_cell_angle_alpha   119.97351861
_cell_angle_beta   90.07521609
_cell_angle_gamma   120.00547350
_symmetry_Int_Tables_number   1
_chemical_formula_structural   Er13Lu3(InIr)4
_chemical_formula_sum   'Er13 Lu3 In4 Ir4'
_cell_volume   617.02165212
_cell_formula_units_Z   1
loop_
 _symmetry_equiv_pos_site_id
 _symmetry_equiv_pos_as_xyz
  1  'x, y, z'
loop_
 _atom_site_type_symbol
 _atom_site_label
 _atom_site_symmetry_multiplicity
 _atom_site_fract_x
 _atom_site_fract_y
 _atom_site_fract_z
 _atom_site_occupancy
  Er  Er0  1  0.190452  0.380463  0.190446  1
  Er  Er1  1  0.650307  0.300930  0.349008  1
  Er  Er2  1  0.048078  0.699070  0.349377  1
  Er  Er3  1  0.650871  0.698639  0.349108  1
  Er  Er4  1  0.060067  0.500001  0.560067  1
  Er  Er5  1  0.439224  0.499472  0.560106  1
  Er  Er6  1  0.060571  0.120699  0.559989  1
  Er  Er7  1  0.809539  0.000000  0.809539  1
  Er  Er8  1  0.809983  0.619537  0.809989  1
  Er  Er9  1  0.060634  0.500530  0.939754  1
  Er  Er10  1  0.439791  0.500001  0.939792  1
  Er  Er11  1  0.439290  0.879302  0.939873  1
  Er  Er12  1  0.650468  0.301361  0.952232  1
  Lu  Lu13  1  0.190288  0.000000  0.190288  1
  Lu  Lu14  1  0.809744  0.999988  0.190637  1
  Lu  Lu15  1  0.190649  0.000012  0.809757  1
  In  In16  1  0.416836  0.834128  0.250688  1
  In  In17  1  0.416560  0.165872  0.582708  1
  In  In18  1  0.749214  0.165908  0.583078  1
  In  In19  1  0.417170  0.834092  0.583305  1
  Ir  Ir20  1  0.422515  0.280898  0.140464  1
  Ir  Ir21  1  0.858545  0.281658  0.141296  1
  Ir  Ir22  1  0.859567  0.719102  0.141619  1
  Ir  Ir23  1  0.859638  0.718342  0.576887  1
