# generated using pymatgen
data_Dy3Tl2InAg2Pd
_symmetry_space_group_name_H-M   'P 1'
_cell_length_a   8.07027422
_cell_length_b   8.06689464
_cell_length_c   3.74287500
_cell_angle_alpha   90.00000000
_cell_angle_beta   90.00000000
_cell_angle_gamma   120.38521041
_symmetry_Int_Tables_number   1
_chemical_formula_structural   Dy3Tl2InAg2Pd
_chemical_formula_sum   'Dy3 Tl2 In1 Ag2 Pd1'
_cell_volume   210.19952858
_cell_formula_units_Z   1
loop_
 _symmetry_equiv_pos_site_id
 _symmetry_equiv_pos_as_xyz
  1  'x, y, z'
loop_
 _atom_site_type_symbol
 _atom_site_label
 _atom_site_symmetry_multiplicity
 _atom_site_fract_x
 _atom_site_fract_y
 _atom_site_fract_z
 _atom_site_occupancy
  Dy  Dy0  1  0.021901  0.610139  0.500000  1
  Dy  Dy1  1  0.590179  0.980827  0.500000  1
  Dy  Dy2  1  0.388707  0.408832  0.500000  1
  Tl  Tl3  1  0.990724  0.269878  0.000000  1
  Tl  Tl4  1  0.278569  0.007109  0.000000  1
  In  In5  1  0.729733  0.723278  0.000000  1
  Ag  Ag6  1  0.992857  0.992347  0.500000  1
  Ag  Ag7  1  0.667866  0.340391  0.000000  1
  Pd  Pd8  1  0.339465  0.667199  0.000000  1
