# generated using pymatgen
data_Tb3Yb7ErIn9Pd4
_symmetry_space_group_name_H-M   'P 1'
_cell_length_a   13.39293557
_cell_length_b   13.39288900
_cell_length_c   3.66974200
_cell_angle_alpha   90.00000000
_cell_angle_beta   90.00000000
_cell_angle_gamma   112.34859742
_symmetry_Int_Tables_number   1
_chemical_formula_structural   Tb3Yb7ErIn9Pd4
_chemical_formula_sum   'Tb3 Yb7 Er1 In9 Pd4'
_cell_volume   608.79981062
_cell_formula_units_Z   1
loop_
 _symmetry_equiv_pos_site_id
 _symmetry_equiv_pos_as_xyz
  1  'x, y, z'
loop_
 _atom_site_type_symbol
 _atom_site_label
 _atom_site_symmetry_multiplicity
 _atom_site_fract_x
 _atom_site_fract_y
 _atom_site_fract_z
 _atom_site_occupancy
  Tb  Tb0  1  0.620758  0.379241  0.000000  1
  Tb  Tb1  1  0.310854  0.311274  0.000000  1
  Tb  Tb2  1  0.688726  0.689145  0.000000  1
  Yb  Yb3  1  0.412806  0.069918  0.000000  1
  Yb  Yb4  1  0.587033  0.929604  0.000000  1
  Yb  Yb5  1  0.070395  0.412966  0.000000  1
  Yb  Yb6  1  0.930081  0.587193  0.000000  1
  Yb  Yb7  1  0.158290  0.841709  0.000000  1
  Yb  Yb8  1  0.841640  0.158360  0.000000  1
  Yb  Yb9  1  0.000069  0.999931  0.000000  1
  Er  Er10  1  0.379370  0.620628  0.000000  1
  In  In11  1  0.369433  0.834340  0.500000  1
  In  In12  1  0.630786  0.164894  0.500000  1
  In  In13  1  0.835107  0.369213  0.500000  1
  In  In14  1  0.165659  0.630567  0.500000  1
  In  In15  1  0.218418  0.079285  0.500000  1
  In  In16  1  0.781128  0.920385  0.500000  1
  In  In17  1  0.079615  0.218871  0.500000  1
  In  In18  1  0.920721  0.781589  0.500000  1
  In  In19  1  0.499370  0.500629  0.500000  1
  Pd  Pd20  1  0.448175  0.245580  0.500000  1
  Pd  Pd21  1  0.549967  0.752821  0.500000  1
  Pd  Pd22  1  0.247178  0.450032  0.500000  1
  Pd  Pd23  1  0.754420  0.551825  0.500000  1
