# generated using pymatgen
data_Hf4Ga2SiMo
_symmetry_space_group_name_H-M   'P 1'
_cell_length_a   7.89563365
_cell_length_b   7.88679217
_cell_length_c   5.42168100
_cell_angle_alpha   90.00242782
_cell_angle_beta   89.99879205
_cell_angle_gamma   119.96296026
_symmetry_Int_Tables_number   1
_chemical_formula_structural   Hf4Ga2SiMo
_chemical_formula_sum   'Hf8 Ga4 Si2 Mo2'
_cell_volume   292.49197310
_cell_formula_units_Z   2
loop_
 _symmetry_equiv_pos_site_id
 _symmetry_equiv_pos_as_xyz
  1  'x, y, z'
loop_
 _atom_site_type_symbol
 _atom_site_label
 _atom_site_symmetry_multiplicity
 _atom_site_fract_x
 _atom_site_fract_y
 _atom_site_fract_z
 _atom_site_occupancy
  Hf  Hf0  1  0.336926  0.667258  0.499827  1
  Hf  Hf1  1  0.663074  0.330331  0.499827  1
  Hf  Hf2  1  0.749536  0.752825  0.754808  1
  Hf  Hf3  1  0.250464  0.003289  0.754808  1
  Hf  Hf4  1  0.000000  0.244591  0.755497  1
  Hf  Hf5  1  0.247566  0.248192  0.247150  1
  Hf  Hf6  1  0.752434  0.000626  0.247150  1
  Hf  Hf7  1  0.000000  0.756138  0.245069  1
  Ga  Ga8  1  0.000000  0.602893  0.763674  1
  Ga  Ga9  1  0.604205  0.602285  0.235171  1
  Ga  Ga10  1  0.395795  0.998080  0.235171  1
  Ga  Ga11  1  0.000000  0.400076  0.234820  1
  Si  Si12  1  0.396126  0.396704  0.768666  1
  Si  Si13  1  0.603874  0.000579  0.768666  1
  Mo  Mo14  1  0.661255  0.328694  0.994848  1
  Mo  Mo15  1  0.338745  0.667440  0.994848  1
