# generated using pymatgen
data_Tb2Y14Cd4Pd3Pt
_symmetry_space_group_name_H-M   'P 1'
_cell_length_a   9.73912232
_cell_length_b   9.73251311
_cell_length_c   9.73449300
_cell_angle_alpha   59.99331342
_cell_angle_beta   60.01580798
_cell_angle_gamma   60.00324785
_symmetry_Int_Tables_number   1
_chemical_formula_structural   Tb2Y14Cd4Pd3Pt
_chemical_formula_sum   'Tb2 Y14 Cd4 Pd3 Pt1'
_cell_volume   652.50481197
_cell_formula_units_Z   1
loop_
 _symmetry_equiv_pos_site_id
 _symmetry_equiv_pos_as_xyz
  1  'x, y, z'
loop_
 _atom_site_type_symbol
 _atom_site_label
 _atom_site_symmetry_multiplicity
 _atom_site_fract_x
 _atom_site_fract_y
 _atom_site_fract_z
 _atom_site_occupancy
  Tb  Tb0  1  0.354402  0.352357  0.349967  1
  Tb  Tb1  1  0.354401  0.352356  0.943276  1
  Y  Y2  1  0.358076  0.935207  0.353359  1
  Y  Y3  1  0.933544  0.357562  0.354447  1
  Y  Y4  1  0.809801  0.190086  0.189723  1
  Y  Y5  1  0.190105  0.810691  0.809464  1
  Y  Y6  1  0.190105  0.810692  0.189738  1
  Y  Y7  1  0.809801  0.190086  0.810389  1
  Y  Y8  1  0.190909  0.190861  0.809115  1
  Y  Y9  1  0.810298  0.811879  0.188911  1
  Y  Y10  1  0.935469  0.564719  0.565358  1
  Y  Y11  1  0.564889  0.935819  0.934888  1
  Y  Y12  1  0.564888  0.935819  0.564406  1
  Y  Y13  1  0.935469  0.564720  0.934453  1
  Y  Y14  1  0.565910  0.565035  0.934528  1
  Y  Y15  1  0.935688  0.935598  0.564358  1
  Cd  Cd16  1  0.581456  0.581708  0.583247  1
  Cd  Cd17  1  0.581456  0.581709  0.253587  1
  Cd  Cd18  1  0.580698  0.253476  0.582914  1
  Cd  Cd19  1  0.253822  0.580943  0.582618  1
  Pd  Pd20  1  0.143843  0.144497  0.146696  1
  Pd  Pd21  1  0.143841  0.144495  0.564967  1
  Pd  Pd22  1  0.142641  0.567119  0.145121  1
  Pt  Pt23  1  0.568490  0.142566  0.144472  1
