# generated using pymatgen
data_Tc3Os5
_symmetry_space_group_name_H-M   'P 1'
_cell_length_a   5.54400302
_cell_length_b   5.54400362
_cell_length_c   4.33840900
_cell_angle_alpha   90.00000000
_cell_angle_beta   90.00000000
_cell_angle_gamma   120.02767041
_symmetry_Int_Tables_number   1
_chemical_formula_structural   Tc3Os5
_chemical_formula_sum   'Tc3 Os5'
_cell_volume   115.44813645
_cell_formula_units_Z   1
loop_
 _symmetry_equiv_pos_site_id
 _symmetry_equiv_pos_as_xyz
  1  'x, y, z'
loop_
 _atom_site_type_symbol
 _atom_site_label
 _atom_site_symmetry_multiplicity
 _atom_site_fract_x
 _atom_site_fract_y
 _atom_site_fract_z
 _atom_site_occupancy
  Tc  Tc0  1  0.332960  0.667040  0.750000  1
  Tc  Tc1  1  0.666953  0.333047  0.250000  1
  Tc  Tc2  1  0.832530  0.167470  0.750000  1
  Os  Os3  1  0.166683  0.334465  0.250000  1
  Os  Os4  1  0.665535  0.833317  0.250000  1
  Os  Os5  1  0.167240  0.832760  0.250000  1
  Os  Os6  1  0.833826  0.665730  0.750000  1
  Os  Os7  1  0.334270  0.166174  0.750000  1
