# generated using pymatgen
data_SmFe3P3Pd2
_symmetry_space_group_name_H-M   'P 1'
_cell_length_a   3.76929700
_cell_length_b   10.39545500
_cell_length_c   12.48802900
_cell_angle_alpha   90.00000000
_cell_angle_beta   90.00000000
_cell_angle_gamma   90.00000000
_symmetry_Int_Tables_number   1
_chemical_formula_structural   SmFe3P3Pd2
_chemical_formula_sum   'Sm4 Fe12 P12 Pd8'
_cell_volume   489.32540045
_cell_formula_units_Z   4
loop_
 _symmetry_equiv_pos_site_id
 _symmetry_equiv_pos_as_xyz
  1  'x, y, z'
loop_
 _atom_site_type_symbol
 _atom_site_label
 _atom_site_symmetry_multiplicity
 _atom_site_fract_x
 _atom_site_fract_y
 _atom_site_fract_z
 _atom_site_occupancy
  Sm  Sm0  1  0.250000  0.579422  0.714622  1
  Sm  Sm1  1  0.250000  0.920578  0.214622  1
  Sm  Sm2  1  0.750000  0.420578  0.285378  1
  Sm  Sm3  1  0.750000  0.079422  0.785378  1
  Fe  Fe4  1  0.250000  0.221677  0.170009  1
  Fe  Fe5  1  0.250000  0.278323  0.670009  1
  Fe  Fe6  1  0.750000  0.778323  0.829991  1
  Fe  Fe7  1  0.750000  0.721677  0.329991  1
  Fe  Fe8  1  0.250000  0.875943  0.691827  1
  Fe  Fe9  1  0.250000  0.624057  0.191827  1
  Fe  Fe10  1  0.750000  0.124057  0.308173  1
  Fe  Fe11  1  0.750000  0.375943  0.808173  1
  Fe  Fe12  1  0.250000  0.457894  0.934691  1
  Fe  Fe13  1  0.250000  0.042106  0.434691  1
  Fe  Fe14  1  0.750000  0.542106  0.065309  1
  Fe  Fe15  1  0.750000  0.957894  0.565309  1
  P  P16  1  0.250000  0.434911  0.108902  1
  P  P17  1  0.250000  0.065089  0.608902  1
  P  P18  1  0.750000  0.565089  0.891098  1
  P  P19  1  0.750000  0.934911  0.391098  1
  P  P20  1  0.250000  0.271738  0.852175  1
  P  P21  1  0.250000  0.228262  0.352175  1
  P  P22  1  0.750000  0.728262  0.147825  1
  P  P23  1  0.750000  0.771738  0.647825  1
  P  P24  1  0.250000  0.604506  0.374675  1
  P  P25  1  0.250000  0.895494  0.874675  1
  P  P26  1  0.750000  0.395494  0.625325  1
  P  P27  1  0.750000  0.104506  0.125325  1
  Pd  Pd28  1  0.250000  0.711513  0.984974  1
  Pd  Pd29  1  0.250000  0.788487  0.484974  1
  Pd  Pd30  1  0.750000  0.288487  0.015026  1
  Pd  Pd31  1  0.750000  0.211513  0.515026  1
  Pd  Pd32  1  0.250000  0.407759  0.470331  1
  Pd  Pd33  1  0.250000  0.092241  0.970331  1
  Pd  Pd34  1  0.750000  0.592241  0.529669  1
  Pd  Pd35  1  0.750000  0.907759  0.029669  1
