# generated using pymatgen
data_Li4Co2Ni7P7W
_symmetry_space_group_name_H-M   'P 1'
_cell_length_a   9.12173919
_cell_length_b   9.02910664
_cell_length_c   3.56464300
_cell_angle_alpha   90.00000000
_cell_angle_beta   90.00000000
_cell_angle_gamma   119.83521867
_symmetry_Int_Tables_number   1
_chemical_formula_structural   Li4Co2Ni7P7W
_chemical_formula_sum   'Li4 Co2 Ni7 P7 W1'
_cell_volume   254.67589256
_cell_formula_units_Z   1
loop_
 _symmetry_equiv_pos_site_id
 _symmetry_equiv_pos_as_xyz
  1  'x, y, z'
loop_
 _atom_site_type_symbol
 _atom_site_label
 _atom_site_symmetry_multiplicity
 _atom_site_fract_x
 _atom_site_fract_y
 _atom_site_fract_z
 _atom_site_occupancy
  Li  Li0  1  0.899200  0.124707  0.500000  1
  Li  Li1  1  0.221806  0.098235  0.500000  1
  Li  Li2  1  0.334414  0.665384  0.000000  1
  Li  Li3  1  0.659043  0.330510  0.500000  1
  Co  Co4  1  0.566149  0.954474  0.500000  1
  Co  Co5  1  0.390256  0.435747  0.500000  1
  Ni  Ni6  1  0.714927  0.882879  0.000000  1
  Ni  Ni7  1  0.162418  0.282535  0.000000  1
  Ni  Ni8  1  0.127144  0.835987  0.000000  1
  Ni  Ni9  1  0.626256  0.567162  0.000000  1
  Ni  Ni10  1  0.938699  0.370601  0.000000  1
  Ni  Ni11  1  0.430424  0.061381  0.000000  1
  Ni  Ni12  1  0.055958  0.612304  0.500000  1
  P  P13  1  0.577886  0.710711  0.500000  1
  P  P14  1  0.133657  0.417568  0.500000  1
  P  P15  1  0.297822  0.874550  0.500000  1
  P  P16  1  0.000963  0.996409  0.000000  1
  P  P17  1  0.878142  0.577548  0.000000  1
  P  P18  1  0.693974  0.120740  0.000000  1
  P  P19  1  0.418535  0.301624  0.000000  1
  W  W20  1  0.872331  0.778941  0.500000  1
