# generated using pymatgen
data_Tl2Ru3PtPb2O13
_symmetry_space_group_name_H-M   'P 1'
_cell_length_a   7.33534911
_cell_length_b   7.32027681
_cell_length_c   7.35993529
_cell_angle_alpha   60.01504871
_cell_angle_beta   60.11044574
_cell_angle_gamma   59.93186900
_symmetry_Int_Tables_number   1
_chemical_formula_structural   Tl2Ru3PtPb2O13
_chemical_formula_sum   'Tl2 Ru3 Pt1 Pb2 O13'
_cell_volume   279.57181912
_cell_formula_units_Z   1
loop_
 _symmetry_equiv_pos_site_id
 _symmetry_equiv_pos_as_xyz
  1  'x, y, z'
loop_
 _atom_site_type_symbol
 _atom_site_label
 _atom_site_symmetry_multiplicity
 _atom_site_fract_x
 _atom_site_fract_y
 _atom_site_fract_z
 _atom_site_occupancy
  Tl  Tl0  1  0.882730  0.372049  0.373250  1
  Tl  Tl1  1  0.371972  0.372049  0.373250  1
  Ru  Ru2  1  0.874863  0.876405  0.373868  1
  Ru  Ru3  1  0.874552  0.875662  0.876403  1
  Ru  Ru4  1  0.373382  0.875662  0.876403  1
  Pt  Pt5  1  0.875029  0.374173  0.875769  1
  Pb  Pb6  1  0.373634  0.376308  0.876426  1
  Pb  Pb7  1  0.371638  0.879582  0.377144  1
  O  O8  1  0.198968  0.805193  0.796871  1
  O  O9  1  0.194618  0.808520  0.193958  1
  O  O10  1  0.557584  0.936560  0.948272  1
  O  O11  1  0.554606  0.940669  0.555565  1
  O  O12  1  0.949160  0.940669  0.555565  1
  O  O13  1  0.802903  0.808520  0.193958  1
  O  O14  1  0.543761  0.551462  0.950508  1
  O  O15  1  0.798364  0.197880  0.797796  1
  O  O16  1  0.798064  0.198895  0.204977  1
  O  O17  1  0.954268  0.551462  0.950508  1
  O  O18  1  0.950885  0.552387  0.545842  1
  O  O19  1  0.205959  0.197880  0.797796  1
  O  O20  1  0.493058  0.508014  0.505870  1
