# generated using pymatgen
data_BaScIO6
_symmetry_space_group_name_H-M   'P 1'
_cell_length_a   5.44301300
_cell_length_b   5.44301279
_cell_length_c   11.43073500
_cell_angle_alpha   90.00000000
_cell_angle_beta   90.00000000
_cell_angle_gamma   120.00000735
_symmetry_Int_Tables_number   1
_chemical_formula_structural   BaScIO6
_chemical_formula_sum   'Ba2 Sc2 I2 O12'
_cell_volume   293.28069885
_cell_formula_units_Z   2
loop_
 _symmetry_equiv_pos_site_id
 _symmetry_equiv_pos_as_xyz
  1  'x, y, z'
loop_
 _atom_site_type_symbol
 _atom_site_label
 _atom_site_symmetry_multiplicity
 _atom_site_fract_x
 _atom_site_fract_y
 _atom_site_fract_z
 _atom_site_occupancy
  Ba  Ba0  1  0.000000  0.000000  0.000000  1
  Ba  Ba1  1  0.000000  0.000000  0.500000  1
  Sc  Sc2  1  0.666667  0.333333  0.250000  1
  Sc  Sc3  1  0.333333  0.666667  0.750000  1
  I  I4  1  0.333333  0.666667  0.250000  1
  I  I5  1  0.666667  0.333333  0.750000  1
  O  O6  1  0.631233  0.601497  0.653958  1
  O  O7  1  0.631233  0.029736  0.846042  1
  O  O8  1  0.970264  0.601497  0.846042  1
  O  O9  1  0.398503  0.368767  0.846042  1
  O  O10  1  0.029736  0.398503  0.346042  1
  O  O11  1  0.398503  0.029736  0.653958  1
  O  O12  1  0.368767  0.970264  0.346042  1
  O  O13  1  0.368767  0.398503  0.153958  1
  O  O14  1  0.970264  0.368767  0.653958  1
  O  O15  1  0.601497  0.970264  0.153958  1
  O  O16  1  0.029736  0.631233  0.153958  1
  O  O17  1  0.601497  0.631233  0.346042  1
