# generated using pymatgen
data_Nd6IrCl10
_symmetry_space_group_name_H-M   'P 1'
_cell_length_a   7.41594577
_cell_length_b   9.25285063
_cell_length_c   9.26262044
_cell_angle_alpha   109.90143757
_cell_angle_beta   96.80858891
_cell_angle_gamma   106.75792832
_symmetry_Int_Tables_number   1
_chemical_formula_structural   Nd6IrCl10
_chemical_formula_sum   'Nd6 Ir1 Cl10'
_cell_volume   555.42790237
_cell_formula_units_Z   1
loop_
 _symmetry_equiv_pos_site_id
 _symmetry_equiv_pos_as_xyz
  1  'x, y, z'
loop_
 _atom_site_type_symbol
 _atom_site_label
 _atom_site_symmetry_multiplicity
 _atom_site_fract_x
 _atom_site_fract_y
 _atom_site_fract_z
 _atom_site_occupancy
  Nd  Nd0  1  0.972966  0.310999  0.102817  1
  Nd  Nd1  1  0.027034  0.689001  0.897183  1
  Nd  Nd2  1  0.620709  0.848260  0.801949  1
  Nd  Nd3  1  0.379291  0.151740  0.198051  1
  Nd  Nd4  1  0.139076  0.053334  0.750591  1
  Nd  Nd5  1  0.860924  0.946666  0.249409  1
  Ir  Ir6  1  0.000000  0.000000  0.000000  1
  Cl  Cl7  1  0.550035  0.168172  0.926129  1
  Cl  Cl8  1  0.449965  0.831828  0.073871  1
  Cl  Cl9  1  0.758209  0.919806  0.551937  1
  Cl  Cl10  1  0.241791  0.080194  0.448063  1
  Cl  Cl11  1  0.086588  0.365159  0.837563  1
  Cl  Cl12  1  0.913412  0.634841  0.162437  1
  Cl  Cl13  1  0.196976  0.744037  0.650680  1
  Cl  Cl14  1  0.803024  0.255963  0.349320  1
  Cl  Cl15  1  0.641954  0.540389  0.724593  1
  Cl  Cl16  1  0.358046  0.459611  0.275407  1
