# generated using pymatgen
data_Dy8Co17Si10Ir
_symmetry_space_group_name_H-M   'P 1'
_cell_length_a   5.23340759
_cell_length_b   5.23340753
_cell_length_c   21.97607011
_cell_angle_alpha   89.88591544
_cell_angle_beta   90.11408481
_cell_angle_gamma   120.42588959
_symmetry_Int_Tables_number   1
_chemical_formula_structural   Dy8Co17Si10Ir
_chemical_formula_sum   'Dy8 Co17 Si10 Ir1'
_cell_volume   519.00172074
_cell_formula_units_Z   1
loop_
 _symmetry_equiv_pos_site_id
 _symmetry_equiv_pos_as_xyz
  1  'x, y, z'
loop_
 _atom_site_type_symbol
 _atom_site_label
 _atom_site_symmetry_multiplicity
 _atom_site_fract_x
 _atom_site_fract_y
 _atom_site_fract_z
 _atom_site_occupancy
  Dy  Dy0  1  0.332392  0.667608  0.530295  1
  Dy  Dy1  1  0.665046  0.334954  0.474320  1
  Dy  Dy2  1  0.666693  0.333307  0.027604  1
  Dy  Dy3  1  0.333410  0.666590  0.971914  1
  Dy  Dy4  1  0.332694  0.667306  0.675712  1
  Dy  Dy5  1  0.667939  0.332061  0.325615  1
  Dy  Dy6  1  0.666996  0.333004  0.173716  1
  Dy  Dy7  1  0.333510  0.666490  0.826269  1
  Co  Co8  1  0.166372  0.332515  0.087101  1
  Co  Co9  1  0.833384  0.667057  0.912061  1
  Co  Co10  1  0.667485  0.833628  0.087101  1
  Co  Co11  1  0.832387  0.668399  0.589665  1
  Co  Co12  1  0.332943  0.166616  0.912061  1
  Co  Co13  1  0.165093  0.330743  0.412349  1
  Co  Co14  1  0.166099  0.833901  0.087117  1
  Co  Co15  1  0.331601  0.167613  0.589665  1
  Co  Co16  1  0.834180  0.165820  0.911381  1
  Co  Co17  1  0.669257  0.834907  0.412349  1
  Co  Co18  1  0.832337  0.167663  0.590315  1
  Co  Co19  1  0.168294  0.334432  0.247300  1
  Co  Co20  1  0.832604  0.665077  0.750710  1
  Co  Co21  1  0.665568  0.831706  0.247300  1
  Co  Co22  1  0.334923  0.167396  0.750710  1
  Co  Co23  1  0.167998  0.832002  0.249364  1
  Co  Co24  1  0.832612  0.167388  0.750878  1
  Si  Si25  1  0.999630  0.000370  0.999485  1
  Si  Si26  1  0.996729  0.003271  0.502857  1
  Si  Si27  1  0.332398  0.667602  0.166419  1
  Si  Si28  1  0.665891  0.334109  0.832349  1
  Si  Si29  1  0.665553  0.334447  0.669267  1
  Si  Si30  1  0.344099  0.655901  0.328838  1
  Si  Si31  1  0.001435  0.998565  0.167410  1
  Si  Si32  1  0.001272  0.998728  0.831415  1
  Si  Si33  1  0.999968  0.000032  0.670130  1
  Si  Si34  1  0.992231  0.007769  0.328187  1
  Ir  Ir35  1  0.168979  0.831021  0.410766  1
