# generated using pymatgen
data_Ac17Er3(In3Sn)4
_symmetry_space_group_name_H-M   'P 1'
_cell_length_a   8.46328907
_cell_length_b   9.09698144
_cell_length_c   17.06318200
_cell_angle_alpha   90.07881731
_cell_angle_beta   89.95994239
_cell_angle_gamma   89.88984691
_symmetry_Int_Tables_number   1
_chemical_formula_structural   Ac17Er3(In3Sn)4
_chemical_formula_sum   'Ac17 Er3 In12 Sn4'
_cell_volume   1313.69693235
_cell_formula_units_Z   1
loop_
 _symmetry_equiv_pos_site_id
 _symmetry_equiv_pos_as_xyz
  1  'x, y, z'
loop_
 _atom_site_type_symbol
 _atom_site_label
 _atom_site_symmetry_multiplicity
 _atom_site_fract_x
 _atom_site_fract_y
 _atom_site_fract_z
 _atom_site_occupancy
  Ac  Ac0  1  0.328836  0.831255  0.877883  1
  Ac  Ac1  1  0.831987  0.671717  0.622498  1
  Ac  Ac2  1  0.669994  0.168651  0.372729  1
  Ac  Ac3  1  0.169815  0.330998  0.128720  1
  Ac  Ac4  1  0.664075  0.169709  0.127047  1
  Ac  Ac5  1  0.163833  0.328971  0.371401  1
  Ac  Ac6  1  0.334848  0.831449  0.621902  1
  Ac  Ac7  1  0.836652  0.674079  0.877689  1
  Ac  Ac8  1  0.495305  0.312902  0.910155  1
  Ac  Ac9  1  0.990438  0.186962  0.590017  1
  Ac  Ac10  1  0.506261  0.688939  0.405796  1
  Ac  Ac11  1  0.005787  0.809846  0.096216  1
  Ac  Ac12  1  0.504366  0.686505  0.095936  1
  Ac  Ac13  1  0.004206  0.812410  0.403693  1
  Ac  Ac14  1  0.497151  0.315724  0.590458  1
  Ac  Ac15  1  0.993497  0.182433  0.908561  1
  Ac  Ac16  1  0.171947  0.470949  0.748216  1
  Er  Er17  1  0.672026  0.018288  0.750269  1
  Er  Er18  1  0.827321  0.523688  0.248924  1
  Er  Er19  1  0.328077  0.975260  0.251230  1
  In  In20  1  0.326315  0.028836  0.046682  1
  In  In21  1  0.827959  0.470368  0.454326  1
  In  In22  1  0.671454  0.973108  0.542788  1
  In  In23  1  0.169833  0.529207  0.961164  1
  In  In24  1  0.538097  0.606568  0.752481  1
  In  In25  1  0.027158  0.914315  0.746861  1
  In  In26  1  0.474563  0.413416  0.253706  1
  In  In27  1  0.973219  0.085656  0.246548  1
  In  In28  1  0.302415  0.124003  0.750596  1
  In  In29  1  0.774580  0.359671  0.750593  1
  In  In30  1  0.708988  0.858845  0.250169  1
  In  In31  1  0.210448  0.640862  0.250614  1
  Sn  Sn32  1  0.667854  0.971612  0.958019  1
  Sn  Sn33  1  0.168773  0.532362  0.536850  1
  Sn  Sn34  1  0.330876  0.030818  0.454409  1
  Sn  Sn35  1  0.831051  0.469621  0.044857  1
