# generated using pymatgen
data_Eu2Er4SbRuO14
_symmetry_space_group_name_H-M   'P 1'
_cell_length_a   6.43910359
_cell_length_b   6.43910336
_cell_length_c   7.49884158
_cell_angle_alpha   90.27065087
_cell_angle_beta   89.72934890
_cell_angle_gamma   108.82260768
_symmetry_Int_Tables_number   1
_chemical_formula_structural   Eu2Er4SbRuO14
_chemical_formula_sum   'Eu2 Er4 Sb1 Ru1 O14'
_cell_volume   294.28517539
_cell_formula_units_Z   1
loop_
 _symmetry_equiv_pos_site_id
 _symmetry_equiv_pos_as_xyz
  1  'x, y, z'
loop_
 _atom_site_type_symbol
 _atom_site_label
 _atom_site_symmetry_multiplicity
 _atom_site_fract_x
 _atom_site_fract_y
 _atom_site_fract_z
 _atom_site_occupancy
  Eu  Eu0  1  0.500000  0.500000  0.500000  1
  Eu  Eu1  1  0.500000  0.500000  0.000000  1
  Er  Er2  1  0.533670  0.000009  0.748854  1
  Er  Er3  1  0.000009  0.533670  0.251146  1
  Er  Er4  1  0.466330  0.999991  0.251146  1
  Er  Er5  1  0.999991  0.466330  0.748854  1
  Sb  Sb6  1  0.000000  0.000000  0.000000  1
  Ru  Ru7  1  0.000000  0.000000  0.500000  1
  O  O8  1  0.681210  0.932462  0.468455  1
  O  O9  1  0.932462  0.681210  0.531545  1
  O  O10  1  0.676998  0.932621  0.029961  1
  O  O11  1  0.932621  0.676998  0.970039  1
  O  O12  1  0.318790  0.067538  0.531545  1
  O  O13  1  0.067538  0.318790  0.468455  1
  O  O14  1  0.323002  0.067379  0.970039  1
  O  O15  1  0.067379  0.323002  0.029961  1
  O  O16  1  0.928258  0.071742  0.748341  1
  O  O17  1  0.071742  0.928258  0.251659  1
  O  O18  1  0.363502  0.636498  0.749961  1
  O  O19  1  0.636498  0.363502  0.250039  1
  O  O20  1  0.639906  0.360094  0.748207  1
  O  O21  1  0.360094  0.639906  0.251793  1
