# generated using pymatgen
data_Dy2Er2Ti3GaIr4
_symmetry_space_group_name_H-M   'P 1'
_cell_length_a   4.31273600
_cell_length_b   6.94072084
_cell_length_c   7.96797376
_cell_angle_alpha   92.86907577
_cell_angle_beta   90.00000000
_cell_angle_gamma   90.00000000
_symmetry_Int_Tables_number   1
_chemical_formula_structural   Dy2Er2Ti3GaIr4
_chemical_formula_sum   'Dy2 Er2 Ti3 Ga1 Ir4'
_cell_volume   238.21034879
_cell_formula_units_Z   1
loop_
 _symmetry_equiv_pos_site_id
 _symmetry_equiv_pos_as_xyz
  1  'x, y, z'
loop_
 _atom_site_type_symbol
 _atom_site_label
 _atom_site_symmetry_multiplicity
 _atom_site_fract_x
 _atom_site_fract_y
 _atom_site_fract_z
 _atom_site_occupancy
  Dy  Dy0  1  0.250000  0.979668  0.315004  1
  Dy  Dy1  1  0.250000  0.469714  0.172004  1
  Er  Er2  1  0.750000  0.029642  0.688220  1
  Er  Er3  1  0.750000  0.513343  0.824871  1
  Ti  Ti4  1  0.250000  0.365296  0.570827  1
  Ti  Ti5  1  0.250000  0.864927  0.938261  1
  Ti  Ti6  1  0.750000  0.634850  0.433012  1
  Ga  Ga7  1  0.750000  0.145678  0.069981  1
  Ir  Ir8  1  0.250000  0.224705  0.873017  1
  Ir  Ir9  1  0.250000  0.726847  0.602889  1
  Ir  Ir10  1  0.750000  0.768631  0.110884  1
  Ir  Ir11  1  0.750000  0.276700  0.401030  1
