# generated using pymatgen
data_Hf10ZrPa3Pt20
_symmetry_space_group_name_H-M   'P 1'
_cell_length_a   8.26492217
_cell_length_b   8.26492385
_cell_length_c   9.71834767
_cell_angle_alpha   90.03945465
_cell_angle_beta   90.03945149
_cell_angle_gamma   107.85046818
_symmetry_Int_Tables_number   1
_chemical_formula_structural   Hf10ZrPa3Pt20
_chemical_formula_sum   'Hf10 Zr1 Pa3 Pt20'
_cell_volume   631.89180797
_cell_formula_units_Z   1
loop_
 _symmetry_equiv_pos_site_id
 _symmetry_equiv_pos_as_xyz
  1  'x, y, z'
loop_
 _atom_site_type_symbol
 _atom_site_label
 _atom_site_symmetry_multiplicity
 _atom_site_fract_x
 _atom_site_fract_y
 _atom_site_fract_z
 _atom_site_occupancy
  Hf  Hf0  1  0.694017  0.306329  0.000577  1
  Hf  Hf1  1  0.306329  0.694017  0.000577  1
  Hf  Hf2  1  0.806483  0.190962  0.498330  1
  Hf  Hf3  1  0.190962  0.806483  0.498330  1
  Hf  Hf4  1  0.999519  0.999519  0.003685  1
  Hf  Hf5  1  0.503281  0.503281  0.498280  1
  Hf  Hf6  1  0.997653  0.504479  0.250704  1
  Hf  Hf7  1  0.998804  0.498071  0.748703  1
  Hf  Hf8  1  0.498071  0.998804  0.748703  1
  Hf  Hf9  1  0.504479  0.997653  0.250704  1
  Zr  Zr10  1  0.816121  0.816121  0.314983  1
  Pa  Pa11  1  0.315355  0.315355  0.186846  1
  Pa  Pa12  1  0.687460  0.687460  0.815395  1
  Pa  Pa13  1  0.184867  0.184867  0.685716  1
  Pt  Pt14  1  0.854204  0.148155  0.208577  1
  Pt  Pt15  1  0.145495  0.850969  0.791963  1
  Pt  Pt16  1  0.646127  0.351869  0.707635  1
  Pt  Pt17  1  0.648402  0.352333  0.292514  1
  Pt  Pt18  1  0.352333  0.648402  0.292514  1
  Pt  Pt19  1  0.351869  0.646127  0.707635  1
  Pt  Pt20  1  0.850969  0.145495  0.791963  1
  Pt  Pt21  1  0.148155  0.854204  0.208577  1
  Pt  Pt22  1  0.937945  0.643564  0.001094  1
  Pt  Pt23  1  0.062735  0.357172  0.999470  1
  Pt  Pt24  1  0.562709  0.855612  0.500847  1
  Pt  Pt25  1  0.142834  0.437300  0.497916  1
  Pt  Pt26  1  0.437300  0.142834  0.497916  1
  Pt  Pt27  1  0.855612  0.562709  0.500847  1
  Pt  Pt28  1  0.357172  0.062735  0.999470  1
  Pt  Pt29  1  0.643564  0.937945  0.001094  1
  Pt  Pt30  1  0.105296  0.105296  0.393183  1
  Pt  Pt31  1  0.893078  0.893078  0.603485  1
  Pt  Pt32  1  0.394214  0.394214  0.894488  1
  Pt  Pt33  1  0.606586  0.606586  0.107283  1
