# generated using pymatgen
data_Sm2HoEr5(MoO6)4
_symmetry_space_group_name_H-M   'P 1'
_cell_length_a   5.43463300
_cell_length_b   7.75672519
_cell_length_c   11.51902900
_cell_angle_alpha   75.47717777
_cell_angle_beta   90.00000000
_cell_angle_gamma   90.00000000
_symmetry_Int_Tables_number   1
_chemical_formula_structural   Sm2HoEr5(MoO6)4
_chemical_formula_sum   'Sm2 Ho1 Er5 Mo4 O24'
_cell_volume   470.06867914
_cell_formula_units_Z   1
loop_
 _symmetry_equiv_pos_site_id
 _symmetry_equiv_pos_as_xyz
  1  'x, y, z'
loop_
 _atom_site_type_symbol
 _atom_site_label
 _atom_site_symmetry_multiplicity
 _atom_site_fract_x
 _atom_site_fract_y
 _atom_site_fract_z
 _atom_site_occupancy
  Sm  Sm0  1  0.681293  0.500000  0.250000  1
  Sm  Sm1  1  0.318394  0.500000  0.750000  1
  Ho  Ho2  1  0.741003  0.000000  0.250000  1
  Er  Er3  1  0.183326  0.201485  0.421442  1
  Er  Er4  1  0.183326  0.798515  0.078558  1
  Er  Er5  1  0.816926  0.798669  0.578850  1
  Er  Er6  1  0.816926  0.201331  0.921150  1
  Er  Er7  1  0.259264  0.000000  0.750000  1
  Mo  Mo8  1  0.254333  0.274901  0.114196  1
  Mo  Mo9  1  0.254333  0.725099  0.385804  1
  Mo  Mo10  1  0.745552  0.725542  0.885579  1
  Mo  Mo11  1  0.745552  0.274458  0.614421  1
  O  O12  1  0.460746  0.208027  0.275727  1
  O  O13  1  0.460746  0.791973  0.224273  1
  O  O14  1  0.538472  0.792685  0.724193  1
  O  O15  1  0.538472  0.207315  0.775807  1
  O  O16  1  0.038865  0.059445  0.102797  1
  O  O17  1  0.038865  0.940555  0.397203  1
  O  O18  1  0.962144  0.940713  0.896594  1
  O  O19  1  0.962144  0.059287  0.603406  1
  O  O20  1  0.986864  0.282264  0.231119  1
  O  O21  1  0.986864  0.717736  0.268881  1
  O  O22  1  0.013207  0.718142  0.768666  1
  O  O23  1  0.013207  0.281858  0.731334  1
  O  O24  1  0.848838  0.359756  0.453741  1
  O  O25  1  0.848838  0.640244  0.046259  1
  O  O26  1  0.150659  0.639590  0.546415  1
  O  O27  1  0.150659  0.360410  0.953585  1
  O  O28  1  0.653094  0.506097  0.614042  1
  O  O29  1  0.653094  0.493903  0.885958  1
  O  O30  1  0.347115  0.493487  0.386298  1
  O  O31  1  0.347115  0.506513  0.113702  1
  O  O32  1  0.467355  0.155850  0.570453  1
  O  O33  1  0.467355  0.844150  0.929547  1
  O  O34  1  0.532525  0.843375  0.429974  1
  O  O35  1  0.532525  0.156625  0.070026  1
