# generated using pymatgen
data_Nd4Al18CrPd5
_symmetry_space_group_name_H-M   'P 1'
_cell_length_a   7.68081738
_cell_length_b   7.68081718
_cell_length_c   9.65801576
_cell_angle_alpha   89.83574149
_cell_angle_beta   89.83574165
_cell_angle_gamma   119.24953697
_symmetry_Int_Tables_number   1
_chemical_formula_structural   Nd4Al18CrPd5
_chemical_formula_sum   'Nd4 Al18 Cr1 Pd5'
_cell_volume   497.11997190
_cell_formula_units_Z   1
loop_
 _symmetry_equiv_pos_site_id
 _symmetry_equiv_pos_as_xyz
  1  'x, y, z'
loop_
 _atom_site_type_symbol
 _atom_site_label
 _atom_site_symmetry_multiplicity
 _atom_site_fract_x
 _atom_site_fract_y
 _atom_site_fract_z
 _atom_site_occupancy
  Nd  Nd0  1  0.994784  0.671737  0.248999  1
  Nd  Nd1  1  0.005216  0.328263  0.751001  1
  Nd  Nd2  1  0.671737  0.994784  0.248999  1
  Nd  Nd3  1  0.328263  0.005216  0.751001  1
  Al  Al4  1  0.130497  0.130497  0.243814  1
  Al  Al5  1  0.869503  0.869503  0.756186  1
  Al  Al6  1  0.003507  0.328484  0.071333  1
  Al  Al7  1  0.996493  0.671516  0.928667  1
  Al  Al8  1  0.996879  0.663945  0.575636  1
  Al  Al9  1  0.336055  0.003121  0.424364  1
  Al  Al10  1  0.003121  0.336055  0.424364  1
  Al  Al11  1  0.663945  0.996879  0.575636  1
  Al  Al12  1  0.671516  0.996493  0.928667  1
  Al  Al13  1  0.328484  0.003507  0.071333  1
  Al  Al14  1  0.334990  0.334990  0.551984  1
  Al  Al15  1  0.665010  0.665010  0.448016  1
  Al  Al16  1  0.670692  0.670692  0.047907  1
  Al  Al17  1  0.329308  0.329308  0.952093  1
  Al  Al18  1  0.340046  0.544970  0.249781  1
  Al  Al19  1  0.659954  0.455030  0.750219  1
  Al  Al20  1  0.544970  0.340046  0.249781  1
  Al  Al21  1  0.455030  0.659954  0.750219  1
  Cr  Cr22  1  0.000000  0.000000  0.000000  1
  Pd  Pd23  1  0.671728  0.328272  0.000000  1
  Pd  Pd24  1  0.328272  0.671728  0.000000  1
  Pd  Pd25  1  0.328687  0.671313  0.500000  1
  Pd  Pd26  1  0.671313  0.328687  0.500000  1
  Pd  Pd27  1  0.000000  0.000000  0.500000  1
