# generated using pymatgen
data_PrNdCu9Pd
_symmetry_space_group_name_H-M   'P 1'
_cell_length_a   4.09406100
_cell_length_b   5.05735200
_cell_length_c   9.09937300
_cell_angle_alpha   90.00000000
_cell_angle_beta   90.00000000
_cell_angle_gamma   90.00000000
_symmetry_Int_Tables_number   1
_chemical_formula_structural   PrNdCu9Pd
_chemical_formula_sum   'Pr1 Nd1 Cu9 Pd1'
_cell_volume   188.40349693
_cell_formula_units_Z   1
loop_
 _symmetry_equiv_pos_site_id
 _symmetry_equiv_pos_as_xyz
  1  'x, y, z'
loop_
 _atom_site_type_symbol
 _atom_site_label
 _atom_site_symmetry_multiplicity
 _atom_site_fract_x
 _atom_site_fract_y
 _atom_site_fract_z
 _atom_site_occupancy
  Pr  Pr0  1  0.000000  0.499926  0.500000  1
  Nd  Nd1  1  0.000000  0.999985  0.000000  1
  Cu  Cu2  1  0.000000  0.999993  0.318845  1
  Cu  Cu3  1  0.000000  0.499960  0.832251  1
  Cu  Cu4  1  0.000000  0.499960  0.167749  1
  Cu  Cu5  1  0.000000  0.999993  0.681155  1
  Cu  Cu6  1  0.500000  0.500073  0.000000  1
  Cu  Cu7  1  0.500000  0.250752  0.242484  1
  Cu  Cu8  1  0.500000  0.749221  0.757505  1
  Cu  Cu9  1  0.500000  0.749221  0.242495  1
  Cu  Cu10  1  0.500000  0.250752  0.757516  1
  Pd  Pd11  1  0.500000  0.999965  0.500000  1
