# generated using pymatgen
data_Tb13Yb2Y5(Cd3Ru)2
_symmetry_space_group_name_H-M   'P 1'
_cell_length_a   9.67481300
_cell_length_b   9.67481298
_cell_length_c   9.85581200
_cell_angle_alpha   90.00000000
_cell_angle_beta   90.00000000
_cell_angle_gamma   120.00186921
_symmetry_Int_Tables_number   1
_chemical_formula_structural   Tb13Yb2Y5(Cd3Ru)2
_chemical_formula_sum   'Tb13 Yb2 Y5 Cd6 Ru2'
_cell_volume   798.91397857
_cell_formula_units_Z   1
loop_
 _symmetry_equiv_pos_site_id
 _symmetry_equiv_pos_as_xyz
  1  'x, y, z'
loop_
 _atom_site_type_symbol
 _atom_site_label
 _atom_site_symmetry_multiplicity
 _atom_site_fract_x
 _atom_site_fract_y
 _atom_site_fract_z
 _atom_site_occupancy
  Tb  Tb0  1  0.210732  0.789268  0.439750  1
  Tb  Tb1  1  0.210738  0.421462  0.439751  1
  Tb  Tb2  1  0.578538  0.789262  0.439751  1
  Tb  Tb3  1  0.789273  0.210727  0.560261  1
  Tb  Tb4  1  0.789241  0.578510  0.560239  1
  Tb  Tb5  1  0.421490  0.210759  0.560239  1
  Tb  Tb6  1  0.789273  0.210727  0.939739  1
  Tb  Tb7  1  0.789241  0.578510  0.939761  1
  Tb  Tb8  1  0.421490  0.210759  0.939761  1
  Tb  Tb9  1  0.210732  0.789268  0.060250  1
  Tb  Tb10  1  0.210738  0.421462  0.060249  1
  Tb  Tb11  1  0.578538  0.789262  0.060249  1
  Tb  Tb12  1  0.541970  0.458030  0.250000  1
  Yb  Yb13  1  0.000006  0.999994  0.500014  1
  Yb  Yb14  1  0.000006  0.999994  0.999986  1
  Y  Y15  1  0.542034  0.084002  0.250000  1
  Y  Y16  1  0.915998  0.457966  0.250000  1
  Y  Y17  1  0.458009  0.541991  0.750000  1
  Y  Y18  1  0.458007  0.916027  0.750000  1
  Y  Y19  1  0.083973  0.541993  0.750000  1
  Cd  Cd20  1  0.884675  0.115325  0.250000  1
  Cd  Cd21  1  0.884708  0.769391  0.250000  1
  Cd  Cd22  1  0.230609  0.115292  0.250000  1
  Cd  Cd23  1  0.115327  0.884673  0.750000  1
  Cd  Cd24  1  0.115314  0.230649  0.750000  1
  Cd  Cd25  1  0.769351  0.884686  0.750000  1
  Ru  Ru26  1  0.333337  0.666663  0.250000  1
  Ru  Ru27  1  0.666652  0.333348  0.750000  1
