# generated using pymatgen
data_La15Er(CdCo)4
_symmetry_space_group_name_H-M   'P 1'
_cell_length_a   9.91567210
_cell_length_b   9.98290015
_cell_length_c   9.91567275
_cell_angle_alpha   59.77546820
_cell_angle_beta   60.91062616
_cell_angle_gamma   59.77547409
_symmetry_Int_Tables_number   1
_chemical_formula_structural   La15Er(CdCo)4
_chemical_formula_sum   'La15 Er1 Cd4 Co4'
_cell_volume   696.27837944
_cell_formula_units_Z   1
loop_
 _symmetry_equiv_pos_site_id
 _symmetry_equiv_pos_as_xyz
  1  'x, y, z'
loop_
 _atom_site_type_symbol
 _atom_site_label
 _atom_site_symmetry_multiplicity
 _atom_site_fract_x
 _atom_site_fract_y
 _atom_site_fract_z
 _atom_site_occupancy
  La  La0  1  0.433269  0.440264  0.059587  1
  La  La1  1  0.595041  0.597378  0.595041  1
  La  La2  1  0.189844  0.808596  0.810811  1
  La  La3  1  0.059587  0.066880  0.433269  1
  La  La4  1  0.433269  0.066880  0.059587  1
  La  La5  1  0.810575  0.189425  0.810575  1
  La  La6  1  0.438434  0.061566  0.438434  1
  La  La7  1  0.595041  0.212540  0.595041  1
  La  La8  1  0.810811  0.808596  0.189844  1
  La  La9  1  0.212153  0.592510  0.602829  1
  La  La10  1  0.810811  0.190749  0.189844  1
  La  La11  1  0.059587  0.440264  0.433269  1
  La  La12  1  0.193104  0.806896  0.193104  1
  La  La13  1  0.602829  0.592510  0.212153  1
  La  La14  1  0.189844  0.190749  0.810811  1
  Er  Er15  1  0.057640  0.442360  0.057640  1
  Cd  Cd16  1  0.829920  0.829056  0.511967  1
  Cd  Cd17  1  0.830247  0.826200  0.830247  1
  Cd  Cd18  1  0.511967  0.829056  0.829920  1
  Cd  Cd19  1  0.830247  0.513305  0.830247  1
  Co  Co20  1  0.390516  0.388657  0.390516  1
  Co  Co21  1  0.832784  0.387625  0.391967  1
  Co  Co22  1  0.390516  0.830312  0.390516  1
  Co  Co23  1  0.391967  0.387625  0.832784  1
