# generated using pymatgen
data_Yb6Tm3LuSn8
_symmetry_space_group_name_H-M   'P 1'
_cell_length_a   7.79239384
_cell_length_b   8.38854247
_cell_length_c   15.92880026
_cell_angle_alpha   90.00362041
_cell_angle_beta   90.01833993
_cell_angle_gamma   90.15441348
_symmetry_Int_Tables_number   1
_chemical_formula_structural   Yb6Tm3LuSn8
_chemical_formula_sum   'Yb12 Tm6 Lu2 Sn16'
_cell_volume   1041.21128880
_cell_formula_units_Z   2
loop_
 _symmetry_equiv_pos_site_id
 _symmetry_equiv_pos_as_xyz
  1  'x, y, z'
loop_
 _atom_site_type_symbol
 _atom_site_label
 _atom_site_symmetry_multiplicity
 _atom_site_fract_x
 _atom_site_fract_y
 _atom_site_fract_z
 _atom_site_occupancy
  Yb  Yb0  1  0.177101  0.334224  0.620572  1
  Yb  Yb1  1  0.501223  0.686683  0.593336  1
  Yb  Yb2  1  0.001559  0.814434  0.909069  1
  Yb  Yb3  1  0.495565  0.312489  0.092117  1
  Yb  Yb4  1  0.998460  0.188221  0.407003  1
  Yb  Yb5  1  0.496271  0.312813  0.407885  1
  Yb  Yb6  1  0.997353  0.186998  0.092340  1
  Yb  Yb7  1  0.501413  0.686847  0.907607  1
  Yb  Yb8  1  0.003209  0.813425  0.591603  1
  Yb  Yb9  1  0.333885  0.991228  0.749571  1
  Yb  Yb10  1  0.164797  0.488914  0.249311  1
  Yb  Yb11  1  0.666297  0.010373  0.250493  1
  Tm  Tm12  1  0.672762  0.163866  0.622493  1
  Tm  Tm13  1  0.173334  0.333997  0.878780  1
  Tm  Tm14  1  0.326750  0.834361  0.121631  1
  Tm  Tm15  1  0.827946  0.664171  0.377588  1
  Tm  Tm16  1  0.326655  0.834889  0.377269  1
  Tm  Tm17  1  0.826855  0.664622  0.121176  1
  Lu  Lu18  1  0.672265  0.163432  0.879223  1
  Lu  Lu19  1  0.838230  0.507952  0.748738  1
  Sn  Sn20  1  0.675543  0.961812  0.459616  1
  Sn  Sn21  1  0.170873  0.536728  0.040206  1
  Sn  Sn22  1  0.328217  0.036811  0.959422  1
  Sn  Sn23  1  0.823719  0.466525  0.542946  1
  Sn  Sn24  1  0.335674  0.034058  0.540220  1
  Sn  Sn25  1  0.827042  0.465217  0.955606  1
  Sn  Sn26  1  0.671744  0.962969  0.040851  1
  Sn  Sn27  1  0.168068  0.538786  0.456851  1
  Sn  Sn28  1  0.477778  0.380529  0.754117  1
  Sn  Sn29  1  0.967096  0.129054  0.751419  1
  Sn  Sn30  1  0.529279  0.629590  0.249483  1
  Sn  Sn31  1  0.029159  0.870458  0.248315  1
  Sn  Sn32  1  0.719215  0.865383  0.751560  1
  Sn  Sn33  1  0.210249  0.628140  0.753373  1
  Sn  Sn34  1  0.283326  0.126275  0.249203  1
  Sn  Sn35  1  0.781089  0.373728  0.249007  1
