# generated using pymatgen
data_Cs2VAuS4
_symmetry_space_group_name_H-M   'P 1'
_cell_length_a   14.38821737
_cell_length_b   12.78346017
_cell_length_c   7.74893843
_cell_angle_alpha   85.23942781
_cell_angle_beta   62.30106915
_cell_angle_gamma   32.45950786
_symmetry_Int_Tables_number   1
_chemical_formula_structural   Cs2VAuS4
_chemical_formula_sum   'Cs4 V2 Au2 S8'
_cell_volume   514.28443120
_cell_formula_units_Z   2
loop_
 _symmetry_equiv_pos_site_id
 _symmetry_equiv_pos_as_xyz
  1  'x, y, z'
loop_
 _atom_site_type_symbol
 _atom_site_label
 _atom_site_symmetry_multiplicity
 _atom_site_fract_x
 _atom_site_fract_y
 _atom_site_fract_z
 _atom_site_occupancy
  Cs  Cs0  1  0.678362  0.678362  0.321638  1
  Cs  Cs1  1  0.321638  0.321638  0.678362  1
  Cs  Cs2  1  0.928362  0.928362  0.571638  1
  Cs  Cs3  1  0.571638  0.571638  0.928362  1
  V  V4  1  0.750000  0.750000  0.750000  1
  V  V5  1  0.500000  0.500000  0.500000  1
  Au  Au6  1  0.000000  0.000000  0.000000  1
  Au  Au7  1  0.250000  0.250000  0.250000  1
  S  S8  1  0.399171  0.996633  0.918289  1
  S  S9  1  0.685909  0.918289  0.996633  1
  S  S10  1  0.918289  0.685909  0.399171  1
  S  S11  1  0.996633  0.399171  0.685909  1
  S  S12  1  0.253367  0.850829  0.564091  1
  S  S13  1  0.564091  0.331711  0.253367  1
  S  S14  1  0.331711  0.564091  0.850829  1
  S  S15  1  0.850829  0.253367  0.331711  1
