# generated using pymatgen
data_La5Pr5Bi6AsBr
_symmetry_space_group_name_H-M   'P 1'
_cell_length_a   9.73113283
_cell_length_b   9.73113321
_cell_length_c   6.91196700
_cell_angle_alpha   89.99905485
_cell_angle_beta   89.99905682
_cell_angle_gamma   120.04745450
_symmetry_Int_Tables_number   1
_chemical_formula_structural   La5Pr5Bi6AsBr
_chemical_formula_sum   'La5 Pr5 Bi6 As1 Br1'
_cell_volume   566.56694780
_cell_formula_units_Z   1
loop_
 _symmetry_equiv_pos_site_id
 _symmetry_equiv_pos_as_xyz
  1  'x, y, z'
loop_
 _atom_site_type_symbol
 _atom_site_label
 _atom_site_symmetry_multiplicity
 _atom_site_fract_x
 _atom_site_fract_y
 _atom_site_fract_z
 _atom_site_occupancy
  La  La0  1  0.256941  0.000251  0.737636  1
  La  La1  1  0.742944  0.000343  0.262192  1
  La  La2  1  0.000251  0.256941  0.737636  1
  La  La3  1  0.000343  0.742944  0.262192  1
  La  La4  1  0.743175  0.743175  0.737853  1
  Pr  Pr5  1  0.257554  0.257554  0.262521  1
  Pr  Pr6  1  0.333114  0.666308  0.499699  1
  Pr  Pr7  1  0.666308  0.333114  0.499699  1
  Pr  Pr8  1  0.666360  0.333145  0.000276  1
  Pr  Pr9  1  0.333145  0.666360  0.000276  1
  Bi  Bi10  1  0.608500  0.999932  0.751063  1
  Bi  Bi11  1  0.391279  0.000646  0.248895  1
  Bi  Bi12  1  0.999932  0.608500  0.751063  1
  Bi  Bi13  1  0.000646  0.391279  0.248895  1
  Bi  Bi14  1  0.391405  0.391405  0.750723  1
  Bi  Bi15  1  0.607579  0.607579  0.249006  1
  As  As16  1  0.000129  0.000129  0.499923  1
  Br  Br17  1  0.000394  0.000394  0.000453  1
