# generated using pymatgen
data_La3Ce3Sm4(Ga2Ru3)2
_symmetry_space_group_name_H-M   'P 1'
_cell_length_a   8.58144844
_cell_length_b   8.58144743
_cell_length_c   8.58144844
_cell_angle_alpha   110.32842841
_cell_angle_beta   110.32842790
_cell_angle_gamma   110.32842477
_symmetry_Int_Tables_number   1
_chemical_formula_structural   La3Ce3Sm4(Ga2Ru3)2
_chemical_formula_sum   'La3 Ce3 Sm4 Ga4 Ru6'
_cell_volume   470.40238680
_cell_formula_units_Z   1
loop_
 _symmetry_equiv_pos_site_id
 _symmetry_equiv_pos_as_xyz
  1  'x, y, z'
loop_
 _atom_site_type_symbol
 _atom_site_label
 _atom_site_symmetry_multiplicity
 _atom_site_fract_x
 _atom_site_fract_y
 _atom_site_fract_z
 _atom_site_occupancy
  La  La0  1  0.721086  0.503282  0.992681  1
  La  La1  1  0.992681  0.721086  0.503282  1
  La  La2  1  0.503282  0.992681  0.721086  1
  Ce  Ce3  1  0.248099  0.199048  0.947365  1
  Ce  Ce4  1  0.947365  0.248099  0.199048  1
  Ce  Ce5  1  0.199048  0.947365  0.248099  1
  Sm  Sm6  1  0.775911  0.775911  0.775911  1
  Sm  Sm7  1  0.309822  0.561688  0.754683  1
  Sm  Sm8  1  0.754683  0.309822  0.561688  1
  Sm  Sm9  1  0.561688  0.754683  0.309822  1
  Ga  Ga10  1  0.405199  0.405199  0.405199  1
  Ga  Ga11  1  0.097811  0.498089  0.007486  1
  Ga  Ga12  1  0.007486  0.097811  0.498089  1
  Ga  Ga13  1  0.498089  0.007486  0.097811  1
  Ru  Ru14  1  0.912425  0.119818  0.755365  1
  Ru  Ru15  1  0.755365  0.912425  0.119818  1
  Ru  Ru16  1  0.119818  0.755365  0.912425  1
  Ru  Ru17  1  0.224444  0.594914  0.370783  1
  Ru  Ru18  1  0.370783  0.224444  0.594914  1
  Ru  Ru19  1  0.594914  0.370783  0.224444  1
