# generated using pymatgen
data_KInGa2Te5
_symmetry_space_group_name_H-M   'P 1'
_cell_length_a   11.04413955
_cell_length_b   11.11420166
_cell_length_c   11.04277916
_cell_angle_alpha   91.23658174
_cell_angle_beta   90.64422507
_cell_angle_gamma   91.07482278
_symmetry_Int_Tables_number   1
_chemical_formula_structural   KInGa2Te5
_chemical_formula_sum   'K4 In4 Ga8 Te20'
_cell_volume   1354.81962646
_cell_formula_units_Z   4
loop_
 _symmetry_equiv_pos_site_id
 _symmetry_equiv_pos_as_xyz
  1  'x, y, z'
loop_
 _atom_site_type_symbol
 _atom_site_label
 _atom_site_symmetry_multiplicity
 _atom_site_fract_x
 _atom_site_fract_y
 _atom_site_fract_z
 _atom_site_occupancy
  K  K0  1  0.248779  0.000849  0.749357  1
  K  K1  1  0.747215  0.248566  0.998506  1
  K  K2  1  0.000418  0.751060  0.249273  1
  K  K3  1  0.499645  0.497824  0.499051  1
  In  In4  1  0.840885  0.885970  0.572035  1
  In  In5  1  0.571373  0.841945  0.885558  1
  In  In6  1  0.881982  0.574467  0.840585  1
  In  In7  1  0.164357  0.424083  0.120965  1
  Ga  Ga8  1  0.117687  0.164139  0.425851  1
  Ga  Ga9  1  0.427310  0.115178  0.170383  1
  Ga  Ga10  1  0.742486  0.159717  0.348798  1
  Ga  Ga11  1  0.350351  0.743973  0.162750  1
  Ga  Ga12  1  0.162112  0.350154  0.739555  1
  Ga  Ga13  1  0.259055  0.647959  0.835114  1
  Ga  Ga14  1  0.838315  0.256751  0.647634  1
  Ga  Ga15  1  0.649748  0.837141  0.256377  1
  Te  Te16  1  0.190011  0.807025  0.998708  1
  Te  Te17  1  0.810804  0.998067  0.187279  1
  Te  Te18  1  0.183782  0.169410  0.185294  1
  Te  Te19  1  0.829729  0.831786  0.829830  1
  Te  Te20  1  0.999160  0.191317  0.809747  1
  Te  Te21  1  0.922121  0.496882  0.080572  1
  Te  Te22  1  0.079809  0.936951  0.491795  1
  Te  Te23  1  0.488907  0.078643  0.939706  1
  Te  Te24  1  0.738150  0.699095  0.425023  1
  Te  Te25  1  0.426557  0.740932  0.695942  1
  Te  Te26  1  0.697887  0.424805  0.735872  1
  Te  Te27  1  0.262088  0.578487  0.305345  1
  Te  Te28  1  0.293762  0.259671  0.564228  1
  Te  Te29  1  0.567772  0.292162  0.261299  1
  Te  Te30  1  0.677436  0.082524  0.571779  1
  Te  Te31  1  0.571552  0.677547  0.081575  1
  Te  Te32  1  0.081838  0.571590  0.677681  1
  Te  Te33  1  0.321800  0.426733  0.915272  1
  Te  Te34  1  0.926096  0.311792  0.424789  1
  Te  Te35  1  0.429025  0.924805  0.316472  1
