# generated using pymatgen
data_Bi7SbF30
_symmetry_space_group_name_H-M   'P 1'
_cell_length_a   8.65061206
_cell_length_b   8.65061317
_cell_length_c   8.65186957
_cell_angle_alpha   79.64234782
_cell_angle_beta   79.64234757
_cell_angle_gamma   100.33393119
_symmetry_Int_Tables_number   1
_chemical_formula_structural   Bi7SbF30
_chemical_formula_sum   'Bi7 Sb1 F30'
_cell_volume   611.33918083
_cell_formula_units_Z   1
loop_
 _symmetry_equiv_pos_site_id
 _symmetry_equiv_pos_as_xyz
  1  'x, y, z'
loop_
 _atom_site_type_symbol
 _atom_site_label
 _atom_site_symmetry_multiplicity
 _atom_site_fract_x
 _atom_site_fract_y
 _atom_site_fract_z
 _atom_site_occupancy
  Bi  Bi0  1  0.249919  0.750081  0.750000  1
  Bi  Bi1  1  0.749725  0.672291  0.672137  1
  Bi  Bi2  1  0.327709  0.250275  0.827863  1
  Bi  Bi3  1  0.250284  0.328139  0.328344  1
  Bi  Bi4  1  0.671861  0.749716  0.171656  1
  Bi  Bi5  1  0.172226  0.827774  0.250000  1
  Bi  Bi6  1  0.828237  0.171763  0.750000  1
  Sb  Sb7  1  0.750158  0.249842  0.250000  1
  F  F8  1  0.473422  0.526578  0.250000  1
  F  F9  1  0.750597  0.972753  0.972380  1
  F  F10  1  0.027247  0.249403  0.527620  1
  F  F11  1  0.249477  0.027202  0.027330  1
  F  F12  1  0.972798  0.750523  0.472670  1
  F  F13  1  0.526380  0.473620  0.750000  1
  F  F14  1  0.210014  0.504650  0.771753  1
  F  F15  1  0.229742  0.711226  0.995206  1
  F  F16  1  0.004449  0.729308  0.788990  1
  F  F17  1  0.730496  0.020747  0.284505  1
  F  F18  1  0.715831  0.230712  0.479042  1
  F  F19  1  0.520838  0.214977  0.270405  1
  F  F20  1  0.785024  0.479162  0.229595  1
  F  F21  1  0.769288  0.284169  0.020958  1
  F  F22  1  0.979253  0.269504  0.215495  1
  F  F23  1  0.270692  0.995551  0.711010  1
  F  F24  1  0.288774  0.770258  0.504794  1
  F  F25  1  0.495350  0.789986  0.728247  1
  F  F26  1  0.553560  0.155315  0.808527  1
  F  F27  1  0.192212  0.052802  0.345943  1
  F  F28  1  0.654371  0.690407  0.446826  1
  F  F29  1  0.689108  0.652975  0.947097  1
  F  F30  1  0.052449  0.190937  0.847201  1
  F  F31  1  0.153877  0.552929  0.309895  1
  F  F32  1  0.447071  0.846123  0.190105  1
  F  F33  1  0.809063  0.947551  0.652799  1
  F  F34  1  0.347025  0.310892  0.552903  1
  F  F35  1  0.309593  0.345629  0.053174  1
  F  F36  1  0.947198  0.807788  0.154057  1
  F  F37  1  0.844685  0.446440  0.691473  1
