# generated using pymatgen
data_DyTmB6Ir
_symmetry_space_group_name_H-M   'P 1'
_cell_length_a   3.62727900
_cell_length_b   9.14947900
_cell_length_c   11.50581700
_cell_angle_alpha   90.00000000
_cell_angle_beta   90.00000000
_cell_angle_gamma   90.00000000
_symmetry_Int_Tables_number   1
_chemical_formula_structural   DyTmB6Ir
_chemical_formula_sum   'Dy4 Tm4 B24 Ir4'
_cell_volume   381.85175286
_cell_formula_units_Z   4
loop_
 _symmetry_equiv_pos_site_id
 _symmetry_equiv_pos_as_xyz
  1  'x, y, z'
loop_
 _atom_site_type_symbol
 _atom_site_label
 _atom_site_symmetry_multiplicity
 _atom_site_fract_x
 _atom_site_fract_y
 _atom_site_fract_z
 _atom_site_occupancy
  Dy  Dy0  1  0.000000  0.321297  0.413423  1
  Dy  Dy1  1  0.000000  0.678703  0.586577  1
  Dy  Dy2  1  0.000000  0.821297  0.086577  1
  Dy  Dy3  1  0.000000  0.178703  0.913423  1
  Tm  Tm4  1  0.000000  0.944064  0.374253  1
  Tm  Tm5  1  0.000000  0.055936  0.625747  1
  Tm  Tm6  1  0.000000  0.444064  0.125747  1
  Tm  Tm7  1  0.000000  0.555936  0.874253  1
  B  B8  1  0.500000  0.553899  0.433899  1
  B  B9  1  0.500000  0.446101  0.566101  1
  B  B10  1  0.500000  0.053899  0.066101  1
  B  B11  1  0.500000  0.946101  0.933899  1
  B  B12  1  0.500000  0.750374  0.420391  1
  B  B13  1  0.500000  0.249626  0.579609  1
  B  B14  1  0.500000  0.250374  0.079609  1
  B  B15  1  0.500000  0.749626  0.920391  1
  B  B16  1  0.500000  0.793251  0.265086  1
  B  B17  1  0.500000  0.206749  0.734914  1
  B  B18  1  0.500000  0.293251  0.234914  1
  B  B19  1  0.500000  0.706749  0.765086  1
  B  B20  1  0.500000  0.631297  0.183610  1
  B  B21  1  0.500000  0.368703  0.816390  1
  B  B22  1  0.500000  0.131297  0.316390  1
  B  B23  1  0.500000  0.868703  0.683610  1
  B  B24  1  0.500000  0.981753  0.213629  1
  B  B25  1  0.500000  0.018247  0.786371  1
  B  B26  1  0.500000  0.481753  0.286371  1
  B  B27  1  0.500000  0.518247  0.713629  1
  B  B28  1  0.500000  0.607155  0.029193  1
  B  B29  1  0.500000  0.392845  0.970807  1
  B  B30  1  0.500000  0.107155  0.470807  1
  B  B31  1  0.500000  0.892845  0.529193  1
  Ir  Ir32  1  0.000000  0.638762  0.320441  1
  Ir  Ir33  1  0.000000  0.361238  0.679559  1
  Ir  Ir34  1  0.000000  0.138762  0.179559  1
  Ir  Ir35  1  0.000000  0.861238  0.820441  1
