# generated using pymatgen
data_Tm3ThCdFe
_symmetry_space_group_name_H-M   'P 1'
_cell_length_a   9.46415145
_cell_length_b   9.46415189
_cell_length_c   9.46415200
_cell_angle_alpha   60.00000661
_cell_angle_beta   60.00000507
_cell_angle_gamma   60.00000089
_symmetry_Int_Tables_number   1
_chemical_formula_structural   Tm3ThCdFe
_chemical_formula_sum   'Tm12 Th4 Cd4 Fe4'
_cell_volume   599.41848729
_cell_formula_units_Z   4
loop_
 _symmetry_equiv_pos_site_id
 _symmetry_equiv_pos_as_xyz
  1  'x, y, z'
loop_
 _atom_site_type_symbol
 _atom_site_label
 _atom_site_symmetry_multiplicity
 _atom_site_fract_x
 _atom_site_fract_y
 _atom_site_fract_z
 _atom_site_occupancy
  Tm  Tm0  1  0.813057  0.186943  0.186943  1
  Tm  Tm1  1  0.186943  0.813057  0.813057  1
  Tm  Tm2  1  0.186943  0.813057  0.186943  1
  Tm  Tm3  1  0.813057  0.186943  0.813057  1
  Tm  Tm4  1  0.186943  0.186943  0.813057  1
  Tm  Tm5  1  0.813057  0.813057  0.186943  1
  Tm  Tm6  1  0.936792  0.563208  0.563208  1
  Tm  Tm7  1  0.563208  0.936792  0.936792  1
  Tm  Tm8  1  0.563208  0.936792  0.563208  1
  Tm  Tm9  1  0.936792  0.563208  0.936792  1
  Tm  Tm10  1  0.563208  0.563208  0.936792  1
  Tm  Tm11  1  0.936792  0.936792  0.563208  1
  Th  Th12  1  0.344793  0.344793  0.344793  1
  Th  Th13  1  0.344793  0.344793  0.965623  1
  Th  Th14  1  0.344793  0.965623  0.344793  1
  Th  Th15  1  0.965623  0.344793  0.344793  1
  Cd  Cd16  1  0.581180  0.581180  0.581180  1
  Cd  Cd17  1  0.581180  0.581180  0.256460  1
  Cd  Cd18  1  0.581180  0.256460  0.581180  1
  Cd  Cd19  1  0.256460  0.581180  0.581180  1
  Fe  Fe20  1  0.143372  0.143372  0.143372  1
  Fe  Fe21  1  0.143372  0.143372  0.569885  1
  Fe  Fe22  1  0.143372  0.569885  0.143372  1
  Fe  Fe23  1  0.569885  0.143372  0.143372  1
