# generated using pymatgen
data_Ce3U3Sb8(PtRh)3
_symmetry_space_group_name_H-M   'P 1'
_cell_length_a   8.44390894
_cell_length_b   8.44390879
_cell_length_c   8.49283315
_cell_angle_alpha   109.06547701
_cell_angle_beta   110.01206973
_cell_angle_gamma   109.10243229
_symmetry_Int_Tables_number   1
_chemical_formula_structural   Ce3U3Sb8(PtRh)3
_chemical_formula_sum   'Ce3 U3 Sb8 Pt3 Rh3'
_cell_volume   467.45019744
_cell_formula_units_Z   1
loop_
 _symmetry_equiv_pos_site_id
 _symmetry_equiv_pos_as_xyz
  1  'x, y, z'
loop_
 _atom_site_type_symbol
 _atom_site_label
 _atom_site_symmetry_multiplicity
 _atom_site_fract_x
 _atom_site_fract_y
 _atom_site_fract_z
 _atom_site_occupancy
  Ce  Ce0  1  0.374111  0.251477  0.626507  1
  Ce  Ce1  1  0.124971  0.747604  0.873493  1
  Ce  Ce2  1  0.624207  0.374207  0.250000  1
  U  U3  1  0.882377  0.132377  0.750000  1
  U  U4  1  0.254093  0.625423  0.382865  1
  U  U5  1  0.742558  0.871228  0.117135  1
  Sb  Sb6  1  0.493087  0.002562  0.828719  1
  Sb  Sb7  1  0.826186  0.501267  0.999883  1
  Sb  Sb8  1  0.001382  0.826302  0.500117  1
  Sb  Sb9  1  0.673841  0.664366  0.671281  1
  Sb  Sb10  1  0.333466  0.502839  0.999651  1
  Sb  Sb11  1  0.499237  0.005129  0.326908  1
  Sb  Sb12  1  0.003188  0.333816  0.500349  1
  Sb  Sb13  1  0.178222  0.172329  0.173092  1
  Pt  Pt14  1  0.879004  0.244151  0.115488  1
  Pt  Pt15  1  0.628663  0.763516  0.384512  1
  Pt  Pt16  1  0.121549  0.871549  0.250000  1
  Rh  Rh17  1  0.382660  0.632660  0.750000  1
  Rh  Rh18  1  0.216470  0.121889  0.861158  1
  Rh  Rh19  1  0.760731  0.355310  0.638842  1
