# generated using pymatgen
data_Zr3Ti3CoTe2
_symmetry_space_group_name_H-M   'P 1'
_cell_length_a   3.62079900
_cell_length_b   7.47006024
_cell_length_c   7.47006100
_cell_angle_alpha   119.99999896
_cell_angle_beta   90.00000000
_cell_angle_gamma   90.00000000
_symmetry_Int_Tables_number   1
_chemical_formula_structural   Zr3Ti3CoTe2
_chemical_formula_sum   'Zr3 Ti3 Co1 Te2'
_cell_volume   174.97794229
_cell_formula_units_Z   1
loop_
 _symmetry_equiv_pos_site_id
 _symmetry_equiv_pos_as_xyz
  1  'x, y, z'
loop_
 _atom_site_type_symbol
 _atom_site_label
 _atom_site_symmetry_multiplicity
 _atom_site_fract_x
 _atom_site_fract_y
 _atom_site_fract_z
 _atom_site_occupancy
  Zr  Zr0  1  0.000000  0.395922  0.395922  1
  Zr  Zr1  1  0.000000  0.000000  0.604078  1
  Zr  Zr2  1  0.000000  0.604078  0.000000  1
  Ti  Ti3  1  0.500000  0.769608  0.769608  1
  Ti  Ti4  1  0.500000  0.000000  0.230392  1
  Ti  Ti5  1  0.500000  0.230392  0.000000  1
  Co  Co6  1  0.000000  0.000000  0.000000  1
  Te  Te7  1  0.500000  0.666667  0.333333  1
  Te  Te8  1  0.500000  0.333333  0.666667  1
