# generated using pymatgen
data_Rb6LuSe4
_symmetry_space_group_name_H-M   'P 1'
_cell_length_a   11.21237200
_cell_length_b   11.21237064
_cell_length_c   8.38048700
_cell_angle_alpha   90.00000000
_cell_angle_beta   90.00000000
_cell_angle_gamma   119.99999810
_symmetry_Int_Tables_number   1
_chemical_formula_structural   Rb6LuSe4
_chemical_formula_sum   'Rb12 Lu2 Se8'
_cell_volume   912.42009299
_cell_formula_units_Z   2
loop_
 _symmetry_equiv_pos_site_id
 _symmetry_equiv_pos_as_xyz
  1  'x, y, z'
loop_
 _atom_site_type_symbol
 _atom_site_label
 _atom_site_symmetry_multiplicity
 _atom_site_fract_x
 _atom_site_fract_y
 _atom_site_fract_z
 _atom_site_occupancy
  Rb  Rb0  1  0.132318  0.867682  0.543675  1
  Rb  Rb1  1  0.264634  0.132318  0.043675  1
  Rb  Rb2  1  0.867682  0.735366  0.043675  1
  Rb  Rb3  1  0.132318  0.264634  0.543675  1
  Rb  Rb4  1  0.735366  0.867682  0.543675  1
  Rb  Rb5  1  0.867682  0.132318  0.043675  1
  Rb  Rb6  1  0.531999  0.468001  0.362283  1
  Rb  Rb7  1  0.063999  0.531999  0.862283  1
  Rb  Rb8  1  0.468001  0.936001  0.862283  1
  Rb  Rb9  1  0.531999  0.063999  0.362283  1
  Rb  Rb10  1  0.936001  0.468001  0.362283  1
  Rb  Rb11  1  0.468001  0.531999  0.862283  1
  Lu  Lu12  1  0.333333  0.666667  0.257897  1
  Lu  Lu13  1  0.666667  0.333333  0.757897  1
  Se  Se14  1  0.333333  0.666667  0.578011  1
  Se  Se15  1  0.666667  0.333333  0.078011  1
  Se  Se16  1  0.202769  0.797231  0.151973  1
  Se  Se17  1  0.405539  0.202769  0.651973  1
  Se  Se18  1  0.797231  0.594461  0.651973  1
  Se  Se19  1  0.202769  0.405539  0.151973  1
  Se  Se20  1  0.594461  0.797231  0.151973  1
  Se  Se21  1  0.797231  0.202769  0.651973  1
