# generated using pymatgen
data_TbY3Ga18(Co2Pd)2
_symmetry_space_group_name_H-M   'P 1'
_cell_length_a   7.48896500
_cell_length_b   7.48896296
_cell_length_c   9.45145800
_cell_angle_alpha   90.00000000
_cell_angle_beta   90.00000000
_cell_angle_gamma   119.53801161
_symmetry_Int_Tables_number   1
_chemical_formula_structural   TbY3Ga18(Co2Pd)2
_chemical_formula_sum   'Tb1 Y3 Ga18 Co4 Pd2'
_cell_volume   461.18580359
_cell_formula_units_Z   1
loop_
 _symmetry_equiv_pos_site_id
 _symmetry_equiv_pos_as_xyz
  1  'x, y, z'
loop_
 _atom_site_type_symbol
 _atom_site_label
 _atom_site_symmetry_multiplicity
 _atom_site_fract_x
 _atom_site_fract_y
 _atom_site_fract_z
 _atom_site_occupancy
  Tb  Tb0  1  0.677102  0.996702  0.750000  1
  Y  Y1  1  0.322785  0.003318  0.250000  1
  Y  Y2  1  0.996721  0.677115  0.750000  1
  Y  Y3  1  0.003355  0.322906  0.250000  1
  Ga  Ga4  1  0.000901  0.654512  0.075237  1
  Ga  Ga5  1  0.654484  0.000860  0.424784  1
  Ga  Ga6  1  0.000901  0.654512  0.424763  1
  Ga  Ga7  1  0.999133  0.345519  0.924809  1
  Ga  Ga8  1  0.654484  0.000860  0.075216  1
  Ga  Ga9  1  0.345480  0.999115  0.924773  1
  Ga  Ga10  1  0.656610  0.656595  0.563127  1
  Ga  Ga11  1  0.343397  0.343395  0.063135  1
  Ga  Ga12  1  0.656610  0.656595  0.936873  1
  Ga  Ga13  1  0.343397  0.343395  0.436865  1
  Ga  Ga14  1  0.142230  0.142200  0.750000  1
  Ga  Ga15  1  0.857839  0.857789  0.250000  1
  Ga  Ga16  1  0.665607  0.443339  0.250000  1
  Ga  Ga17  1  0.334443  0.556711  0.750000  1
  Ga  Ga18  1  0.443270  0.665542  0.250000  1
  Ga  Ga19  1  0.556659  0.334401  0.750000  1
  Ga  Ga20  1  0.345480  0.999115  0.575227  1
  Ga  Ga21  1  0.999133  0.345519  0.575191  1
  Co  Co22  1  0.670671  0.329327  0.000032  1
  Co  Co23  1  0.329337  0.670681  0.499984  1
  Co  Co24  1  0.329337  0.670681  0.000016  1
  Co  Co25  1  0.670671  0.329327  0.499968  1
  Pd  Pd26  1  0.999981  0.999985  0.999991  1
  Pd  Pd27  1  0.999981  0.999985  0.500009  1
