# generated using pymatgen
data_Pr4HgRu
_symmetry_space_group_name_H-M   'P 1'
_cell_length_a   9.97034110
_cell_length_b   9.97034114
_cell_length_c   9.97034200
_cell_angle_alpha   60.00000378
_cell_angle_beta   60.00000367
_cell_angle_gamma   60.00000639
_symmetry_Int_Tables_number   1
_chemical_formula_structural   Pr4HgRu
_chemical_formula_sum   'Pr16 Hg4 Ru4'
_cell_volume   700.83395966
_cell_formula_units_Z   4
loop_
 _symmetry_equiv_pos_site_id
 _symmetry_equiv_pos_as_xyz
  1  'x, y, z'
loop_
 _atom_site_type_symbol
 _atom_site_label
 _atom_site_symmetry_multiplicity
 _atom_site_fract_x
 _atom_site_fract_y
 _atom_site_fract_z
 _atom_site_occupancy
  Pr  Pr0  1  0.346943  0.346943  0.346943  1
  Pr  Pr1  1  0.346943  0.346943  0.959169  1
  Pr  Pr2  1  0.346943  0.959169  0.346943  1
  Pr  Pr3  1  0.959169  0.346943  0.346943  1
  Pr  Pr4  1  0.809411  0.190589  0.190589  1
  Pr  Pr5  1  0.190589  0.809411  0.809411  1
  Pr  Pr6  1  0.190589  0.809411  0.190589  1
  Pr  Pr7  1  0.809411  0.190589  0.809411  1
  Pr  Pr8  1  0.190589  0.190589  0.809411  1
  Pr  Pr9  1  0.809411  0.809411  0.190589  1
  Pr  Pr10  1  0.939193  0.560807  0.560807  1
  Pr  Pr11  1  0.560807  0.939193  0.939193  1
  Pr  Pr12  1  0.560807  0.939193  0.560807  1
  Pr  Pr13  1  0.939193  0.560807  0.939193  1
  Pr  Pr14  1  0.560807  0.560807  0.939193  1
  Pr  Pr15  1  0.939193  0.939193  0.560807  1
  Hg  Hg16  1  0.582579  0.582579  0.582579  1
  Hg  Hg17  1  0.582579  0.582579  0.252261  1
  Hg  Hg18  1  0.582579  0.252261  0.582579  1
  Hg  Hg19  1  0.252261  0.582579  0.582579  1
  Ru  Ru20  1  0.137986  0.137986  0.137986  1
  Ru  Ru21  1  0.137986  0.137986  0.586041  1
  Ru  Ru22  1  0.137986  0.586041  0.137986  1
  Ru  Ru23  1  0.586041  0.137986  0.137986  1
