# generated using pymatgen
data_Zr4TaAl2Re5
_symmetry_space_group_name_H-M   'P 1'
_cell_length_a   5.31247051
_cell_length_b   5.31246885
_cell_length_c   8.76686700
_cell_angle_alpha   90.00000000
_cell_angle_beta   90.00000000
_cell_angle_gamma   120.35744404
_symmetry_Int_Tables_number   1
_chemical_formula_structural   Zr4TaAl2Re5
_chemical_formula_sum   'Zr4 Ta1 Al2 Re5'
_cell_volume   213.49731714
_cell_formula_units_Z   1
loop_
 _symmetry_equiv_pos_site_id
 _symmetry_equiv_pos_as_xyz
  1  'x, y, z'
loop_
 _atom_site_type_symbol
 _atom_site_label
 _atom_site_symmetry_multiplicity
 _atom_site_fract_x
 _atom_site_fract_y
 _atom_site_fract_z
 _atom_site_occupancy
  Zr  Zr0  1  0.332599  0.667401  0.439688  1
  Zr  Zr1  1  0.665699  0.334301  0.568602  1
  Zr  Zr2  1  0.665699  0.334301  0.931398  1
  Zr  Zr3  1  0.332599  0.667401  0.060312  1
  Ta  Ta4  1  0.829098  0.170902  0.250000  1
  Al  Al5  1  0.002954  0.997046  0.502423  1
  Al  Al6  1  0.002954  0.997046  0.997577  1
  Re  Re7  1  0.828082  0.661766  0.250000  1
  Re  Re8  1  0.338234  0.171918  0.250000  1
  Re  Re9  1  0.171215  0.828785  0.750000  1
  Re  Re10  1  0.170515  0.339650  0.750000  1
  Re  Re11  1  0.660350  0.829485  0.750000  1
