# generated using pymatgen
data_DySc9In8(CuPt)2
_symmetry_space_group_name_H-M   'P 1'
_cell_length_a   3.46524200
_cell_length_b   7.71494235
_cell_length_c   17.45424300
_cell_angle_alpha   89.85603524
_cell_angle_beta   90.00000000
_cell_angle_gamma   90.00000000
_symmetry_Int_Tables_number   1
_chemical_formula_structural   DySc9In8(CuPt)2
_chemical_formula_sum   'Dy1 Sc9 In8 Cu2 Pt2'
_cell_volume   466.62274262
_cell_formula_units_Z   1
loop_
 _symmetry_equiv_pos_site_id
 _symmetry_equiv_pos_as_xyz
  1  'x, y, z'
loop_
 _atom_site_type_symbol
 _atom_site_label
 _atom_site_symmetry_multiplicity
 _atom_site_fract_x
 _atom_site_fract_y
 _atom_site_fract_z
 _atom_site_occupancy
  Dy  Dy0  1  0.000000  0.740890  0.282323  1
  Sc  Sc1  1  0.000000  0.119710  0.419640  1
  Sc  Sc2  1  0.000000  0.881665  0.584100  1
  Sc  Sc3  1  0.000000  0.379879  0.915959  1
  Sc  Sc4  1  0.000000  0.619732  0.081546  1
  Sc  Sc5  1  0.000000  0.247190  0.218561  1
  Sc  Sc6  1  0.000000  0.748550  0.780122  1
  Sc  Sc7  1  0.000000  0.262487  0.719584  1
  Sc  Sc8  1  0.000000  0.999780  0.998857  1
  Sc  Sc9  1  0.000000  0.499705  0.500449  1
  In  In10  1  0.500000  0.412172  0.353860  1
  In  In11  1  0.500000  0.581210  0.646815  1
  In  In12  1  0.500000  0.074802  0.848724  1
  In  In13  1  0.500000  0.928210  0.147811  1
  In  In14  1  0.500000  0.291100  0.063131  1
  In  In15  1  0.500000  0.707814  0.933848  1
  In  In16  1  0.500000  0.206482  0.567923  1
  In  In17  1  0.500000  0.796982  0.438209  1
  Cu  Cu18  1  0.500000  0.039286  0.305027  1
  Cu  Cu19  1  0.500000  0.971911  0.696768  1
  Pt  Pt20  1  0.500000  0.468057  0.803643  1
  Pt  Pt21  1  0.500000  0.522386  0.193103  1
