# generated using pymatgen
data_Pr3ErO6
_symmetry_space_group_name_H-M   'P 1'
_cell_length_a   7.00363724
_cell_length_b   7.00363719
_cell_length_c   7.00363689
_cell_angle_alpha   92.04225100
_cell_angle_beta   92.04224967
_cell_angle_gamma   92.04224931
_symmetry_Int_Tables_number   1
_chemical_formula_structural   Pr3ErO6
_chemical_formula_sum   'Pr6 Er2 O12'
_cell_volume   342.86431967
_cell_formula_units_Z   2
loop_
 _symmetry_equiv_pos_site_id
 _symmetry_equiv_pos_as_xyz
  1  'x, y, z'
loop_
 _atom_site_type_symbol
 _atom_site_label
 _atom_site_symmetry_multiplicity
 _atom_site_fract_x
 _atom_site_fract_y
 _atom_site_fract_z
 _atom_site_occupancy
  Pr  Pr0  1  0.747404  0.935412  0.442666  1
  Pr  Pr1  1  0.442666  0.747404  0.935412  1
  Pr  Pr2  1  0.064588  0.557334  0.252596  1
  Pr  Pr3  1  0.935412  0.442666  0.747404  1
  Pr  Pr4  1  0.557334  0.252596  0.064588  1
  Pr  Pr5  1  0.252596  0.064588  0.557334  1
  Er  Er6  1  0.000000  0.000000  0.000000  1
  Er  Er7  1  0.500000  0.500000  0.500000  1
  O  O8  1  0.065364  0.912532  0.307098  1
  O  O9  1  0.692902  0.934636  0.087468  1
  O  O10  1  0.465258  0.806654  0.594993  1
  O  O11  1  0.087468  0.692902  0.934636  1
  O  O12  1  0.806654  0.594993  0.465258  1
  O  O13  1  0.405007  0.534742  0.193346  1
  O  O14  1  0.594993  0.465258  0.806654  1
  O  O15  1  0.193346  0.405007  0.534742  1
  O  O16  1  0.912532  0.307098  0.065364  1
  O  O17  1  0.534742  0.193346  0.405007  1
  O  O18  1  0.307098  0.065364  0.912532  1
  O  O19  1  0.934636  0.087468  0.692902  1
