# generated using pymatgen
data_TmTh2(InNi)3
_symmetry_space_group_name_H-M   'P 1'
_cell_length_a   7.37497200
_cell_length_b   7.46508837
_cell_length_c   3.99275400
_cell_angle_alpha   90.00000000
_cell_angle_beta   90.00000000
_cell_angle_gamma   119.60146812
_symmetry_Int_Tables_number   1
_chemical_formula_structural   TmTh2(InNi)3
_chemical_formula_sum   'Tm1 Th2 In3 Ni3'
_cell_volume   191.12989190
_cell_formula_units_Z   1
loop_
 _symmetry_equiv_pos_site_id
 _symmetry_equiv_pos_as_xyz
  1  'x, y, z'
loop_
 _atom_site_type_symbol
 _atom_site_label
 _atom_site_symmetry_multiplicity
 _atom_site_fract_x
 _atom_site_fract_y
 _atom_site_fract_z
 _atom_site_occupancy
  Tm  Tm0  1  0.412995  0.000000  0.500000  1
  Th  Th1  1  0.998564  0.416220  0.500000  1
  Th  Th2  1  0.582344  0.583780  0.500000  1
  In  In3  1  0.743331  0.000000  0.000000  1
  In  In4  1  0.011089  0.762416  0.000000  1
  In  In5  1  0.248673  0.237584  0.000000  1
  Ni  Ni6  1  0.333280  0.659105  0.000000  1
  Ni  Ni7  1  0.674176  0.340895  0.000000  1
  Ni  Ni8  1  0.995549  0.000000  0.500000  1
