# generated using pymatgen
data_Dy3Tm3TcOs
_symmetry_space_group_name_H-M   'P 1'
_cell_length_a   6.26194869
_cell_length_b   7.39097400
_cell_length_c   8.98640175
_cell_angle_alpha   90.00000000
_cell_angle_beta   89.74278071
_cell_angle_gamma   90.00000000
_symmetry_Int_Tables_number   1
_chemical_formula_structural   Dy3Tm3TcOs
_chemical_formula_sum   'Dy6 Tm6 Tc2 Os2'
_cell_volume   415.90355622
_cell_formula_units_Z   2
loop_
 _symmetry_equiv_pos_site_id
 _symmetry_equiv_pos_as_xyz
  1  'x, y, z'
loop_
 _atom_site_type_symbol
 _atom_site_label
 _atom_site_symmetry_multiplicity
 _atom_site_fract_x
 _atom_site_fract_y
 _atom_site_fract_z
 _atom_site_occupancy
  Dy  Dy0  1  0.338089  0.675677  0.437420  1
  Dy  Dy1  1  0.161911  0.175677  0.062580  1
  Dy  Dy2  1  0.875957  0.539488  0.249792  1
  Dy  Dy3  1  0.624043  0.039488  0.250208  1
  Dy  Dy4  1  0.128391  0.459170  0.750115  1
  Dy  Dy5  1  0.371609  0.959170  0.749885  1
  Tm  Tm6  1  0.338775  0.674847  0.061587  1
  Tm  Tm7  1  0.161225  0.174847  0.438413  1
  Tm  Tm8  1  0.664273  0.324361  0.563765  1
  Tm  Tm9  1  0.835727  0.824361  0.936235  1
  Tm  Tm10  1  0.663720  0.325255  0.936241  1
  Tm  Tm11  1  0.836280  0.825255  0.563759  1
  Tc  Tc12  1  0.037781  0.884069  0.249592  1
  Tc  Tc13  1  0.462219  0.384069  0.250408  1
  Os  Os14  1  0.955590  0.117133  0.748094  1
  Os  Os15  1  0.544410  0.617133  0.751906  1
