# generated using pymatgen
data_EuAs12Ru3Rh
_symmetry_space_group_name_H-M   'P 1'
_cell_length_a   7.45793688
_cell_length_b   7.45793668
_cell_length_c   7.45793700
_cell_angle_alpha   109.41898957
_cell_angle_beta   109.41898090
_cell_angle_gamma   109.41899157
_symmetry_Int_Tables_number   1
_chemical_formula_structural   EuAs12Ru3Rh
_chemical_formula_sum   'Eu1 As12 Ru3 Rh1'
_cell_volume   319.94200138
_cell_formula_units_Z   1
loop_
 _symmetry_equiv_pos_site_id
 _symmetry_equiv_pos_as_xyz
  1  'x, y, z'
loop_
 _atom_site_type_symbol
 _atom_site_label
 _atom_site_symmetry_multiplicity
 _atom_site_fract_x
 _atom_site_fract_y
 _atom_site_fract_z
 _atom_site_occupancy
  Eu  Eu0  1  0.000000  0.000000  0.000000  1
  As  As1  1  0.348529  0.198762  0.849802  1
  As  As2  1  0.651471  0.801238  0.150198  1
  As  As3  1  0.651509  0.501167  0.853238  1
  As  As4  1  0.348491  0.498833  0.146762  1
  As  As5  1  0.198762  0.849802  0.348529  1
  As  As6  1  0.801238  0.150198  0.651471  1
  As  As7  1  0.501167  0.853238  0.651509  1
  As  As8  1  0.498833  0.146762  0.348491  1
  As  As9  1  0.849802  0.348529  0.198762  1
  As  As10  1  0.150198  0.651471  0.801238  1
  As  As11  1  0.853238  0.651509  0.501167  1
  As  As12  1  0.146762  0.348491  0.498833  1
  Ru  Ru13  1  0.000000  0.000000  0.500000  1
  Ru  Ru14  1  0.500000  0.000000  0.000000  1
  Ru  Ru15  1  0.000000  0.500000  0.000000  1
  Rh  Rh16  1  0.500000  0.500000  0.500000  1
