# generated using pymatgen
data_Dy3TmAl18(OsRh2)2
_symmetry_space_group_name_H-M   'P 1'
_cell_length_a   7.51628204
_cell_length_b   7.51849616
_cell_length_c   9.49595100
_cell_angle_alpha   90.00000000
_cell_angle_beta   90.00000000
_cell_angle_gamma   118.33658407
_symmetry_Int_Tables_number   1
_chemical_formula_structural   Dy3TmAl18(OsRh2)2
_chemical_formula_sum   'Dy3 Tm1 Al18 Os2 Rh4'
_cell_volume   472.32537654
_cell_formula_units_Z   1
loop_
 _symmetry_equiv_pos_site_id
 _symmetry_equiv_pos_as_xyz
  1  'x, y, z'
loop_
 _atom_site_type_symbol
 _atom_site_label
 _atom_site_symmetry_multiplicity
 _atom_site_fract_x
 _atom_site_fract_y
 _atom_site_fract_z
 _atom_site_occupancy
  Dy  Dy0  1  0.993734  0.682152  0.250000  1
  Dy  Dy1  1  0.007243  0.317925  0.750000  1
  Dy  Dy2  1  0.682143  0.993682  0.250000  1
  Tm  Tm3  1  0.316988  0.007077  0.750000  1
  Al  Al4  1  0.136226  0.135952  0.250000  1
  Al  Al5  1  0.864555  0.864326  0.750000  1
  Al  Al6  1  0.003378  0.338914  0.075215  1
  Al  Al7  1  0.997103  0.661367  0.924312  1
  Al  Al8  1  0.997103  0.661367  0.575688  1
  Al  Al9  1  0.338797  0.003067  0.425409  1
  Al  Al10  1  0.003378  0.338914  0.424785  1
  Al  Al11  1  0.660487  0.996598  0.575889  1
  Al  Al12  1  0.660487  0.996598  0.924111  1
  Al  Al13  1  0.338797  0.003067  0.074591  1
  Al  Al14  1  0.331877  0.331347  0.545817  1
  Al  Al15  1  0.668405  0.668485  0.455290  1
  Al  Al16  1  0.668405  0.668485  0.044710  1
  Al  Al17  1  0.331877  0.331347  0.954183  1
  Al  Al18  1  0.341826  0.555535  0.250000  1
  Al  Al19  1  0.657560  0.443729  0.750000  1
  Al  Al20  1  0.555166  0.341506  0.250000  1
  Al  Al21  1  0.444318  0.658878  0.750000  1
  Os  Os22  1  0.000592  0.000221  0.999346  1
  Os  Os23  1  0.000592  0.000221  0.500654  1
  Rh  Rh24  1  0.671464  0.327899  0.999791  1
  Rh  Rh25  1  0.328019  0.671721  0.999785  1
  Rh  Rh26  1  0.328019  0.671721  0.500215  1
  Rh  Rh27  1  0.671464  0.327899  0.500209  1
