# generated using pymatgen
data_Pr5Sm7(Si7Cl3)2
_symmetry_space_group_name_H-M   'P 1'
_cell_length_a   3.96795700
_cell_length_b   11.50318300
_cell_length_c   16.05579700
_cell_angle_alpha   90.00000000
_cell_angle_beta   90.00000000
_cell_angle_gamma   90.00000000
_symmetry_Int_Tables_number   1
_chemical_formula_structural   Pr5Sm7(Si7Cl3)2
_chemical_formula_sum   'Pr5 Sm7 Si14 Cl6'
_cell_volume   732.85297394
_cell_formula_units_Z   1
loop_
 _symmetry_equiv_pos_site_id
 _symmetry_equiv_pos_as_xyz
  1  'x, y, z'
loop_
 _atom_site_type_symbol
 _atom_site_label
 _atom_site_symmetry_multiplicity
 _atom_site_fract_x
 _atom_site_fract_y
 _atom_site_fract_z
 _atom_site_occupancy
  Pr  Pr0  1  0.500000  0.055416  0.876078  1
  Pr  Pr1  1  0.000000  0.945378  0.623863  1
  Pr  Pr2  1  0.500000  0.055416  0.123922  1
  Pr  Pr3  1  0.000000  0.945378  0.376137  1
  Pr  Pr4  1  0.000000  0.667646  0.000000  1
  Sm  Sm5  1  0.500000  0.335405  0.500000  1
  Sm  Sm6  1  0.500000  0.356267  0.755557  1
  Sm  Sm7  1  0.000000  0.642386  0.743151  1
  Sm  Sm8  1  0.500000  0.356267  0.244443  1
  Sm  Sm9  1  0.000000  0.642386  0.256849  1
  Sm  Sm10  1  0.500000  0.353269  0.000000  1
  Sm  Sm11  1  0.000000  0.646667  0.500000  1
  Si  Si12  1  0.000000  0.145819  0.000000  1
  Si  Si13  1  0.500000  0.854610  0.500000  1
  Si  Si14  1  0.500000  0.571974  0.874734  1
  Si  Si15  1  0.000000  0.426145  0.623508  1
  Si  Si16  1  0.500000  0.571974  0.125266  1
  Si  Si17  1  0.000000  0.426145  0.376492  1
  Si  Si18  1  0.000000  0.250453  0.872181  1
  Si  Si19  1  0.500000  0.749200  0.627478  1
  Si  Si20  1  0.000000  0.250453  0.127819  1
  Si  Si21  1  0.500000  0.749200  0.372522  1
  Si  Si22  1  0.000000  0.457645  0.876925  1
  Si  Si23  1  0.500000  0.541234  0.621982  1
  Si  Si24  1  0.500000  0.541234  0.378018  1
  Si  Si25  1  0.000000  0.457645  0.123075  1
  Cl  Cl26  1  0.500000  0.113078  0.694537  1
  Cl  Cl27  1  0.000000  0.886374  0.805323  1
  Cl  Cl28  1  0.000000  0.141736  0.500000  1
  Cl  Cl29  1  0.500000  0.863749  0.000000  1
  Cl  Cl30  1  0.500000  0.113078  0.305463  1
  Cl  Cl31  1  0.000000  0.886374  0.194677  1
