# generated using pymatgen
data_NbCoWF12
_symmetry_space_group_name_H-M   'P 1'
_cell_length_a   5.36392441
_cell_length_b   5.65792647
_cell_length_c   9.36981400
_cell_angle_alpha   73.88347168
_cell_angle_beta   88.62060417
_cell_angle_gamma   62.34306544
_symmetry_Int_Tables_number   1
_chemical_formula_structural   NbCoWF12
_chemical_formula_sum   'Nb1 Co1 W1 F12'
_cell_volume   240.13104630
_cell_formula_units_Z   1
loop_
 _symmetry_equiv_pos_site_id
 _symmetry_equiv_pos_as_xyz
  1  'x, y, z'
loop_
 _atom_site_type_symbol
 _atom_site_label
 _atom_site_symmetry_multiplicity
 _atom_site_fract_x
 _atom_site_fract_y
 _atom_site_fract_z
 _atom_site_occupancy
  Nb  Nb0  1  0.225126  0.997699  0.756970  1
  Co  Co1  1  0.500993  0.501604  0.500064  1
  W  W2  1  0.774557  0.003467  0.246374  1
  F  F3  1  0.964211  0.218979  0.210214  1
  F  F4  1  0.054767  0.765230  0.793479  1
  F  F5  1  0.013254  0.766813  0.134553  1
  F  F6  1  0.452021  0.769511  0.622093  1
  F  F7  1  0.540752  0.243927  0.373497  1
  F  F8  1  0.923331  0.253538  0.577443  1
  F  F9  1  0.071216  0.752144  0.424023  1
  F  F10  1  0.404296  0.239391  0.668491  1
  F  F11  1  0.599234  0.757728  0.325516  1
  F  F12  1  0.514706  0.783511  0.918029  1
  F  F13  1  0.476058  0.205865  0.088403  1
  F  F14  1  0.985480  0.240593  0.860852  1
