# generated using pymatgen
data_Tb7Dy(Sc3Ge4)4
_symmetry_space_group_name_H-M   'P 1'
_cell_length_a   7.25784502
_cell_length_b   7.50008002
_cell_length_c   14.12424801
_cell_angle_alpha   89.99699418
_cell_angle_beta   90.00180041
_cell_angle_gamma   89.99260803
_symmetry_Int_Tables_number   1
_chemical_formula_structural   Tb7Dy(Sc3Ge4)4
_chemical_formula_sum   'Tb7 Dy1 Sc12 Ge16'
_cell_volume   768.84521745
_cell_formula_units_Z   1
loop_
 _symmetry_equiv_pos_site_id
 _symmetry_equiv_pos_as_xyz
  1  'x, y, z'
loop_
 _atom_site_type_symbol
 _atom_site_label
 _atom_site_symmetry_multiplicity
 _atom_site_fract_x
 _atom_site_fract_y
 _atom_site_fract_z
 _atom_site_occupancy
  Tb  Tb0  1  0.500529  0.323716  0.096515  1
  Tb  Tb1  1  0.000526  0.176233  0.403527  1
  Tb  Tb2  1  0.499499  0.676220  0.596511  1
  Tb  Tb3  1  0.999519  0.823797  0.903533  1
  Tb  Tb4  1  0.499468  0.676210  0.903509  1
  Tb  Tb5  1  0.999482  0.823761  0.596507  1
  Tb  Tb6  1  0.500498  0.323759  0.403467  1
  Dy  Dy7  1  0.000524  0.176336  0.096582  1
  Sc  Sc8  1  0.672683  0.000008  0.749980  1
  Sc  Sc9  1  0.172679  0.499986  0.750001  1
  Sc  Sc10  1  0.327261  0.000045  0.249957  1
  Sc  Sc11  1  0.827371  0.499944  0.249966  1
  Sc  Sc12  1  0.839843  0.330863  0.624903  1
  Sc  Sc13  1  0.339791  0.169207  0.875103  1
  Sc  Sc14  1  0.160119  0.669168  0.124909  1
  Sc  Sc15  1  0.660145  0.830840  0.375068  1
  Sc  Sc16  1  0.160159  0.669156  0.375061  1
  Sc  Sc17  1  0.660186  0.830917  0.124906  1
  Sc  Sc18  1  0.839915  0.330785  0.875112  1
  Sc  Sc19  1  0.339821  0.169180  0.624903  1
  Ge  Ge20  1  0.804988  0.638071  0.749998  1
  Ge  Ge21  1  0.304928  0.861874  0.750003  1
  Ge  Ge22  1  0.194883  0.361736  0.249890  1
  Ge  Ge23  1  0.695209  0.138111  0.249922  1
  Ge  Ge24  1  0.538100  0.374257  0.750012  1
  Ge  Ge25  1  0.038122  0.125771  0.750011  1
  Ge  Ge26  1  0.461908  0.625781  0.249997  1
  Ge  Ge27  1  0.961884  0.874361  0.249962  1
  Ge  Ge28  1  0.676688  0.040614  0.541350  1
  Ge  Ge29  1  0.176602  0.459284  0.958672  1
  Ge  Ge30  1  0.323033  0.959518  0.041409  1
  Ge  Ge31  1  0.823310  0.540601  0.458638  1
  Ge  Ge32  1  0.323346  0.959373  0.458642  1
  Ge  Ge33  1  0.823408  0.540452  0.041395  1
  Ge  Ge34  1  0.676891  0.040666  0.958702  1
  Ge  Ge35  1  0.176680  0.459401  0.541376  1
