# generated using pymatgen
data_TmLu8Mg(Ni2Bi)2
_symmetry_space_group_name_H-M   'P 1'
_cell_length_a   8.61669747
_cell_length_b   8.61752350
_cell_length_c   8.61626132
_cell_angle_alpha   129.17447620
_cell_angle_beta   129.17649635
_cell_angle_gamma   74.72078309
_symmetry_Int_Tables_number   1
_chemical_formula_structural   TmLu8Mg(Ni2Bi)2
_chemical_formula_sum   'Tm1 Lu8 Mg1 Ni4 Bi2'
_cell_volume   374.58744571
_cell_formula_units_Z   1
loop_
 _symmetry_equiv_pos_site_id
 _symmetry_equiv_pos_as_xyz
  1  'x, y, z'
loop_
 _atom_site_type_symbol
 _atom_site_label
 _atom_site_symmetry_multiplicity
 _atom_site_fract_x
 _atom_site_fract_y
 _atom_site_fract_z
 _atom_site_occupancy
  Tm  Tm0  1  0.975129  0.798282  0.516757  1
  Lu  Lu1  1  0.499828  0.499875  0.999768  1
  Lu  Lu2  1  0.797907  0.281261  0.823073  1
  Lu  Lu3  1  0.202086  0.718827  0.176936  1
  Lu  Lu4  1  0.458157  0.974967  0.177049  1
  Lu  Lu5  1  0.281271  0.458006  0.483170  1
  Lu  Lu6  1  0.025077  0.202186  0.483179  1
  Lu  Lu7  1  0.541980  0.025099  0.823056  1
  Lu  Lu8  1  0.718725  0.541769  0.516741  1
  Mg  Mg9  1  0.999971  0.000090  0.000224  1
  Ni  Ni10  1  0.132614  0.623351  0.756238  1
  Ni  Ni11  1  0.867468  0.376039  0.243773  1
  Ni  Ni12  1  0.623250  0.867632  0.491116  1
  Ni  Ni13  1  0.376396  0.132455  0.508856  1
  Bi  Bi14  1  0.258003  0.257994  0.000191  1
  Bi  Bi15  1  0.742138  0.742167  0.999875  1
