# generated using pymatgen
data_Sc3Co2Sn3Ru4
_symmetry_space_group_name_H-M   'P 1'
_cell_length_a   4.49537100
_cell_length_b   6.39740300
_cell_length_c   13.43184300
_cell_angle_alpha   90.00000000
_cell_angle_beta   89.99747982
_cell_angle_gamma   90.00000000
_symmetry_Int_Tables_number   1
_chemical_formula_structural   Sc3Co2Sn3Ru4
_chemical_formula_sum   'Sc6 Co4 Sn6 Ru8'
_cell_volume   386.28234204
_cell_formula_units_Z   2
loop_
 _symmetry_equiv_pos_site_id
 _symmetry_equiv_pos_as_xyz
  1  'x, y, z'
loop_
 _atom_site_type_symbol
 _atom_site_label
 _atom_site_symmetry_multiplicity
 _atom_site_fract_x
 _atom_site_fract_y
 _atom_site_fract_z
 _atom_site_occupancy
  Sc  Sc0  1  0.999981  0.000000  0.003297  1
  Sc  Sc1  1  0.499930  0.500001  0.163213  1
  Sc  Sc2  1  0.999922  0.000000  0.329160  1
  Sc  Sc3  1  0.500011  0.500001  0.499674  1
  Sc  Sc4  1  0.000082  0.000000  0.667019  1
  Sc  Sc5  1  0.500087  0.500001  0.837632  1
  Co  Co6  1  0.500001  0.248290  0.003102  1
  Co  Co7  1  0.500001  0.751710  0.003102  1
  Co  Co8  1  0.999922  0.251714  0.163481  1
  Co  Co9  1  0.999922  0.748286  0.163481  1
  Sn  Sn10  1  0.999977  0.500001  0.004399  1
  Sn  Sn11  1  0.499839  0.000000  0.162250  1
  Sn  Sn12  1  0.999923  0.500001  0.328240  1
  Sn  Sn13  1  0.500007  0.000000  0.499131  1
  Sn  Sn14  1  0.000107  0.500001  0.667626  1
  Sn  Sn15  1  0.500134  0.000000  0.838447  1
  Ru  Ru16  1  0.499911  0.250495  0.327345  1
  Ru  Ru17  1  0.499911  0.749504  0.327345  1
  Ru  Ru18  1  0.000007  0.249873  0.496916  1
  Ru  Ru19  1  0.000007  0.750130  0.496916  1
  Ru  Ru20  1  0.500087  0.250147  0.669805  1
  Ru  Ru21  1  0.500087  0.749852  0.669805  1
  Ru  Ru22  1  0.000070  0.249516  0.839305  1
  Ru  Ru23  1  0.000070  0.750484  0.839305  1
