# generated using pymatgen
data_Th2Fe3B8Os5
_symmetry_space_group_name_H-M   'P 1'
_cell_length_a   7.44646765
_cell_length_b   7.39639688
_cell_length_c   3.96230851
_cell_angle_alpha   90.01396336
_cell_angle_beta   89.78541612
_cell_angle_gamma   89.27988271
_symmetry_Int_Tables_number   1
_chemical_formula_structural   Th2Fe3B8Os5
_chemical_formula_sum   'Th2 Fe3 B8 Os5'
_cell_volume   218.21340887
_cell_formula_units_Z   1
loop_
 _symmetry_equiv_pos_site_id
 _symmetry_equiv_pos_as_xyz
  1  'x, y, z'
loop_
 _atom_site_type_symbol
 _atom_site_label
 _atom_site_symmetry_multiplicity
 _atom_site_fract_x
 _atom_site_fract_y
 _atom_site_fract_z
 _atom_site_occupancy
  Th  Th0  1  0.998249  0.001316  0.066671  1
  Th  Th1  1  0.507543  0.499042  0.588260  1
  Fe  Fe2  1  0.116652  0.381285  0.883598  1
  Fe  Fe3  1  0.869880  0.607754  0.880391  1
  Fe  Fe4  1  0.883754  0.373193  0.380584  1
  B  B5  1  0.672578  0.766166  0.096013  1
  B  B6  1  0.323985  0.232851  0.097261  1
  B  B7  1  0.271704  0.834416  0.602062  1
  B  B8  1  0.733900  0.172847  0.596541  1
  B  B9  1  0.834728  0.683971  0.379713  1
  B  B10  1  0.156627  0.312419  0.380520  1
  B  B11  1  0.195979  0.662682  0.882296  1
  B  B12  1  0.817285  0.337397  0.880005  1
  Os  Os13  1  0.112674  0.621762  0.382371  1
  Os  Os14  1  0.345525  0.110995  0.600734  1
  Os  Os15  1  0.656064  0.895319  0.600703  1
  Os  Os16  1  0.605689  0.157991  0.101013  1
  Os  Os17  1  0.397185  0.848594  0.101267  1
