# generated using pymatgen
data_Er6Tm10MgTl(AgPt2)2
_symmetry_space_group_name_H-M   'P 1'
_cell_length_a   9.54757707
_cell_length_b   9.54757631
_cell_length_c   9.52864500
_cell_angle_alpha   60.06556668
_cell_angle_beta   60.06556932
_cell_angle_gamma   60.22789714
_symmetry_Int_Tables_number   1
_chemical_formula_structural   Er6Tm10MgTl(AgPt2)2
_chemical_formula_sum   'Er6 Tm10 Mg1 Tl1 Ag2 Pt4'
_cell_volume   615.85159144
_cell_formula_units_Z   1
loop_
 _symmetry_equiv_pos_site_id
 _symmetry_equiv_pos_as_xyz
  1  'x, y, z'
loop_
 _atom_site_type_symbol
 _atom_site_label
 _atom_site_symmetry_multiplicity
 _atom_site_fract_x
 _atom_site_fract_y
 _atom_site_fract_z
 _atom_site_occupancy
  Er  Er0  1  0.933141  0.562990  0.565477  1
  Er  Er1  1  0.563127  0.929552  0.941712  1
  Er  Er2  1  0.563127  0.929552  0.565609  1
  Er  Er3  1  0.933141  0.562990  0.938392  1
  Er  Er4  1  0.563572  0.563807  0.936310  1
  Er  Er5  1  0.937661  0.935245  0.563547  1
  Tm  Tm6  1  0.352636  0.350978  0.349595  1
  Tm  Tm7  1  0.352636  0.350978  0.946792  1
  Tm  Tm8  1  0.355956  0.939674  0.352186  1
  Tm  Tm9  1  0.929589  0.359908  0.355253  1
  Tm  Tm10  1  0.809532  0.191446  0.190519  1
  Tm  Tm11  1  0.188408  0.813264  0.810527  1
  Tm  Tm12  1  0.188408  0.813264  0.187800  1
  Tm  Tm13  1  0.809532  0.191446  0.808503  1
  Tm  Tm14  1  0.189884  0.189463  0.810326  1
  Tm  Tm15  1  0.811085  0.810671  0.189122  1
  Mg  Mg16  1  0.276886  0.576150  0.573483  1
  Tl  Tl17  1  0.582570  0.249499  0.583967  1
  Ag  Ag18  1  0.582310  0.588938  0.584658  1
  Ag  Ag19  1  0.582310  0.588938  0.244094  1
  Pt  Pt20  1  0.141013  0.144953  0.146984  1
  Pt  Pt21  1  0.141013  0.144953  0.567049  1
  Pt  Pt22  1  0.140528  0.569974  0.144748  1
  Pt  Pt23  1  0.571937  0.141372  0.143345  1
