# generated using pymatgen
data_SrGaSn2Pd
_symmetry_space_group_name_H-M   'P 1'
_cell_length_a   6.48818350
_cell_length_b   6.48818382
_cell_length_c   6.48818327
_cell_angle_alpha   137.08977696
_cell_angle_beta   137.08977987
_cell_angle_gamma   62.29995228
_symmetry_Int_Tables_number   1
_chemical_formula_structural   SrGaSn2Pd
_chemical_formula_sum   'Sr1 Ga1 Sn2 Pd1'
_cell_volume   125.09247530
_cell_formula_units_Z   1
loop_
 _symmetry_equiv_pos_site_id
 _symmetry_equiv_pos_as_xyz
  1  'x, y, z'
loop_
 _atom_site_type_symbol
 _atom_site_label
 _atom_site_symmetry_multiplicity
 _atom_site_fract_x
 _atom_site_fract_y
 _atom_site_fract_z
 _atom_site_occupancy
  Sr  Sr0  1  0.001341  0.001341  0.000000  1
  Ga  Ga1  1  0.591080  0.591080  0.000000  1
  Sn  Sn2  1  0.249118  0.749118  0.500000  1
  Sn  Sn3  1  0.749118  0.249118  0.500000  1
  Pd  Pd4  1  0.368344  0.368344  0.000000  1
