# generated using pymatgen
data_ScFe(ReO4)6
_symmetry_space_group_name_H-M   'P 1'
_cell_length_a   10.66820355
_cell_length_b   10.66820309
_cell_length_c   10.66820300
_cell_angle_alpha   49.08374758
_cell_angle_beta   49.08376390
_cell_angle_gamma   49.08376106
_symmetry_Int_Tables_number   1
_chemical_formula_structural   ScFe(ReO4)6
_chemical_formula_sum   'Sc1 Fe1 Re6 O24'
_cell_volume   636.71787548
_cell_formula_units_Z   1
loop_
 _symmetry_equiv_pos_site_id
 _symmetry_equiv_pos_as_xyz
  1  'x, y, z'
loop_
 _atom_site_type_symbol
 _atom_site_label
 _atom_site_symmetry_multiplicity
 _atom_site_fract_x
 _atom_site_fract_y
 _atom_site_fract_z
 _atom_site_occupancy
  Sc  Sc0  1  0.000000  0.000000  0.000000  1
  Fe  Fe1  1  0.500000  0.500000  0.500000  1
  Re  Re2  1  0.595079  0.898820  0.253310  1
  Re  Re3  1  0.253310  0.595079  0.898820  1
  Re  Re4  1  0.898820  0.253310  0.595079  1
  Re  Re5  1  0.746690  0.404921  0.101180  1
  Re  Re6  1  0.101180  0.746690  0.404921  1
  Re  Re7  1  0.404921  0.101180  0.746690  1
  O  O8  1  0.811157  0.883573  0.174142  1
  O  O9  1  0.174142  0.811157  0.883573  1
  O  O10  1  0.883573  0.174142  0.811157  1
  O  O11  1  0.666937  0.393046  0.315821  1
  O  O12  1  0.315821  0.666937  0.393046  1
  O  O13  1  0.393046  0.315821  0.666937  1
  O  O14  1  0.188843  0.116427  0.825858  1
  O  O15  1  0.825858  0.188843  0.116427  1
  O  O16  1  0.116427  0.825858  0.188843  1
  O  O17  1  0.333063  0.606954  0.684179  1
  O  O18  1  0.684179  0.333063  0.606954  1
  O  O19  1  0.606954  0.684179  0.333063  1
  O  O20  1  0.442252  0.974213  0.425269  1
  O  O21  1  0.425269  0.442252  0.974213  1
  O  O22  1  0.974213  0.425269  0.442252  1
  O  O23  1  0.920776  0.477469  0.947009  1
  O  O24  1  0.947009  0.920776  0.477469  1
  O  O25  1  0.477469  0.947009  0.920776  1
  O  O26  1  0.557748  0.025787  0.574731  1
  O  O27  1  0.574731  0.557748  0.025787  1
  O  O28  1  0.025787  0.574731  0.557748  1
  O  O29  1  0.079224  0.522531  0.052991  1
  O  O30  1  0.052991  0.079224  0.522531  1
  O  O31  1  0.522531  0.052991  0.079224  1
