# generated using pymatgen
data_Ac5Tm15Pt16
_symmetry_space_group_name_H-M   'P 1'
_cell_length_a   7.59205101
_cell_length_b   7.67740943
_cell_length_c   14.96612400
_cell_angle_alpha   90.02506790
_cell_angle_beta   90.00350927
_cell_angle_gamma   89.96194511
_symmetry_Int_Tables_number   1
_chemical_formula_structural   Ac5Tm15Pt16
_chemical_formula_sum   'Ac5 Tm15 Pt16'
_cell_volume   872.33444297
_cell_formula_units_Z   1
loop_
 _symmetry_equiv_pos_site_id
 _symmetry_equiv_pos_as_xyz
  1  'x, y, z'
loop_
 _atom_site_type_symbol
 _atom_site_label
 _atom_site_symmetry_multiplicity
 _atom_site_fract_x
 _atom_site_fract_y
 _atom_site_fract_z
 _atom_site_occupancy
  Ac  Ac0  1  0.001669  0.175731  0.402809  1
  Ac  Ac1  1  0.501727  0.328946  0.408984  1
  Ac  Ac2  1  0.001972  0.174176  0.089499  1
  Ac  Ac3  1  0.499343  0.674072  0.909672  1
  Ac  Ac4  1  0.998650  0.820889  0.594147  1
  Tm  Tm5  1  0.657160  0.164980  0.628006  1
  Tm  Tm6  1  0.157453  0.334217  0.873940  1
  Tm  Tm7  1  0.342395  0.835931  0.123870  1
  Tm  Tm8  1  0.844145  0.665926  0.372453  1
  Tm  Tm9  1  0.350628  0.827618  0.377234  1
  Tm  Tm10  1  0.842965  0.666834  0.118184  1
  Tm  Tm11  1  0.655631  0.167152  0.879013  1
  Tm  Tm12  1  0.160148  0.336569  0.625064  1
  Tm  Tm13  1  0.503618  0.683516  0.599735  1
  Tm  Tm14  1  0.005486  0.819026  0.898903  1
  Tm  Tm15  1  0.496809  0.317884  0.098824  1
  Tm  Tm16  1  0.818969  0.504336  0.751375  1
  Tm  Tm17  1  0.320267  0.994625  0.750923  1
  Tm  Tm18  1  0.181586  0.497267  0.244774  1
  Tm  Tm19  1  0.676716  0.004471  0.246029  1
  Pt  Pt20  1  0.672692  0.948107  0.460038  1
  Pt  Pt21  1  0.188153  0.538183  0.044160  1
  Pt  Pt22  1  0.312872  0.037792  0.955267  1
  Pt  Pt23  1  0.807546  0.467460  0.547871  1
  Pt  Pt24  1  0.331744  0.031756  0.548731  1
  Pt  Pt25  1  0.832187  0.465299  0.954985  1
  Pt  Pt26  1  0.668499  0.967365  0.044694  1
  Pt  Pt27  1  0.175923  0.545976  0.460297  1
  Pt  Pt28  1  0.454432  0.374808  0.748629  1
  Pt  Pt29  1  0.953659  0.126019  0.753965  1
  Pt  Pt30  1  0.545088  0.629867  0.245245  1
  Pt  Pt31  1  0.047971  0.866058  0.249222  1
  Pt  Pt32  1  0.682910  0.862354  0.749220  1
  Pt  Pt33  1  0.183329  0.637453  0.754205  1
  Pt  Pt34  1  0.318536  0.138996  0.244827  1
  Pt  Pt35  1  0.807122  0.368344  0.245204  1
