# generated using pymatgen
data_ErPaSnPd2
_symmetry_space_group_name_H-M   'P 1'
_cell_length_a   7.71085103
_cell_length_b   7.71085254
_cell_length_c   3.71856700
_cell_angle_alpha   90.00000000
_cell_angle_beta   90.00000000
_cell_angle_gamma   91.67142655
_symmetry_Int_Tables_number   1
_chemical_formula_structural   ErPaSnPd2
_chemical_formula_sum   'Er2 Pa2 Sn2 Pd4'
_cell_volume   221.00164337
_cell_formula_units_Z   2
loop_
 _symmetry_equiv_pos_site_id
 _symmetry_equiv_pos_as_xyz
  1  'x, y, z'
loop_
 _atom_site_type_symbol
 _atom_site_label
 _atom_site_symmetry_multiplicity
 _atom_site_fract_x
 _atom_site_fract_y
 _atom_site_fract_z
 _atom_site_occupancy
  Er  Er0  1  0.172929  0.327071  0.500000  1
  Er  Er1  1  0.827071  0.672929  0.500000  1
  Pa  Pa2  1  0.675170  0.175170  0.500000  1
  Pa  Pa3  1  0.324830  0.824830  0.500000  1
  Sn  Sn4  1  0.000000  0.000000  0.000000  1
  Sn  Sn5  1  0.500000  0.500000  0.000000  1
  Pd  Pd6  1  0.131099  0.631099  0.000000  1
  Pd  Pd7  1  0.868901  0.368901  0.000000  1
  Pd  Pd8  1  0.624397  0.875603  0.000000  1
  Pd  Pd9  1  0.375603  0.124397  0.000000  1
