# generated using pymatgen
data_Dy5ErZn23S
_symmetry_space_group_name_H-M   'P 1'
_cell_length_a   9.03716621
_cell_length_b   9.03716887
_cell_length_c   9.03606600
_cell_angle_alpha   60.00364887
_cell_angle_beta   60.00354400
_cell_angle_gamma   59.99168127
_symmetry_Int_Tables_number   1
_chemical_formula_structural   Dy5ErZn23S
_chemical_formula_sum   'Dy5 Er1 Zn23 S1'
_cell_volume   521.82557015
_cell_formula_units_Z   1
loop_
 _symmetry_equiv_pos_site_id
 _symmetry_equiv_pos_as_xyz
  1  'x, y, z'
loop_
 _atom_site_type_symbol
 _atom_site_label
 _atom_site_symmetry_multiplicity
 _atom_site_fract_x
 _atom_site_fract_y
 _atom_site_fract_z
 _atom_site_occupancy
  Dy  Dy0  1  0.712690  0.287226  0.287199  1
  Dy  Dy1  1  0.712696  0.287242  0.712880  1
  Dy  Dy2  1  0.712022  0.712022  0.287993  1
  Dy  Dy3  1  0.287242  0.712697  0.712878  1
  Dy  Dy4  1  0.287226  0.712690  0.287199  1
  Er  Er5  1  0.287902  0.287902  0.712035  1
  Zn  Zn6  1  0.624533  0.125008  0.125237  1
  Zn  Zn7  1  0.125008  0.624532  0.125237  1
  Zn  Zn8  1  0.125482  0.125481  0.625338  1
  Zn  Zn9  1  0.125492  0.125494  0.123715  1
  Zn  Zn10  1  0.374730  0.876333  0.874467  1
  Zn  Zn11  1  0.876333  0.374732  0.874467  1
  Zn  Zn12  1  0.874818  0.874817  0.375408  1
  Zn  Zn13  1  0.874811  0.874810  0.874941  1
  Zn  Zn14  1  0.499739  0.000285  0.999718  1
  Zn  Zn15  1  0.499744  0.000280  0.500257  1
  Zn  Zn16  1  0.499892  0.499893  0.000111  1
  Zn  Zn17  1  0.000281  0.499744  0.500257  1
  Zn  Zn18  1  0.000286  0.499738  0.999717  1
  Zn  Zn19  1  0.999890  0.999889  0.500113  1
  Zn  Zn20  1  0.999826  0.999829  0.000175  1
  Zn  Zn21  1  0.013948  0.328489  0.328773  1
  Zn  Zn22  1  0.328490  0.013947  0.328771  1
  Zn  Zn23  1  0.328839  0.328838  0.013174  1
  Zn  Zn24  1  0.328852  0.328853  0.329122  1
  Zn  Zn25  1  0.986875  0.670820  0.671166  1
  Zn  Zn26  1  0.670819  0.986875  0.671168  1
  Zn  Zn27  1  0.671222  0.671224  0.986000  1
  Zn  Zn28  1  0.671212  0.671210  0.671576  1
  S  S29  1  0.499099  0.499099  0.500908  1
