# generated using pymatgen
data_Ac2Pu3Si4
_symmetry_space_group_name_H-M   'P 1'
_cell_length_a   7.99545500
_cell_length_b   7.99545500
_cell_length_c   14.68995900
_cell_angle_alpha   90.00000000
_cell_angle_beta   90.00000000
_cell_angle_gamma   90.00000000
_symmetry_Int_Tables_number   1
_chemical_formula_structural   Ac2Pu3Si4
_chemical_formula_sum   'Ac8 Pu12 Si16'
_cell_volume   939.08942563
_cell_formula_units_Z   4
loop_
 _symmetry_equiv_pos_site_id
 _symmetry_equiv_pos_as_xyz
  1  'x, y, z'
loop_
 _atom_site_type_symbol
 _atom_site_label
 _atom_site_symmetry_multiplicity
 _atom_site_fract_x
 _atom_site_fract_y
 _atom_site_fract_z
 _atom_site_occupancy
  Ac  Ac0  1  0.145222  0.512781  0.286888  1
  Ac  Ac1  1  0.854778  0.487219  0.786888  1
  Ac  Ac2  1  0.012781  0.354778  0.036888  1
  Ac  Ac3  1  0.987219  0.645222  0.536888  1
  Ac  Ac4  1  0.487219  0.854778  0.213112  1
  Ac  Ac5  1  0.512781  0.145222  0.713112  1
  Ac  Ac6  1  0.354778  0.012781  0.963112  1
  Ac  Ac7  1  0.645222  0.987219  0.463112  1
  Pu  Pu8  1  0.181339  0.818661  0.750000  1
  Pu  Pu9  1  0.818661  0.181339  0.250000  1
  Pu  Pu10  1  0.318661  0.318661  0.500000  1
  Pu  Pu11  1  0.681339  0.681339  0.000000  1
  Pu  Pu12  1  0.134075  0.004976  0.375802  1
  Pu  Pu13  1  0.865925  0.995024  0.875802  1
  Pu  Pu14  1  0.504976  0.365925  0.125802  1
  Pu  Pu15  1  0.495024  0.634075  0.625802  1
  Pu  Pu16  1  0.995024  0.865925  0.124198  1
  Pu  Pu17  1  0.004976  0.134075  0.624198  1
  Pu  Pu18  1  0.365925  0.504976  0.874198  1
  Pu  Pu19  1  0.634075  0.495024  0.374198  1
  Si  Si20  1  0.350945  0.711175  0.441783  1
  Si  Si21  1  0.649055  0.288825  0.941783  1
  Si  Si22  1  0.211175  0.149055  0.191783  1
  Si  Si23  1  0.788825  0.850945  0.691783  1
  Si  Si24  1  0.288825  0.649055  0.058217  1
  Si  Si25  1  0.711175  0.350945  0.558217  1
  Si  Si26  1  0.149055  0.211175  0.808217  1
  Si  Si27  1  0.850945  0.788825  0.308217  1
  Si  Si28  1  0.289708  0.928412  0.558408  1
  Si  Si29  1  0.710292  0.071588  0.058408  1
  Si  Si30  1  0.428412  0.210292  0.308408  1
  Si  Si31  1  0.571588  0.789708  0.808408  1
  Si  Si32  1  0.071588  0.710292  0.941592  1
  Si  Si33  1  0.928412  0.289708  0.441592  1
  Si  Si34  1  0.210292  0.428412  0.691592  1
  Si  Si35  1  0.789708  0.571588  0.191592  1
