# generated using pymatgen
data_Tb3Pr9(YPb2)8
_symmetry_space_group_name_H-M   'P 1'
_cell_length_a   8.33897236
_cell_length_b   8.40451791
_cell_length_c   15.93171300
_cell_angle_alpha   90.03010502
_cell_angle_beta   90.15712266
_cell_angle_gamma   90.20292146
_symmetry_Int_Tables_number   1
_chemical_formula_structural   Tb3Pr9(YPb2)8
_chemical_formula_sum   'Tb3 Pr9 Y8 Pb16'
_cell_volume   1116.56342232
_cell_formula_units_Z   1
loop_
 _symmetry_equiv_pos_site_id
 _symmetry_equiv_pos_as_xyz
  1  'x, y, z'
loop_
 _atom_site_type_symbol
 _atom_site_label
 _atom_site_symmetry_multiplicity
 _atom_site_fract_x
 _atom_site_fract_y
 _atom_site_fract_z
 _atom_site_occupancy
  Tb  Tb0  1  0.631354  0.159904  0.622155  1
  Tb  Tb1  1  0.131578  0.340662  0.878955  1
  Tb  Tb2  1  0.368060  0.841161  0.121859  1
  Pr  Pr3  1  0.128727  0.339165  0.619023  1
  Pr  Pr4  1  0.473813  0.678689  0.598322  1
  Pr  Pr5  1  0.975932  0.822634  0.903845  1
  Pr  Pr6  1  0.524636  0.322868  0.097609  1
  Pr  Pr7  1  0.026878  0.176127  0.399903  1
  Pr  Pr8  1  0.524444  0.322946  0.401187  1
  Pr  Pr9  1  0.024465  0.177366  0.098029  1
  Pr  Pr10  1  0.476498  0.678346  0.903240  1
  Pr  Pr11  1  0.974316  0.822813  0.598089  1
  Y  Y12  1  0.868917  0.657836  0.378408  1
  Y  Y13  1  0.370517  0.841753  0.376040  1
  Y  Y14  1  0.867632  0.658982  0.121979  1
  Y  Y15  1  0.631782  0.158533  0.879687  1
  Y  Y16  1  0.796095  0.495330  0.751007  1
  Y  Y17  1  0.297911  0.004122  0.750701  1
  Y  Y18  1  0.203204  0.505033  0.249134  1
  Y  Y19  1  0.703781  0.995548  0.250062  1
  Pb  Pb20  1  0.708995  0.961223  0.456387  1
  Pb  Pb21  1  0.206474  0.539503  0.043559  1
  Pb  Pb22  1  0.293113  0.039652  0.957095  1
  Pb  Pb23  1  0.783825  0.464719  0.542930  1
  Pb  Pb24  1  0.295868  0.032678  0.542054  1
  Pb  Pb25  1  0.793230  0.460894  0.957163  1
  Pb  Pb26  1  0.707567  0.960180  0.044031  1
  Pb  Pb27  1  0.209417  0.542467  0.453108  1
  Pb  Pb28  1  0.435371  0.371647  0.751913  1
  Pb  Pb29  1  0.932221  0.124681  0.751903  1
  Pb  Pb30  1  0.566508  0.628028  0.249291  1
  Pb  Pb31  1  0.065430  0.871305  0.249926  1
  Pb  Pb32  1  0.662667  0.851867  0.750892  1
  Pb  Pb33  1  0.162167  0.650449  0.751721  1
  Pb  Pb34  1  0.338082  0.149404  0.249206  1
  Pb  Pb35  1  0.838522  0.351488  0.249590  1
