# generated using pymatgen
data_Dy5Y3CdHgIr2
_symmetry_space_group_name_H-M   'P 1'
_cell_length_a   9.63017735
_cell_length_b   9.63017687
_cell_length_c   9.63914800
_cell_angle_alpha   59.96917930
_cell_angle_beta   59.96918094
_cell_angle_gamma   59.96085340
_symmetry_Int_Tables_number   1
_chemical_formula_structural   Dy5Y3CdHgIr2
_chemical_formula_sum   'Dy10 Y6 Cd2 Hg2 Ir4'
_cell_volume   631.62774400
_cell_formula_units_Z   2
loop_
 _symmetry_equiv_pos_site_id
 _symmetry_equiv_pos_as_xyz
  1  'x, y, z'
loop_
 _atom_site_type_symbol
 _atom_site_label
 _atom_site_symmetry_multiplicity
 _atom_site_fract_x
 _atom_site_fract_y
 _atom_site_fract_z
 _atom_site_occupancy
  Dy  Dy0  1  0.349643  0.349643  0.348134  1
  Dy  Dy1  1  0.349643  0.349643  0.952580  1
  Dy  Dy2  1  0.351251  0.949494  0.349627  1
  Dy  Dy3  1  0.949494  0.351251  0.349627  1
  Dy  Dy4  1  0.809313  0.189024  0.191491  1
  Dy  Dy5  1  0.189024  0.809313  0.810172  1
  Dy  Dy6  1  0.189024  0.809313  0.191491  1
  Dy  Dy7  1  0.809313  0.189024  0.810172  1
  Dy  Dy8  1  0.189699  0.189699  0.810301  1
  Dy  Dy9  1  0.809012  0.809012  0.190988  1
  Y  Y10  1  0.937753  0.561303  0.562154  1
  Y  Y11  1  0.561303  0.937753  0.938790  1
  Y  Y12  1  0.561303  0.937753  0.562154  1
  Y  Y13  1  0.937753  0.561303  0.938790  1
  Y  Y14  1  0.561453  0.561453  0.938547  1
  Y  Y15  1  0.938135  0.938135  0.561865  1
  Cd  Cd16  1  0.580159  0.257890  0.580976  1
  Cd  Cd17  1  0.257890  0.580159  0.580976  1
  Hg  Hg18  1  0.583636  0.583636  0.585636  1
  Hg  Hg19  1  0.583636  0.583636  0.247093  1
  Ir  Ir20  1  0.142044  0.142044  0.141166  1
  Ir  Ir21  1  0.142044  0.142044  0.574746  1
  Ir  Ir22  1  0.142117  0.575360  0.141261  1
  Ir  Ir23  1  0.575360  0.142117  0.141261  1
