# generated using pymatgen
data_YHo5In2F20
_symmetry_space_group_name_H-M   'P 1'
_cell_length_a   8.25853167
_cell_length_b   8.26126322
_cell_length_c   8.26126245
_cell_angle_alpha   59.97795145
_cell_angle_beta   60.01060933
_cell_angle_gamma   60.01060670
_symmetry_Int_Tables_number   1
_chemical_formula_structural   YHo5In2F20
_chemical_formula_sum   'Y1 Ho5 In2 F20'
_cell_volume   398.54548468
_cell_formula_units_Z   1
loop_
 _symmetry_equiv_pos_site_id
 _symmetry_equiv_pos_as_xyz
  1  'x, y, z'
loop_
 _atom_site_type_symbol
 _atom_site_label
 _atom_site_symmetry_multiplicity
 _atom_site_fract_x
 _atom_site_fract_y
 _atom_site_fract_z
 _atom_site_occupancy
  Y  Y0  1  0.759234  0.240766  0.240766  1
  Ho  Ho1  1  0.240875  0.759125  0.759125  1
  Ho  Ho2  1  0.240840  0.759160  0.240916  1
  Ho  Ho3  1  0.759084  0.240915  0.759161  1
  Ho  Ho4  1  0.240840  0.240916  0.759160  1
  Ho  Ho5  1  0.759084  0.759161  0.240915  1
  In  In6  1  0.249981  0.250020  0.250020  1
  In  In7  1  0.749981  0.750019  0.750019  1
  F  F8  1  0.829048  0.500005  0.500005  1
  F  F9  1  0.170940  0.500006  0.500006  1
  F  F10  1  0.499993  0.829058  0.170954  1
  F  F11  1  0.499993  0.170954  0.829058  1
  F  F12  1  0.500002  0.829066  0.499998  1
  F  F13  1  0.170935  0.499997  0.829065  1
  F  F14  1  0.498596  0.170415  0.501404  1
  F  F15  1  0.829586  0.501404  0.170414  1
  F  F16  1  0.500002  0.499998  0.829066  1
  F  F17  1  0.498596  0.501404  0.170415  1
  F  F18  1  0.170935  0.829065  0.499997  1
  F  F19  1  0.829586  0.170414  0.501404  1
  F  F20  1  0.111786  0.110177  0.110177  1
  F  F21  1  0.889448  0.889356  0.889356  1
  F  F22  1  0.110644  0.110551  0.668160  1
  F  F23  1  0.110644  0.668160  0.110551  1
  F  F24  1  0.889824  0.888214  0.332139  1
  F  F25  1  0.889824  0.332139  0.888214  1
  F  F26  1  0.667860  0.110177  0.110177  1
  F  F27  1  0.331840  0.889356  0.889356  1
