# generated using pymatgen
data_Zn6Fe6PtRh11
_symmetry_space_group_name_H-M   'P 1'
_cell_length_a   4.26338500
_cell_length_b   6.05262100
_cell_length_c   12.79285900
_cell_angle_alpha   89.99994025
_cell_angle_beta   90.00043448
_cell_angle_gamma   89.99986654
_symmetry_Int_Tables_number   1
_chemical_formula_structural   Zn6Fe6PtRh11
_chemical_formula_sum   'Zn6 Fe6 Pt1 Rh11'
_cell_volume   330.11529481
_cell_formula_units_Z   1
loop_
 _symmetry_equiv_pos_site_id
 _symmetry_equiv_pos_as_xyz
  1  'x, y, z'
loop_
 _atom_site_type_symbol
 _atom_site_label
 _atom_site_symmetry_multiplicity
 _atom_site_fract_x
 _atom_site_fract_y
 _atom_site_fract_z
 _atom_site_occupancy
  Zn  Zn0  1  0.000000  0.502566  0.000000  1
  Zn  Zn1  1  0.499872  0.998806  0.167793  1
  Zn  Zn2  1  0.999908  0.499869  0.333566  1
  Zn  Zn3  1  0.500001  0.000119  0.500000  1
  Zn  Zn4  1  0.000093  0.499869  0.666434  1
  Zn  Zn5  1  0.500127  0.998806  0.832207  1
  Fe  Fe6  1  0.999999  0.994332  0.000000  1
  Fe  Fe7  1  0.499857  0.502390  0.169114  1
  Fe  Fe8  1  0.999867  0.000382  0.333913  1
  Fe  Fe9  1  0.500000  0.499649  0.500000  1
  Fe  Fe10  1  0.000131  0.000375  0.666088  1
  Fe  Fe11  1  0.500143  0.502392  0.830887  1
  Pt  Pt12  1  0.500001  0.250129  0.000000  1
  Rh  Rh13  1  0.500000  0.750395  0.000000  1
  Rh  Rh14  1  0.999876  0.249826  0.166216  1
  Rh  Rh15  1  0.999881  0.750065  0.166793  1
  Rh  Rh16  1  0.499895  0.250276  0.333000  1
  Rh  Rh17  1  0.499896  0.749745  0.333266  1
  Rh  Rh18  1  0.000001  0.249846  0.500000  1
  Rh  Rh19  1  0.999999  0.750245  0.499999  1
  Rh  Rh20  1  0.500104  0.250276  0.666999  1
  Rh  Rh21  1  0.500103  0.749745  0.666735  1
  Rh  Rh22  1  0.000126  0.249824  0.833785  1
  Rh  Rh23  1  0.000120  0.750067  0.833206  1
