# generated using pymatgen
data_Ca6Nb4Al12Ir7
_symmetry_space_group_name_H-M   'P 1'
_cell_length_a   9.05143577
_cell_length_b   9.05136917
_cell_length_c   9.05176200
_cell_angle_alpha   60.00035940
_cell_angle_beta   60.00057201
_cell_angle_gamma   59.99902003
_symmetry_Int_Tables_number   1
_chemical_formula_structural   Ca6Nb4Al12Ir7
_chemical_formula_sum   'Ca6 Nb4 Al12 Ir7'
_cell_volume   524.38434915
_cell_formula_units_Z   1
loop_
 _symmetry_equiv_pos_site_id
 _symmetry_equiv_pos_as_xyz
  1  'x, y, z'
loop_
 _atom_site_type_symbol
 _atom_site_label
 _atom_site_symmetry_multiplicity
 _atom_site_fract_x
 _atom_site_fract_y
 _atom_site_fract_z
 _atom_site_occupancy
  Ca  Ca0  1  0.702217  0.702218  0.297780  1
  Ca  Ca1  1  0.297783  0.702220  0.297778  1
  Ca  Ca2  1  0.702219  0.297786  0.297776  1
  Ca  Ca3  1  0.297780  0.297778  0.702221  1
  Ca  Ca4  1  0.702220  0.297783  0.702219  1
  Ca  Ca5  1  0.297781  0.702220  0.702220  1
  Nb  Nb6  1  0.879909  0.879907  0.360271  1
  Nb  Nb7  1  0.879895  0.360301  0.879905  1
  Nb  Nb8  1  0.360299  0.879894  0.879908  1
  Nb  Nb9  1  0.879900  0.879897  0.879910  1
  Al  Al10  1  0.120957  0.120959  0.637129  1
  Al  Al11  1  0.120962  0.637124  0.120955  1
  Al  Al12  1  0.637124  0.120962  0.120954  1
  Al  Al13  1  0.120960  0.120961  0.120953  1
  Al  Al14  1  0.670685  0.670682  0.987942  1
  Al  Al15  1  0.670673  0.987950  0.670697  1
  Al  Al16  1  0.987949  0.670671  0.670698  1
  Al  Al17  1  0.670678  0.670674  0.670701  1
  Al  Al18  1  0.326590  0.326591  0.020232  1
  Al  Al19  1  0.326591  0.020234  0.326586  1
  Al  Al20  1  0.020233  0.326592  0.326586  1
  Al  Al21  1  0.326591  0.326592  0.326586  1
  Ir  Ir22  1  0.999998  0.999996  0.000006  1
  Ir  Ir23  1  0.997917  0.997917  0.502076  1
  Ir  Ir24  1  0.502093  0.997918  0.502070  1
  Ir  Ir25  1  0.997920  0.502094  0.502067  1
  Ir  Ir26  1  0.502073  0.502076  0.997926  1
  Ir  Ir27  1  0.997926  0.502080  0.997925  1
  Ir  Ir28  1  0.502080  0.997924  0.997924  1
