# generated using pymatgen
data_SmDyZn4Ru
_symmetry_space_group_name_H-M   'P 1'
_cell_length_a   7.01930100
_cell_length_b   7.01930100
_cell_length_c   5.32724700
_cell_angle_alpha   90.00000000
_cell_angle_beta   90.00000000
_cell_angle_gamma   90.00000000
_symmetry_Int_Tables_number   1
_chemical_formula_structural   SmDyZn4Ru
_chemical_formula_sum   'Sm2 Dy2 Zn8 Ru2'
_cell_volume   262.47658427
_cell_formula_units_Z   2
loop_
 _symmetry_equiv_pos_site_id
 _symmetry_equiv_pos_as_xyz
  1  'x, y, z'
loop_
 _atom_site_type_symbol
 _atom_site_label
 _atom_site_symmetry_multiplicity
 _atom_site_fract_x
 _atom_site_fract_y
 _atom_site_fract_z
 _atom_site_occupancy
  Sm  Sm0  1  0.000000  0.500000  0.769282  1
  Sm  Sm1  1  0.500000  0.000000  0.230718  1
  Dy  Dy2  1  0.000000  0.000000  0.000000  1
  Dy  Dy3  1  0.500000  0.500000  0.000000  1
  Zn  Zn4  1  0.187098  0.687098  0.292088  1
  Zn  Zn5  1  0.812902  0.687098  0.292088  1
  Zn  Zn6  1  0.812902  0.312902  0.292088  1
  Zn  Zn7  1  0.312902  0.187098  0.707912  1
  Zn  Zn8  1  0.187098  0.312902  0.292088  1
  Zn  Zn9  1  0.687098  0.187098  0.707912  1
  Zn  Zn10  1  0.687098  0.812902  0.707912  1
  Zn  Zn11  1  0.312902  0.812902  0.707912  1
  Ru  Ru12  1  0.500000  0.500000  0.500000  1
  Ru  Ru13  1  0.000000  0.000000  0.500000  1
