# generated using pymatgen
data_Be15Nb6(Cu3Rh)2
_symmetry_space_group_name_H-M   'P 1'
_cell_length_a   7.71293821
_cell_length_b   7.71293871
_cell_length_c   7.71294002
_cell_angle_alpha   59.89979236
_cell_angle_beta   59.89979294
_cell_angle_gamma   59.89979647
_symmetry_Int_Tables_number   1
_chemical_formula_structural   Be15Nb6(Cu3Rh)2
_chemical_formula_sum   'Be15 Nb6 Cu6 Rh2'
_cell_volume   323.71010850
_cell_formula_units_Z   1
loop_
 _symmetry_equiv_pos_site_id
 _symmetry_equiv_pos_as_xyz
  1  'x, y, z'
loop_
 _atom_site_type_symbol
 _atom_site_label
 _atom_site_symmetry_multiplicity
 _atom_site_fract_x
 _atom_site_fract_y
 _atom_site_fract_z
 _atom_site_occupancy
  Be  Be0  1  0.327383  0.327383  0.327383  1
  Be  Be1  1  0.672617  0.672617  0.672617  1
  Be  Be2  1  0.326484  0.326484  0.020395  1
  Be  Be3  1  0.326484  0.020395  0.326484  1
  Be  Be4  1  0.673516  0.673516  0.979605  1
  Be  Be5  1  0.673516  0.979605  0.673516  1
  Be  Be6  1  0.020395  0.326484  0.326484  1
  Be  Be7  1  0.979605  0.673516  0.673516  1
  Be  Be8  1  0.500000  0.000000  0.000000  1
  Be  Be9  1  0.000000  0.500000  0.500000  1
  Be  Be10  1  0.000000  0.500000  0.000000  1
  Be  Be11  1  0.500000  0.000000  0.500000  1
  Be  Be12  1  0.000000  0.000000  0.500000  1
  Be  Be13  1  0.500000  0.500000  0.000000  1
  Be  Be14  1  0.000000  0.000000  0.000000  1
  Nb  Nb15  1  0.698210  0.305087  0.305087  1
  Nb  Nb16  1  0.301790  0.694913  0.694913  1
  Nb  Nb17  1  0.305087  0.698210  0.305087  1
  Nb  Nb18  1  0.694913  0.301790  0.694913  1
  Nb  Nb19  1  0.305087  0.305087  0.698210  1
  Nb  Nb20  1  0.694913  0.694913  0.301790  1
  Cu  Cu21  1  0.125397  0.125397  0.627912  1
  Cu  Cu22  1  0.125397  0.627912  0.125397  1
  Cu  Cu23  1  0.874603  0.874603  0.372088  1
  Cu  Cu24  1  0.874603  0.372088  0.874603  1
  Cu  Cu25  1  0.627912  0.125397  0.125397  1
  Cu  Cu26  1  0.372088  0.874603  0.874603  1
  Rh  Rh27  1  0.121829  0.121829  0.121829  1
  Rh  Rh28  1  0.878171  0.878171  0.878171  1
