# generated using pymatgen
data_K3LaIr2O9
_symmetry_space_group_name_H-M   'P 1'
_cell_length_a   6.11735911
_cell_length_b   6.11721024
_cell_length_c   15.04752406
_cell_angle_alpha   91.23459927
_cell_angle_beta   91.23904983
_cell_angle_gamma   119.87812890
_symmetry_Int_Tables_number   1
_chemical_formula_structural   K3LaIr2O9
_chemical_formula_sum   'K6 La2 Ir4 O18'
_cell_volume   487.79968316
_cell_formula_units_Z   2
loop_
 _symmetry_equiv_pos_site_id
 _symmetry_equiv_pos_as_xyz
  1  'x, y, z'
loop_
 _atom_site_type_symbol
 _atom_site_label
 _atom_site_symmetry_multiplicity
 _atom_site_fract_x
 _atom_site_fract_y
 _atom_site_fract_z
 _atom_site_occupancy
  K  K0  1  0.343906  0.677309  0.106966  1
  K  K1  1  0.989997  0.010104  0.250076  1
  K  K2  1  0.322433  0.655863  0.393309  1
  K  K3  1  0.677598  0.344214  0.606742  1
  K  K4  1  0.010084  0.990228  0.749936  1
  K  K5  1  0.656106  0.322702  0.892870  1
  La  La6  1  0.000050  0.000045  0.000025  1
  La  La7  1  0.999998  0.999941  0.499981  1
  Ir  Ir8  1  0.685578  0.354810  0.156991  1
  Ir  Ir9  1  0.645157  0.314375  0.343101  1
  Ir  Ir10  1  0.354834  0.685577  0.656917  1
  Ir  Ir11  1  0.314447  0.645192  0.843018  1
  O  O12  1  0.400811  0.219453  0.076924  1
  O  O13  1  0.853782  0.217256  0.091182  1
  O  O14  1  0.853489  0.672903  0.102643  1
  O  O15  1  0.530002  0.064183  0.239036  1
  O  O16  1  0.528967  0.470966  0.249978  1
  O  O17  1  0.935754  0.469926  0.260935  1
  O  O18  1  0.327141  0.146534  0.397427  1
  O  O19  1  0.782677  0.146228  0.408876  1
  O  O20  1  0.780539  0.599169  0.423093  1
  O  O21  1  0.219411  0.400727  0.576927  1
  O  O22  1  0.217285  0.853688  0.591136  1
  O  O23  1  0.672814  0.853385  0.602582  1
  O  O24  1  0.064201  0.529999  0.739081  1
  O  O25  1  0.470997  0.528966  0.750033  1
  O  O26  1  0.469967  0.935774  0.760954  1
  O  O27  1  0.146533  0.327137  0.897385  1
  O  O28  1  0.146215  0.782753  0.908816  1
  O  O29  1  0.599232  0.780597  0.923057  1
