# generated using pymatgen
data_Tb2Ho4Al24PdRu7
_symmetry_space_group_name_H-M   'P 1'
_cell_length_a   8.81705811
_cell_length_b   8.81469753
_cell_length_c   9.55029617
_cell_angle_alpha   89.80397987
_cell_angle_beta   90.19021484
_cell_angle_gamma   119.70741177
_symmetry_Int_Tables_number   1
_chemical_formula_structural   Tb2Ho4Al24PdRu7
_chemical_formula_sum   'Tb2 Ho4 Al24 Pd1 Ru7'
_cell_volume   644.68592525
_cell_formula_units_Z   1
loop_
 _symmetry_equiv_pos_site_id
 _symmetry_equiv_pos_as_xyz
  1  'x, y, z'
loop_
 _atom_site_type_symbol
 _atom_site_label
 _atom_site_symmetry_multiplicity
 _atom_site_fract_x
 _atom_site_fract_y
 _atom_site_fract_z
 _atom_site_occupancy
  Tb  Tb0  1  0.191544  0.386662  0.250839  1
  Tb  Tb1  1  0.808456  0.613338  0.749161  1
  Ho  Ho2  1  0.613207  0.808424  0.250906  1
  Ho  Ho3  1  0.386793  0.191576  0.749094  1
  Ho  Ho4  1  0.194269  0.805748  0.251887  1
  Ho  Ho5  1  0.805731  0.194252  0.748113  1
  Al  Al6  1  0.330389  0.669780  0.019691  1
  Al  Al7  1  0.669611  0.330220  0.980309  1
  Al  Al8  1  0.666752  0.333083  0.516415  1
  Al  Al9  1  0.333248  0.666917  0.483585  1
  Al  Al10  1  0.162841  0.324018  0.578640  1
  Al  Al11  1  0.837159  0.675982  0.421360  1
  Al  Al12  1  0.675962  0.837240  0.578546  1
  Al  Al13  1  0.843767  0.677333  0.079409  1
  Al  Al14  1  0.324038  0.162760  0.421454  1
  Al  Al15  1  0.156233  0.322667  0.920591  1
  Al  Al16  1  0.162719  0.837430  0.578502  1
  Al  Al17  1  0.322691  0.156193  0.079324  1
  Al  Al18  1  0.837281  0.162570  0.421498  1
  Al  Al19  1  0.677309  0.843807  0.920676  1
  Al  Al20  1  0.837348  0.162505  0.077896  1
  Al  Al21  1  0.162652  0.837495  0.922104  1
  Al  Al22  1  0.560560  0.121717  0.248983  1
  Al  Al23  1  0.439440  0.878283  0.751017  1
  Al  Al24  1  0.878150  0.439461  0.248985  1
  Al  Al25  1  0.121850  0.560539  0.751015  1
  Al  Al26  1  0.561853  0.438295  0.252310  1
  Al  Al27  1  0.438147  0.561705  0.747690  1
  Al  Al28  1  0.999323  0.000503  0.250123  1
  Al  Al29  1  0.000677  0.999497  0.749877  1
  Pd  Pd30  1  0.500000  0.500000  0.000000  1
  Ru  Ru31  1  0.500000  0.000000  0.000000  1
  Ru  Ru32  1  0.000000  0.500000  0.000000  1
  Ru  Ru33  1  0.500000  0.000000  0.500000  1
  Ru  Ru34  1  0.000000  0.500000  0.500000  1
  Ru  Ru35  1  0.500000  0.500000  0.500000  1
  Ru  Ru36  1  0.000000  0.000000  0.000000  1
  Ru  Ru37  1  0.000000  0.000000  0.500000  1
