# generated using pymatgen
data_Li4ErPu3Si8
_symmetry_space_group_name_H-M   'P 1'
_cell_length_a   3.78537800
_cell_length_b   7.65859639
_cell_length_c   10.18539473
_cell_angle_alpha   89.96868184
_cell_angle_beta   90.00000000
_cell_angle_gamma   90.00000000
_symmetry_Int_Tables_number   1
_chemical_formula_structural   Li4ErPu3Si8
_chemical_formula_sum   'Li4 Er1 Pu3 Si8'
_cell_volume   295.28149855
_cell_formula_units_Z   1
loop_
 _symmetry_equiv_pos_site_id
 _symmetry_equiv_pos_as_xyz
  1  'x, y, z'
loop_
 _atom_site_type_symbol
 _atom_site_label
 _atom_site_symmetry_multiplicity
 _atom_site_fract_x
 _atom_site_fract_y
 _atom_site_fract_z
 _atom_site_occupancy
  Li  Li0  1  0.250000  0.488489  0.393923  1
  Li  Li1  1  0.250000  0.989484  0.104405  1
  Li  Li2  1  0.750000  0.510263  0.604701  1
  Li  Li3  1  0.750000  0.010691  0.896066  1
  Er  Er4  1  0.750000  0.366421  0.136042  1
  Pu  Pu5  1  0.250000  0.136696  0.637074  1
  Pu  Pu6  1  0.250000  0.636927  0.863445  1
  Pu  Pu7  1  0.750000  0.861680  0.363024  1
  Si  Si8  1  0.250000  0.239152  0.934710  1
  Si  Si9  1  0.250000  0.739398  0.567033  1
  Si  Si10  1  0.750000  0.757279  0.065776  1
  Si  Si11  1  0.750000  0.261431  0.432296  1
  Si  Si12  1  0.250000  0.157122  0.316758  1
  Si  Si13  1  0.250000  0.658015  0.182808  1
  Si  Si14  1  0.750000  0.843133  0.682204  1
  Si  Si15  1  0.750000  0.343818  0.819736  1
