# generated using pymatgen
data_Nd2Dy2P7Ir8
_symmetry_space_group_name_H-M   'P 1'
_cell_length_a   3.95785200
_cell_length_b   12.79017474
_cell_length_c   13.18898109
_cell_angle_alpha   80.88758892
_cell_angle_beta   90.00000000
_cell_angle_gamma   90.00000000
_symmetry_Int_Tables_number   1
_chemical_formula_structural   Nd2Dy2P7Ir8
_chemical_formula_sum   'Nd4 Dy4 P14 Ir16'
_cell_volume   659.22154129
_cell_formula_units_Z   2
loop_
 _symmetry_equiv_pos_site_id
 _symmetry_equiv_pos_as_xyz
  1  'x, y, z'
loop_
 _atom_site_type_symbol
 _atom_site_label
 _atom_site_symmetry_multiplicity
 _atom_site_fract_x
 _atom_site_fract_y
 _atom_site_fract_z
 _atom_site_occupancy
  Nd  Nd0  1  0.250000  0.105295  0.787658  1
  Nd  Nd1  1  0.750000  0.894705  0.212342  1
  Nd  Nd2  1  0.250000  0.279666  0.102123  1
  Nd  Nd3  1  0.750000  0.720334  0.897877  1
  Dy  Dy4  1  0.250000  0.520227  0.294327  1
  Dy  Dy5  1  0.750000  0.479773  0.705673  1
  Dy  Dy6  1  0.250000  0.208525  0.439427  1
  Dy  Dy7  1  0.750000  0.791475  0.560573  1
  P  P8  1  0.250000  0.051219  0.100355  1
  P  P9  1  0.750000  0.948781  0.899645  1
  P  P10  1  0.250000  0.315846  0.686937  1
  P  P11  1  0.750000  0.684154  0.313063  1
  P  P12  1  0.250000  0.607697  0.566124  1
  P  P13  1  0.750000  0.392303  0.433876  1
  P  P14  1  0.250000  0.842073  0.716114  1
  P  P15  1  0.750000  0.157927  0.283886  1
  P  P16  1  0.750000  0.258561  0.917860  1
  P  P17  1  0.250000  0.741439  0.082140  1
  P  P18  1  0.750000  0.092952  0.587920  1
  P  P19  1  0.250000  0.907048  0.412080  1
  P  P20  1  0.750000  0.472488  0.129477  1
  P  P21  1  0.250000  0.527512  0.870523  1
  Ir  Ir22  1  0.250000  0.990541  0.575977  1
  Ir  Ir23  1  0.750000  0.009459  0.424023  1
  Ir  Ir24  1  0.250000  0.661066  0.728482  1
  Ir  Ir25  1  0.750000  0.338934  0.271518  1
  Ir  Ir26  1  0.250000  0.551826  0.047903  1
  Ir  Ir27  1  0.750000  0.448174  0.952097  1
  Ir  Ir28  1  0.250000  0.063025  0.273557  1
  Ir  Ir29  1  0.750000  0.936975  0.726443  1
  Ir  Ir30  1  0.250000  0.422384  0.522940  1
  Ir  Ir31  1  0.750000  0.577616  0.477060  1
  Ir  Ir32  1  0.250000  0.914527  0.997791  1
  Ir  Ir33  1  0.750000  0.085473  0.002209  1
  Ir  Ir34  1  0.250000  0.728288  0.396766  1
  Ir  Ir35  1  0.750000  0.271712  0.603234  1
  Ir  Ir36  1  0.250000  0.343568  0.856076  1
  Ir  Ir37  1  0.750000  0.656432  0.143924  1
