# generated using pymatgen
data_La10CoTcSn4
_symmetry_space_group_name_H-M   'P 1'
_cell_length_a   8.41704500
_cell_length_b   9.18356100
_cell_length_c   12.83139200
_cell_angle_alpha   90.00000000
_cell_angle_beta   90.00000000
_cell_angle_gamma   90.00000000
_symmetry_Int_Tables_number   1
_chemical_formula_structural   La10CoTcSn4
_chemical_formula_sum   'La20 Co2 Tc2 Sn8'
_cell_volume   991.84666415
_cell_formula_units_Z   2
loop_
 _symmetry_equiv_pos_site_id
 _symmetry_equiv_pos_as_xyz
  1  'x, y, z'
loop_
 _atom_site_type_symbol
 _atom_site_label
 _atom_site_symmetry_multiplicity
 _atom_site_fract_x
 _atom_site_fract_y
 _atom_site_fract_z
 _atom_site_occupancy
  La  La0  1  0.320604  0.529110  0.435110  1
  La  La1  1  0.873114  0.250000  0.803227  1
  La  La2  1  0.179396  0.529110  0.935110  1
  La  La3  1  0.320604  0.970890  0.435110  1
  La  La4  1  0.122062  0.750000  0.195618  1
  La  La5  1  0.844568  0.750000  0.791335  1
  La  La6  1  0.377938  0.750000  0.695618  1
  La  La7  1  0.950982  0.750000  0.502165  1
  La  La8  1  0.443114  0.250000  0.997684  1
  La  La9  1  0.676510  0.466523  0.565887  1
  La  La10  1  0.823490  0.033477  0.065887  1
  La  La11  1  0.655432  0.750000  0.291335  1
  La  La12  1  0.549018  0.750000  0.002165  1
  La  La13  1  0.056886  0.250000  0.497684  1
  La  La14  1  0.676510  0.033477  0.565887  1
  La  La15  1  0.179396  0.970890  0.935110  1
  La  La16  1  0.626886  0.250000  0.303227  1
  La  La17  1  0.345161  0.250000  0.703344  1
  La  La18  1  0.823490  0.466523  0.065887  1
  La  La19  1  0.154839  0.250000  0.203344  1
  Co  Co20  1  0.083075  0.250000  0.985057  1
  Co  Co21  1  0.416925  0.250000  0.485057  1
  Tc  Tc22  1  0.916113  0.750000  0.018118  1
  Tc  Tc23  1  0.583887  0.750000  0.518118  1
  Sn  Sn24  1  0.929290  0.492049  0.327967  1
  Sn  Sn25  1  0.430269  0.505804  0.172763  1
  Sn  Sn26  1  0.430269  0.994196  0.172763  1
  Sn  Sn27  1  0.570710  0.492049  0.827967  1
  Sn  Sn28  1  0.069731  0.505804  0.672763  1
  Sn  Sn29  1  0.570710  0.007951  0.827967  1
  Sn  Sn30  1  0.929290  0.007951  0.327967  1
  Sn  Sn31  1  0.069731  0.994196  0.672763  1
