# generated using pymatgen
data_Tb4ReTcB12
_symmetry_space_group_name_H-M   'P 1'
_cell_length_a   3.70588200
_cell_length_b   9.19924807
_cell_length_c   11.58910435
_cell_angle_alpha   90.05531393
_cell_angle_beta   90.00000000
_cell_angle_gamma   90.00000000
_symmetry_Int_Tables_number   1
_chemical_formula_structural   Tb4ReTcB12
_chemical_formula_sum   'Tb8 Re2 Tc2 B24'
_cell_volume   395.08777169
_cell_formula_units_Z   2
loop_
 _symmetry_equiv_pos_site_id
 _symmetry_equiv_pos_as_xyz
  1  'x, y, z'
loop_
 _atom_site_type_symbol
 _atom_site_label
 _atom_site_symmetry_multiplicity
 _atom_site_fract_x
 _atom_site_fract_y
 _atom_site_fract_z
 _atom_site_occupancy
  Tb  Tb0  1  0.000000  0.324248  0.414013  1
  Tb  Tb1  1  0.000000  0.675752  0.585987  1
  Tb  Tb2  1  0.000000  0.823911  0.085903  1
  Tb  Tb3  1  0.000000  0.176089  0.914097  1
  Tb  Tb4  1  0.000000  0.941845  0.369726  1
  Tb  Tb5  1  0.000000  0.058155  0.630274  1
  Tb  Tb6  1  0.000000  0.443547  0.130696  1
  Tb  Tb7  1  0.000000  0.556453  0.869304  1
  Re  Re8  1  0.000000  0.138596  0.179412  1
  Re  Re9  1  0.000000  0.861404  0.820588  1
  Tc  Tc10  1  0.000000  0.638622  0.320799  1
  Tc  Tc11  1  0.000000  0.361378  0.679201  1
  B  B12  1  0.500000  0.553315  0.432628  1
  B  B13  1  0.500000  0.446685  0.567372  1
  B  B14  1  0.500000  0.053303  0.067342  1
  B  B15  1  0.500000  0.946697  0.932658  1
  B  B16  1  0.500000  0.747974  0.418065  1
  B  B17  1  0.500000  0.252026  0.581935  1
  B  B18  1  0.500000  0.248561  0.081983  1
  B  B19  1  0.500000  0.751439  0.918017  1
  B  B20  1  0.500000  0.791150  0.265387  1
  B  B21  1  0.500000  0.208850  0.734613  1
  B  B22  1  0.500000  0.291426  0.234763  1
  B  B23  1  0.500000  0.708574  0.765237  1
  B  B24  1  0.500000  0.631082  0.186017  1
  B  B25  1  0.500000  0.368918  0.813983  1
  B  B26  1  0.500000  0.130631  0.314263  1
  B  B27  1  0.500000  0.869369  0.685737  1
  B  B28  1  0.500000  0.982670  0.211757  1
  B  B29  1  0.500000  0.017330  0.788243  1
  B  B30  1  0.500000  0.483011  0.288395  1
  B  B31  1  0.500000  0.516989  0.711605  1
  B  B32  1  0.500000  0.600162  0.027819  1
  B  B33  1  0.500000  0.399838  0.972181  1
  B  B34  1  0.500000  0.099851  0.471883  1
  B  B35  1  0.500000  0.900149  0.528117  1
