# generated using pymatgen
data_SrLaNp2(NiAs)4
_symmetry_space_group_name_H-M   'P 1'
_cell_length_a   4.13176600
_cell_length_b   4.13176572
_cell_length_c   16.12883000
_cell_angle_alpha   90.00000000
_cell_angle_beta   90.00000000
_cell_angle_gamma   120.00000221
_symmetry_Int_Tables_number   1
_chemical_formula_structural   SrLaNp2(NiAs)4
_chemical_formula_sum   'Sr1 La1 Np2 Ni4 As4'
_cell_volume   238.45415404
_cell_formula_units_Z   1
loop_
 _symmetry_equiv_pos_site_id
 _symmetry_equiv_pos_as_xyz
  1  'x, y, z'
loop_
 _atom_site_type_symbol
 _atom_site_label
 _atom_site_symmetry_multiplicity
 _atom_site_fract_x
 _atom_site_fract_y
 _atom_site_fract_z
 _atom_site_occupancy
  Sr  Sr0  1  0.000000  0.000000  0.250000  1
  La  La1  1  0.000000  0.000000  0.750000  1
  Np  Np2  1  0.000000  0.000000  0.998100  1
  Np  Np3  1  0.000000  0.000000  0.501900  1
  Ni  Ni4  1  0.333333  0.666667  0.101099  1
  Ni  Ni5  1  0.666667  0.333333  0.893170  1
  Ni  Ni6  1  0.666667  0.333333  0.606830  1
  Ni  Ni7  1  0.333333  0.666667  0.398901  1
  As  As8  1  0.333333  0.666667  0.622494  1
  As  As9  1  0.666667  0.333333  0.387412  1
  As  As10  1  0.666667  0.333333  0.112588  1
  As  As11  1  0.333333  0.666667  0.877506  1
