# generated using pymatgen
data_ThPa3(CoP)4
_symmetry_space_group_name_H-M   'P 1'
_cell_length_a   3.91533100
_cell_length_b   3.91533165
_cell_length_c   15.44879000
_cell_angle_alpha   90.00000000
_cell_angle_beta   90.00000000
_cell_angle_gamma   120.00001982
_symmetry_Int_Tables_number   1
_chemical_formula_structural   ThPa3(CoP)4
_chemical_formula_sum   'Th1 Pa3 Co4 P4'
_cell_volume   205.09829650
_cell_formula_units_Z   1
loop_
 _symmetry_equiv_pos_site_id
 _symmetry_equiv_pos_as_xyz
  1  'x, y, z'
loop_
 _atom_site_type_symbol
 _atom_site_label
 _atom_site_symmetry_multiplicity
 _atom_site_fract_x
 _atom_site_fract_y
 _atom_site_fract_z
 _atom_site_occupancy
  Th  Th0  1  0.000000  0.000000  0.750000  1
  Pa  Pa1  1  0.000000  0.000000  0.250000  1
  Pa  Pa2  1  0.000000  0.000000  0.003988  1
  Pa  Pa3  1  0.000000  0.000000  0.496012  1
  Co  Co4  1  0.333333  0.666667  0.121809  1
  Co  Co5  1  0.666667  0.333333  0.895393  1
  Co  Co6  1  0.666667  0.333333  0.604607  1
  Co  Co7  1  0.333333  0.666667  0.378191  1
  P  P8  1  0.333333  0.666667  0.623613  1
  P  P9  1  0.666667  0.333333  0.368148  1
  P  P10  1  0.666667  0.333333  0.131852  1
  P  P11  1  0.333333  0.666667  0.876387  1
