# generated using pymatgen
data_Dy5LuCo14(P3Rh)4
_symmetry_space_group_name_H-M   'P 1'
_cell_length_a   3.72004200
_cell_length_b   10.66138765
_cell_length_c   12.36624378
_cell_angle_alpha   90.04035859
_cell_angle_beta   90.00000000
_cell_angle_gamma   90.00000000
_symmetry_Int_Tables_number   1
_chemical_formula_structural   Dy5LuCo14(P3Rh)4
_chemical_formula_sum   'Dy5 Lu1 Co14 P12 Rh4'
_cell_volume   490.45512128
_cell_formula_units_Z   1
loop_
 _symmetry_equiv_pos_site_id
 _symmetry_equiv_pos_as_xyz
  1  'x, y, z'
loop_
 _atom_site_type_symbol
 _atom_site_label
 _atom_site_symmetry_multiplicity
 _atom_site_fract_x
 _atom_site_fract_y
 _atom_site_fract_z
 _atom_site_occupancy
  Dy  Dy0  1  0.000000  0.500040  0.520218  1
  Dy  Dy1  1  0.500000  0.000072  0.479377  1
  Dy  Dy2  1  0.500000  0.185434  0.205962  1
  Dy  Dy3  1  0.000000  0.686024  0.793985  1
  Dy  Dy4  1  0.000000  0.314414  0.794579  1
  Lu  Lu5  1  0.500000  0.814136  0.205883  1
  Co  Co6  1  0.000000  0.501062  0.988991  1
  Co  Co7  1  0.500000  0.999475  0.012618  1
  Co  Co8  1  0.500000  0.332455  0.994033  1
  Co  Co9  1  0.500000  0.668813  0.994958  1
  Co  Co10  1  0.000000  0.167324  0.006586  1
  Co  Co11  1  0.000000  0.832285  0.007176  1
  Co  Co12  1  0.500000  0.299952  0.429507  1
  Co  Co13  1  0.500000  0.699504  0.427969  1
  Co  Co14  1  0.000000  0.199514  0.570409  1
  Co  Co15  1  0.000000  0.800288  0.569351  1
  Co  Co16  1  0.500000  0.880485  0.709487  1
  Co  Co17  1  0.500000  0.119499  0.710174  1
  Co  Co18  1  0.000000  0.620773  0.288694  1
  Co  Co19  1  0.000000  0.380540  0.290179  1
  P  P20  1  0.500000  0.500710  0.890253  1
  P  P21  1  0.000000  0.999160  0.111066  1
  P  P22  1  0.500000  0.499502  0.349472  1
  P  P23  1  0.000000  0.999960  0.650195  1
  P  P24  1  0.500000  0.302016  0.613313  1
  P  P25  1  0.500000  0.698145  0.612338  1
  P  P26  1  0.000000  0.197165  0.386626  1
  P  P27  1  0.000000  0.801694  0.385197  1
  P  P28  1  0.500000  0.844779  0.894672  1
  P  P29  1  0.500000  0.155261  0.895192  1
  P  P30  1  0.000000  0.657285  0.106544  1
  P  P31  1  0.000000  0.344567  0.105336  1
  Rh  Rh32  1  0.500000  0.500116  0.159757  1
  Rh  Rh33  1  0.000000  0.999544  0.840451  1
  Rh  Rh34  1  0.500000  0.500428  0.702849  1
  Rh  Rh35  1  0.000000  0.997580  0.296603  1
