# generated using pymatgen
data_TbNpTeN2
_symmetry_space_group_name_H-M   'P 1'
_cell_length_a   6.91422513
_cell_length_b   6.91422485
_cell_length_c   6.91422581
_cell_angle_alpha   147.08086847
_cell_angle_beta   147.08085501
_cell_angle_gamma   47.24406552
_symmetry_Int_Tables_number   1
_chemical_formula_structural   TbNpTeN2
_chemical_formula_sum   'Tb1 Np1 Te1 N2'
_cell_volume   97.25159164
_cell_formula_units_Z   1
loop_
 _symmetry_equiv_pos_site_id
 _symmetry_equiv_pos_as_xyz
  1  'x, y, z'
loop_
 _atom_site_type_symbol
 _atom_site_label
 _atom_site_symmetry_multiplicity
 _atom_site_fract_x
 _atom_site_fract_y
 _atom_site_fract_z
 _atom_site_occupancy
  Tb  Tb0  1  0.341153  0.341153  0.000000  1
  Np  Np1  1  0.670471  0.670471  0.000000  1
  Te  Te2  1  0.001953  0.001953  0.000000  1
  N  N3  1  0.743212  0.243212  0.500000  1
  N  N4  1  0.243212  0.743212  0.500000  1
