# generated using pymatgen
data_Zr3GaRh2N
_symmetry_space_group_name_H-M   'P 1'
_cell_length_a   8.58146862
_cell_length_b   8.58146904
_cell_length_c   8.58147000
_cell_angle_alpha   60.00000401
_cell_angle_beta   60.00000237
_cell_angle_gamma   59.99999432
_symmetry_Int_Tables_number   1
_chemical_formula_structural   Zr3GaRh2N
_chemical_formula_sum   'Zr12 Ga4 Rh8 N4'
_cell_volume   446.85842606
_cell_formula_units_Z   4
loop_
 _symmetry_equiv_pos_site_id
 _symmetry_equiv_pos_as_xyz
  1  'x, y, z'
loop_
 _atom_site_type_symbol
 _atom_site_label
 _atom_site_symmetry_multiplicity
 _atom_site_fract_x
 _atom_site_fract_y
 _atom_site_fract_z
 _atom_site_occupancy
  Zr  Zr0  1  0.808906  0.808906  0.191094  1
  Zr  Zr1  1  0.191094  0.191094  0.808906  1
  Zr  Zr2  1  0.808906  0.191094  0.808906  1
  Zr  Zr3  1  0.191094  0.808906  0.191094  1
  Zr  Zr4  1  0.191094  0.808906  0.808906  1
  Zr  Zr5  1  0.808906  0.191094  0.191094  1
  Zr  Zr6  1  0.441094  0.441094  0.058906  1
  Zr  Zr7  1  0.058906  0.058906  0.441094  1
  Zr  Zr8  1  0.441094  0.058906  0.441094  1
  Zr  Zr9  1  0.058906  0.441094  0.058906  1
  Zr  Zr10  1  0.058906  0.441094  0.441094  1
  Zr  Zr11  1  0.441094  0.058906  0.058906  1
  Ga  Ga12  1  0.125000  0.625000  0.625000  1
  Ga  Ga13  1  0.625000  0.125000  0.625000  1
  Ga  Ga14  1  0.625000  0.625000  0.125000  1
  Ga  Ga15  1  0.625000  0.625000  0.625000  1
  Rh  Rh16  1  0.759510  0.413497  0.413497  1
  Rh  Rh17  1  0.413497  0.759510  0.413497  1
  Rh  Rh18  1  0.413497  0.413497  0.759510  1
  Rh  Rh19  1  0.413497  0.413497  0.413497  1
  Rh  Rh20  1  0.490490  0.836503  0.836503  1
  Rh  Rh21  1  0.836503  0.490490  0.836503  1
  Rh  Rh22  1  0.836503  0.836503  0.490490  1
  Rh  Rh23  1  0.836503  0.836503  0.836503  1
  N  N24  1  0.625000  0.125000  0.125000  1
  N  N25  1  0.125000  0.625000  0.125000  1
  N  N26  1  0.125000  0.125000  0.625000  1
  N  N27  1  0.125000  0.125000  0.125000  1
