# generated using pymatgen
data_NdYAsS
_symmetry_space_group_name_H-M   'P 1'
_cell_length_a   5.74215500
_cell_length_b   5.74215500
_cell_length_c   5.81704600
_cell_angle_alpha   90.00000000
_cell_angle_beta   90.00000000
_cell_angle_gamma   90.00000000
_symmetry_Int_Tables_number   1
_chemical_formula_structural   NdYAsS
_chemical_formula_sum   'Nd2 Y2 As2 S2'
_cell_volume   191.80164203
_cell_formula_units_Z   2
loop_
 _symmetry_equiv_pos_site_id
 _symmetry_equiv_pos_as_xyz
  1  'x, y, z'
loop_
 _atom_site_type_symbol
 _atom_site_label
 _atom_site_symmetry_multiplicity
 _atom_site_fract_x
 _atom_site_fract_y
 _atom_site_fract_z
 _atom_site_occupancy
  Nd  Nd0  1  0.750001  0.750001  0.000325  1
  Nd  Nd1  1  0.250003  0.250003  0.999677  1
  Y  Y2  1  0.750001  0.250003  0.499999  1
  Y  Y3  1  0.250003  0.750001  0.499999  1
  As  As4  1  0.750001  0.750001  0.500161  1
  As  As5  1  0.250003  0.250003  0.499837  1
  S  S6  1  0.750001  0.250003  0.000000  1
  S  S7  1  0.250003  0.750001  0.000000  1
