# generated using pymatgen
data_Zr6Zn20Ni3N
_symmetry_space_group_name_H-M   'P 1'
_cell_length_a   8.62977276
_cell_length_b   8.62977338
_cell_length_c   8.61433500
_cell_angle_alpha   59.91080470
_cell_angle_beta   59.91080232
_cell_angle_gamma   59.79939969
_symmetry_Int_Tables_number   1
_chemical_formula_structural   Zr6Zn20Ni3N
_chemical_formula_sum   'Zr6 Zn20 Ni3 N1'
_cell_volume   452.33241907
_cell_formula_units_Z   1
loop_
 _symmetry_equiv_pos_site_id
 _symmetry_equiv_pos_as_xyz
  1  'x, y, z'
loop_
 _atom_site_type_symbol
 _atom_site_label
 _atom_site_symmetry_multiplicity
 _atom_site_fract_x
 _atom_site_fract_y
 _atom_site_fract_z
 _atom_site_occupancy
  Zr  Zr0  1  0.689590  0.308101  0.311096  1
  Zr  Zr1  1  0.310410  0.691899  0.688904  1
  Zr  Zr2  1  0.308101  0.689590  0.311096  1
  Zr  Zr3  1  0.691899  0.310410  0.688904  1
  Zr  Zr4  1  0.312186  0.312186  0.685111  1
  Zr  Zr5  1  0.687814  0.687814  0.314889  1
  Zn  Zn6  1  0.116674  0.116674  0.116513  1
  Zn  Zn7  1  0.883326  0.883326  0.883487  1
  Zn  Zn8  1  0.123184  0.123184  0.645116  1
  Zn  Zn9  1  0.112605  0.647072  0.129097  1
  Zn  Zn10  1  0.876816  0.876816  0.354884  1
  Zn  Zn11  1  0.887395  0.352928  0.870903  1
  Zn  Zn12  1  0.647072  0.112605  0.129097  1
  Zn  Zn13  1  0.352928  0.887395  0.870903  1
  Zn  Zn14  1  0.500000  0.000000  0.000000  1
  Zn  Zn15  1  0.000000  0.500000  0.000000  1
  Zn  Zn16  1  0.000000  0.000000  0.500000  1
  Zn  Zn17  1  0.500000  0.500000  0.000000  1
  Zn  Zn18  1  0.328465  0.328465  0.337205  1
  Zn  Zn19  1  0.671535  0.671535  0.662795  1
  Zn  Zn20  1  0.331566  0.331566  0.005944  1
  Zn  Zn21  1  0.334592  0.006526  0.334972  1
  Zn  Zn22  1  0.668434  0.668434  0.994056  1
  Zn  Zn23  1  0.665408  0.993474  0.665028  1
  Zn  Zn24  1  0.006526  0.334592  0.334972  1
  Zn  Zn25  1  0.993474  0.665408  0.665028  1
  Ni  Ni26  1  0.000000  0.500000  0.500000  1
  Ni  Ni27  1  0.500000  0.000000  0.500000  1
  Ni  Ni28  1  0.000000  0.000000  0.000000  1
  N  N29  1  0.500000  0.500000  0.500000  1
