# generated using pymatgen
data_Tb5Ho3Ta4Ti8Si15Ge
_symmetry_space_group_name_H-M   'P 1'
_cell_length_a   7.06432400
_cell_length_b   7.05315834
_cell_length_c   12.98577642
_cell_angle_alpha   89.98018730
_cell_angle_beta   89.95966915
_cell_angle_gamma   90.00675173
_symmetry_Int_Tables_number   1
_chemical_formula_structural   Tb5Ho3Ta4Ti8Si15Ge
_chemical_formula_sum   'Tb5 Ho3 Ta4 Ti8 Si15 Ge1'
_cell_volume   647.02643962
_cell_formula_units_Z   1
loop_
 _symmetry_equiv_pos_site_id
 _symmetry_equiv_pos_as_xyz
  1  'x, y, z'
loop_
 _atom_site_type_symbol
 _atom_site_label
 _atom_site_symmetry_multiplicity
 _atom_site_fract_x
 _atom_site_fract_y
 _atom_site_fract_z
 _atom_site_occupancy
  Tb  Tb0  1  0.340903  0.001771  0.466147  1
  Tb  Tb1  1  0.498832  0.839588  0.717606  1
  Tb  Tb2  1  0.502391  0.159807  0.216934  1
  Tb  Tb3  1  0.840381  0.497480  0.282679  1
  Tb  Tb4  1  0.159625  0.502796  0.783484  1
  Ho  Ho5  1  0.660058  0.997488  0.967738  1
  Ho  Ho6  1  0.999726  0.342186  0.531889  1
  Ho  Ho7  1  0.998466  0.659583  0.032995  1
  Ta  Ta8  1  0.326254  0.326512  0.000164  1
  Ta  Ta9  1  0.173650  0.826292  0.249748  1
  Ta  Ta10  1  0.823034  0.174438  0.750712  1
  Ta  Ta11  1  0.673760  0.673467  0.500034  1
  Ti  Ti12  1  0.153097  0.010009  0.876723  1
  Ti  Ti13  1  0.490826  0.653170  0.125410  1
  Ti  Ti14  1  0.510945  0.347755  0.625681  1
  Ti  Ti15  1  0.653928  0.491518  0.875106  1
  Ti  Ti16  1  0.346315  0.509184  0.374399  1
  Ti  Ti17  1  0.846854  0.990351  0.375296  1
  Ti  Ti18  1  0.009729  0.152716  0.124440  1
  Ti  Ti19  1  0.987675  0.843858  0.623526  1
  Si  Si20  1  0.370380  0.702527  0.934799  1
  Si  Si21  1  0.629384  0.298435  0.434484  1
  Si  Si22  1  0.702569  0.370470  0.065587  1
  Si  Si23  1  0.297625  0.628941  0.565459  1
  Si  Si24  1  0.798395  0.870064  0.183812  1
  Si  Si25  1  0.129501  0.202214  0.315647  1
  Si  Si26  1  0.870531  0.798964  0.816344  1
  Si  Si27  1  0.292570  0.953414  0.064246  1
  Si  Si28  1  0.546621  0.791338  0.313808  1
  Si  Si29  1  0.456878  0.208229  0.816260  1
  Si  Si30  1  0.792632  0.545569  0.686063  1
  Si  Si31  1  0.207823  0.454079  0.185710  1
  Si  Si32  1  0.707957  0.047137  0.564111  1
  Si  Si33  1  0.953373  0.292410  0.936152  1
  Si  Si34  1  0.046521  0.707716  0.435545  1
  Ge  Ge35  1  0.200785  0.128525  0.681262  1
