# generated using pymatgen
data_Ag2Te2As
_symmetry_space_group_name_H-M   'P 1'
_cell_length_a   14.41775700
_cell_length_b   7.52099702
_cell_length_c   10.64800103
_cell_angle_alpha   79.08861056
_cell_angle_beta   90.00000000
_cell_angle_gamma   90.00000000
_symmetry_Int_Tables_number   1
_chemical_formula_structural   Ag2Te2As
_chemical_formula_sum   'Ag16 Te16 As8'
_cell_volume   1133.75129691
_cell_formula_units_Z   8
loop_
 _symmetry_equiv_pos_site_id
 _symmetry_equiv_pos_as_xyz
  1  'x, y, z'
loop_
 _atom_site_type_symbol
 _atom_site_label
 _atom_site_symmetry_multiplicity
 _atom_site_fract_x
 _atom_site_fract_y
 _atom_site_fract_z
 _atom_site_occupancy
  Ag  Ag0  1  0.584113  0.071581  0.235179  1
  Ag  Ag1  1  0.415887  0.571581  0.235179  1
  Ag  Ag2  1  0.881008  0.779845  0.028802  1
  Ag  Ag3  1  0.118992  0.279845  0.028802  1
  Ag  Ag4  1  0.895792  0.371531  0.698389  1
  Ag  Ag5  1  0.104208  0.871531  0.698389  1
  Ag  Ag6  1  0.886836  0.881111  0.386887  1
  Ag  Ag7  1  0.113164  0.381111  0.386887  1
  Ag  Ag8  1  0.613899  0.578137  0.554768  1
  Ag  Ag9  1  0.386101  0.078137  0.554768  1
  Ag  Ag10  1  0.815232  0.179894  0.949918  1
  Ag  Ag11  1  0.184768  0.679894  0.949918  1
  Ag  Ag12  1  0.506035  0.836706  0.779973  1
  Ag  Ag13  1  0.493965  0.336706  0.779973  1
  Ag  Ag14  1  0.670254  0.704138  0.960322  1
  Ag  Ag15  1  0.329746  0.204138  0.960322  1
  Te  Te16  1  0.585601  0.451195  0.154736  1
  Te  Te17  1  0.414399  0.951195  0.154736  1
  Te  Te18  1  0.926595  0.997124  0.788692  1
  Te  Te19  1  0.073405  0.497124  0.788692  1
  Te  Te20  1  0.750064  0.874845  0.203497  1
  Te  Te21  1  0.249936  0.374845  0.203497  1
  Te  Te22  1  0.743287  0.584103  0.748767  1
  Te  Te23  1  0.256713  0.084103  0.748767  1
  Te  Te24  1  0.632994  0.089343  0.860429  1
  Te  Te25  1  0.367006  0.589343  0.860429  1
  Te  Te26  1  0.565661  0.959313  0.512600  1
  Te  Te27  1  0.434339  0.459313  0.512600  1
  Te  Te28  1  0.906982  0.403842  0.086904  1
  Te  Te29  1  0.093018  0.903842  0.086904  1
  Te  Te30  1  0.938527  0.507788  0.440260  1
  Te  Te31  1  0.061473  0.007788  0.440260  1
  As  As32  1  0.696798  0.547300  0.327126  1
  As  As33  1  0.303202  0.047300  0.327126  1
  As  As34  1  0.694575  0.137162  0.618969  1
  As  As35  1  0.305425  0.637162  0.618969  1
  As  As36  1  0.828170  0.325205  0.315149  1
  As  As37  1  0.171830  0.825205  0.315149  1
  As  As38  1  0.812620  0.890737  0.620931  1
  As  As39  1  0.187380  0.390737  0.620931  1
