# generated using pymatgen
data_Tm2Ga8Fe9
_symmetry_space_group_name_H-M   'P 1'
_cell_length_a   6.55551575
_cell_length_b   6.55551634
_cell_length_c   6.55551612
_cell_angle_alpha   83.71059144
_cell_angle_beta   96.28940847
_cell_angle_gamma   96.28940962
_symmetry_Int_Tables_number   1
_chemical_formula_structural   Tm2Ga8Fe9
_chemical_formula_sum   'Tm2 Ga8 Fe9'
_cell_volume   276.98087785
_cell_formula_units_Z   1
loop_
 _symmetry_equiv_pos_site_id
 _symmetry_equiv_pos_as_xyz
  1  'x, y, z'
loop_
 _atom_site_type_symbol
 _atom_site_label
 _atom_site_symmetry_multiplicity
 _atom_site_fract_x
 _atom_site_fract_y
 _atom_site_fract_z
 _atom_site_occupancy
  Tm  Tm0  1  0.633874  0.366127  0.366127  1
  Tm  Tm1  1  0.366127  0.633875  0.633874  1
  Ga  Ga2  1  0.320688  0.320688  0.000000  1
  Ga  Ga3  1  0.679312  0.679312  0.000000  1
  Ga  Ga4  1  0.868644  0.131357  0.131357  1
  Ga  Ga5  1  0.000000  0.679313  0.320687  1
  Ga  Ga6  1  0.320688  0.000000  0.320688  1
  Ga  Ga7  1  0.679312  0.000000  0.679312  1
  Ga  Ga8  1  0.000000  0.320687  0.679312  1
  Ga  Ga9  1  0.131357  0.868645  0.868644  1
  Fe  Fe10  1  0.500000  0.000000  0.000000  1
  Fe  Fe11  1  0.000000  0.500000  0.000000  1
  Fe  Fe12  1  0.336869  0.663132  0.165816  1
  Fe  Fe13  1  0.165816  0.336868  0.336868  1
  Fe  Fe14  1  0.663132  0.834183  0.336869  1
  Fe  Fe15  1  0.000000  0.000000  0.500000  1
  Fe  Fe16  1  0.834183  0.663132  0.663131  1
  Fe  Fe17  1  0.336869  0.165816  0.663132  1
  Fe  Fe18  1  0.663131  0.336868  0.834183  1
