# generated using pymatgen
data_Ta12Al8Rh4C3N
_symmetry_space_group_name_H-M   'P 1'
_cell_length_a   8.31754452
_cell_length_b   8.30501964
_cell_length_c   8.31754500
_cell_angle_alpha   59.95010166
_cell_angle_beta   60.00000206
_cell_angle_gamma   59.95009637
_symmetry_Int_Tables_number   1
_chemical_formula_structural   Ta12Al8Rh4C3N
_chemical_formula_sum   'Ta12 Al8 Rh4 C3 N1'
_cell_volume   405.96443283
_cell_formula_units_Z   1
loop_
 _symmetry_equiv_pos_site_id
 _symmetry_equiv_pos_as_xyz
  1  'x, y, z'
loop_
 _atom_site_type_symbol
 _atom_site_label
 _atom_site_symmetry_multiplicity
 _atom_site_fract_x
 _atom_site_fract_y
 _atom_site_fract_z
 _atom_site_occupancy
  Ta  Ta0  1  0.565836  0.934227  0.565836  1
  Ta  Ta1  1  0.315001  0.685417  0.684582  1
  Ta  Ta2  1  0.684164  0.315773  0.315899  1
  Ta  Ta3  1  0.315001  0.685417  0.315001  1
  Ta  Ta4  1  0.684582  0.685417  0.315001  1
  Ta  Ta5  1  0.315899  0.315773  0.684164  1
  Ta  Ta6  1  0.565418  0.564583  0.934999  1
  Ta  Ta7  1  0.934999  0.564583  0.565418  1
  Ta  Ta8  1  0.565836  0.934227  0.934101  1
  Ta  Ta9  1  0.934101  0.934227  0.565836  1
  Ta  Ta10  1  0.684164  0.315773  0.684164  1
  Ta  Ta11  1  0.934999  0.564583  0.934999  1
  Al  Al12  1  0.916986  0.916649  0.916986  1
  Al  Al13  1  0.000621  0.333351  0.333014  1
  Al  Al14  1  0.333308  0.000075  0.333308  1
  Al  Al15  1  0.333014  0.333351  0.000621  1
  Al  Al16  1  0.916692  0.249925  0.916692  1
  Al  Al17  1  0.916986  0.916649  0.249379  1
  Al  Al18  1  0.249379  0.916649  0.916986  1
  Al  Al19  1  0.333014  0.333351  0.333014  1
  Rh  Rh20  1  0.125000  0.125000  0.125000  1
  Rh  Rh21  1  0.625000  0.125000  0.125000  1
  Rh  Rh22  1  0.125000  0.625000  0.125000  1
  Rh  Rh23  1  0.125000  0.125000  0.625000  1
  C  C24  1  0.625000  0.625000  0.625000  1
  C  C25  1  0.125000  0.625000  0.625000  1
  C  C26  1  0.625000  0.625000  0.125000  1
  N  N27  1  0.625000  0.125000  0.625000  1
