# generated using pymatgen
data_Cs4SrBr6
_symmetry_space_group_name_H-M   'P 1'
_cell_length_a   10.04582283
_cell_length_b   10.04582279
_cell_length_c   10.04582257
_cell_angle_alpha   89.16300553
_cell_angle_beta   89.16300599
_cell_angle_gamma   89.16300735
_symmetry_Int_Tables_number   1
_chemical_formula_structural   Cs4SrBr6
_chemical_formula_sum   'Cs8 Sr2 Br12'
_cell_volume   1013.48851493
_cell_formula_units_Z   2
loop_
 _symmetry_equiv_pos_site_id
 _symmetry_equiv_pos_as_xyz
  1  'x, y, z'
loop_
 _atom_site_type_symbol
 _atom_site_label
 _atom_site_symmetry_multiplicity
 _atom_site_fract_x
 _atom_site_fract_y
 _atom_site_fract_z
 _atom_site_occupancy
  Cs  Cs0  1  0.250000  0.250000  0.250000  1
  Cs  Cs1  1  0.750000  0.750000  0.750000  1
  Cs  Cs2  1  0.750000  0.128091  0.371909  1
  Cs  Cs3  1  0.371909  0.750000  0.128091  1
  Cs  Cs4  1  0.128091  0.371909  0.750000  1
  Cs  Cs5  1  0.250000  0.871909  0.628091  1
  Cs  Cs6  1  0.628091  0.250000  0.871909  1
  Cs  Cs7  1  0.871909  0.628091  0.250000  1
  Sr  Sr8  1  0.000000  0.000000  0.000000  1
  Sr  Sr9  1  0.500000  0.500000  0.500000  1
  Br  Br10  1  0.441659  0.570198  0.790911  1
  Br  Br11  1  0.790911  0.441659  0.570198  1
  Br  Br12  1  0.570198  0.790911  0.441659  1
  Br  Br13  1  0.058341  0.709089  0.929802  1
  Br  Br14  1  0.929802  0.058341  0.709089  1
  Br  Br15  1  0.709089  0.929802  0.058341  1
  Br  Br16  1  0.558341  0.429802  0.209089  1
  Br  Br17  1  0.209089  0.558341  0.429802  1
  Br  Br18  1  0.429802  0.209089  0.558341  1
  Br  Br19  1  0.941659  0.290911  0.070198  1
  Br  Br20  1  0.290911  0.070198  0.941659  1
  Br  Br21  1  0.070198  0.941659  0.290911  1
