# generated using pymatgen
data_Ho5BiRuPb
_symmetry_space_group_name_H-M   'P 1'
_cell_length_a   7.90822557
_cell_length_b   9.07338360
_cell_length_c   12.33069665
_cell_angle_alpha   90.01120995
_cell_angle_beta   90.39908237
_cell_angle_gamma   90.04006808
_symmetry_Int_Tables_number   1
_chemical_formula_structural   Ho5BiRuPb
_chemical_formula_sum   'Ho20 Bi4 Ru4 Pb4'
_cell_volume   884.75960067
_cell_formula_units_Z   4
loop_
 _symmetry_equiv_pos_site_id
 _symmetry_equiv_pos_as_xyz
  1  'x, y, z'
loop_
 _atom_site_type_symbol
 _atom_site_label
 _atom_site_symmetry_multiplicity
 _atom_site_fract_x
 _atom_site_fract_y
 _atom_site_fract_z
 _atom_site_occupancy
  Ho  Ho0  1  0.844799  0.746809  0.791742  1
  Ho  Ho1  1  0.158970  0.250453  0.209206  1
  Ho  Ho2  1  0.346009  0.253378  0.709898  1
  Ho  Ho3  1  0.650799  0.749286  0.291455  1
  Ho  Ho4  1  0.378132  0.747233  0.691907  1
  Ho  Ho5  1  0.615578  0.250681  0.307213  1
  Ho  Ho6  1  0.878569  0.253156  0.808066  1
  Ho  Ho7  1  0.127098  0.749425  0.191145  1
  Ho  Ho8  1  0.948559  0.747911  0.504932  1
  Ho  Ho9  1  0.052984  0.252052  0.497870  1
  Ho  Ho10  1  0.449098  0.252178  0.997228  1
  Ho  Ho11  1  0.549933  0.747768  0.005507  1
  Ho  Ho12  1  0.674211  0.040242  0.566621  1
  Ho  Ho13  1  0.323778  0.960401  0.429824  1
  Ho  Ho14  1  0.176374  0.960492  0.934187  1
  Ho  Ho15  1  0.323900  0.539959  0.431315  1
  Ho  Ho16  1  0.823630  0.038664  0.067389  1
  Ho  Ho17  1  0.675551  0.461152  0.569814  1
  Ho  Ho18  1  0.824309  0.461286  0.066498  1
  Ho  Ho19  1  0.177585  0.538379  0.930556  1
  Bi  Bi20  1  0.927567  0.493023  0.327049  1
  Bi  Bi21  1  0.572559  0.005977  0.828219  1
  Bi  Bi22  1  0.927196  0.006506  0.328718  1
  Bi  Bi23  1  0.070729  0.993837  0.672710  1
  Ru  Ru24  1  0.572467  0.750532  0.508133  1
  Ru  Ru25  1  0.425879  0.250289  0.491895  1
  Ru  Ru26  1  0.071689  0.249123  0.991800  1
  Ru  Ru27  1  0.929652  0.749771  0.008246  1
  Pb  Pb28  1  0.573782  0.494238  0.829532  1
  Pb  Pb29  1  0.428316  0.505575  0.171053  1
  Pb  Pb30  1  0.071967  0.505503  0.671154  1
  Pb  Pb31  1  0.428333  0.994721  0.169120  1
