# generated using pymatgen
data_Dy3In2Ag2IrPb
_symmetry_space_group_name_H-M   'P 1'
_cell_length_a   8.09003879
_cell_length_b   8.16475509
_cell_length_c   3.70136500
_cell_angle_alpha   90.00000000
_cell_angle_beta   90.00000000
_cell_angle_gamma   120.69588043
_symmetry_Int_Tables_number   1
_chemical_formula_structural   Dy3In2Ag2IrPb
_chemical_formula_sum   'Dy3 In2 Ag2 Ir1 Pb1'
_cell_volume   210.23163205
_cell_formula_units_Z   1
loop_
 _symmetry_equiv_pos_site_id
 _symmetry_equiv_pos_as_xyz
  1  'x, y, z'
loop_
 _atom_site_type_symbol
 _atom_site_label
 _atom_site_symmetry_multiplicity
 _atom_site_fract_x
 _atom_site_fract_y
 _atom_site_fract_z
 _atom_site_occupancy
  Dy  Dy0  1  0.581590  0.617405  0.000000  1
  Dy  Dy1  1  0.386704  0.969289  0.000000  1
  Dy  Dy2  1  0.032883  0.409650  0.000000  1
  In  In3  1  0.280347  0.272086  0.500000  1
  In  In4  1  0.731529  0.012450  0.500000  1
  Ag  Ag5  1  0.000738  0.010552  0.000000  1
  Ag  Ag6  1  0.659526  0.323832  0.500000  1
  Ir  Ir7  1  0.340083  0.667303  0.500000  1
  Pb  Pb8  1  0.986597  0.717432  0.500000  1
