# generated using pymatgen
data_TbSmEu2(Mo2O7)2
_symmetry_space_group_name_H-M   'P 1'
_cell_length_a   7.53159764
_cell_length_b   7.53159563
_cell_length_c   7.50895075
_cell_angle_alpha   59.14441198
_cell_angle_beta   59.14440933
_cell_angle_gamma   58.86380755
_symmetry_Int_Tables_number   1
_chemical_formula_structural   TbSmEu2(Mo2O7)2
_chemical_formula_sum   'Tb1 Sm1 Eu2 Mo4 O14'
_cell_volume   294.66486616
_cell_formula_units_Z   1
loop_
 _symmetry_equiv_pos_site_id
 _symmetry_equiv_pos_as_xyz
  1  'x, y, z'
loop_
 _atom_site_type_symbol
 _atom_site_label
 _atom_site_symmetry_multiplicity
 _atom_site_fract_x
 _atom_site_fract_y
 _atom_site_fract_z
 _atom_site_occupancy
  Tb  Tb0  1  0.125000  0.125000  0.625000  1
  Sm  Sm1  1  0.125000  0.125000  0.125000  1
  Eu  Eu2  1  0.625000  0.125000  0.125000  1
  Eu  Eu3  1  0.125000  0.625000  0.125000  1
  Mo  Mo4  1  0.625000  0.625000  0.625000  1
  Mo  Mo5  1  0.125000  0.625000  0.625000  1
  Mo  Mo6  1  0.625000  0.125000  0.625000  1
  Mo  Mo7  1  0.625000  0.625000  0.125000  1
  O  O8  1  0.288452  0.288452  0.701078  1
  O  O9  1  0.291510  0.705854  0.292041  1
  O  O10  1  0.958490  0.544146  0.957959  1
  O  O11  1  0.705854  0.291510  0.292041  1
  O  O12  1  0.006511  0.006511  0.992024  1
  O  O13  1  0.548234  0.548234  0.945711  1
  O  O14  1  0.299189  0.710591  0.698440  1
  O  O15  1  0.539409  0.950811  0.551560  1
  O  O16  1  0.544146  0.958490  0.957959  1
  O  O17  1  0.701766  0.701766  0.304289  1
  O  O18  1  0.243489  0.243489  0.257976  1
  O  O19  1  0.961548  0.961548  0.548922  1
  O  O20  1  0.950811  0.539409  0.551560  1
  O  O21  1  0.710591  0.299189  0.698440  1
