# generated using pymatgen
data_Cs4Na4TiSiSe8
_symmetry_space_group_name_H-M   'P 1'
_cell_length_a   6.85260000
_cell_length_b   6.85260000
_cell_length_c   14.37454500
_cell_angle_alpha   90.00000000
_cell_angle_beta   90.00000000
_cell_angle_gamma   90.00000000
_symmetry_Int_Tables_number   1
_chemical_formula_structural   Cs4Na4TiSiSe8
_chemical_formula_sum   'Cs4 Na4 Ti1 Si1 Se8'
_cell_volume   675.00170623
_cell_formula_units_Z   1
loop_
 _symmetry_equiv_pos_site_id
 _symmetry_equiv_pos_as_xyz
  1  'x, y, z'
loop_
 _atom_site_type_symbol
 _atom_site_label
 _atom_site_symmetry_multiplicity
 _atom_site_fract_x
 _atom_site_fract_y
 _atom_site_fract_z
 _atom_site_occupancy
  Cs  Cs0  1  0.245384  0.245384  0.001948  1
  Cs  Cs1  1  0.754616  0.754616  0.001948  1
  Cs  Cs2  1  0.754616  0.245384  0.498052  1
  Cs  Cs3  1  0.245384  0.754616  0.498052  1
  Na  Na4  1  0.000000  0.500000  0.250000  1
  Na  Na5  1  0.000000  0.500000  0.750000  1
  Na  Na6  1  0.500000  0.000000  0.750000  1
  Na  Na7  1  0.500000  0.000000  0.250000  1
  Ti  Ti8  1  0.000000  0.000000  0.750000  1
  Si  Si9  1  0.000000  0.000000  0.250000  1
  Se  Se10  1  0.192096  0.192096  0.346451  1
  Se  Se11  1  0.799363  0.799363  0.649364  1
  Se  Se12  1  0.807904  0.807904  0.346451  1
  Se  Se13  1  0.799363  0.200637  0.850636  1
  Se  Se14  1  0.807904  0.192096  0.153549  1
  Se  Se15  1  0.200637  0.200637  0.649364  1
  Se  Se16  1  0.192096  0.807904  0.153549  1
  Se  Se17  1  0.200637  0.799363  0.850636  1
