# generated using pymatgen
data_Ca3Pr16SmSn16
_symmetry_space_group_name_H-M   'P 1'
_cell_length_a   8.18827800
_cell_length_b   8.52318350
_cell_length_c   16.21664000
_cell_angle_alpha   90.00000000
_cell_angle_beta   90.00000000
_cell_angle_gamma   89.80472895
_symmetry_Int_Tables_number   1
_chemical_formula_structural   Ca3Pr16SmSn16
_chemical_formula_sum   'Ca3 Pr16 Sm1 Sn16'
_cell_volume   1131.75591021
_cell_formula_units_Z   1
loop_
 _symmetry_equiv_pos_site_id
 _symmetry_equiv_pos_as_xyz
  1  'x, y, z'
loop_
 _atom_site_type_symbol
 _atom_site_label
 _atom_site_symmetry_multiplicity
 _atom_site_fract_x
 _atom_site_fract_y
 _atom_site_fract_z
 _atom_site_occupancy
  Ca  Ca0  1  0.325141  0.997327  0.750000  1
  Ca  Ca1  1  0.176975  0.495824  0.250000  1
  Ca  Ca2  1  0.674384  0.002872  0.250000  1
  Pr  Pr3  1  0.654124  0.170465  0.624495  1
  Pr  Pr4  1  0.155636  0.329878  0.876612  1
  Pr  Pr5  1  0.345387  0.828163  0.124591  1
  Pr  Pr6  1  0.846057  0.667774  0.377680  1
  Pr  Pr7  1  0.345387  0.828163  0.375409  1
  Pr  Pr8  1  0.846057  0.667774  0.122320  1
  Pr  Pr9  1  0.654124  0.170465  0.875505  1
  Pr  Pr10  1  0.155636  0.329878  0.623388  1
  Pr  Pr11  1  0.497406  0.681599  0.597879  1
  Pr  Pr12  1  0.002084  0.818442  0.903241  1
  Pr  Pr13  1  0.500866  0.318226  0.096600  1
  Pr  Pr14  1  0.998158  0.185171  0.403987  1
  Pr  Pr15  1  0.500866  0.318226  0.403400  1
  Pr  Pr16  1  0.998158  0.185171  0.096013  1
  Pr  Pr17  1  0.497406  0.681599  0.902121  1
  Pr  Pr18  1  0.002084  0.818442  0.596759  1
  Sm  Sm19  1  0.824519  0.503777  0.750000  1
  Sn  Sn20  1  0.679883  0.961526  0.462528  1
  Sn  Sn21  1  0.187991  0.536594  0.038451  1
  Sn  Sn22  1  0.318422  0.037158  0.962755  1
  Sn  Sn23  1  0.814192  0.464781  0.542081  1
  Sn  Sn24  1  0.318422  0.037158  0.537245  1
  Sn  Sn25  1  0.814192  0.464781  0.957919  1
  Sn  Sn26  1  0.679883  0.961526  0.037472  1
  Sn  Sn27  1  0.187991  0.536594  0.461549  1
  Sn  Sn28  1  0.456193  0.394502  0.750000  1
  Sn  Sn29  1  0.957527  0.108801  0.750000  1
  Sn  Sn30  1  0.546362  0.605472  0.250000  1
  Sn  Sn31  1  0.041820  0.895929  0.250000  1
  Sn  Sn32  1  0.699831  0.855589  0.750000  1
  Sn  Sn33  1  0.193086  0.642211  0.750000  1
  Sn  Sn34  1  0.301118  0.140601  0.250000  1
  Sn  Sn35  1  0.802630  0.357542  0.250000  1
