# generated using pymatgen
data_Dy12Os3Rh
_symmetry_space_group_name_H-M   'P 1'
_cell_length_a   6.37629793
_cell_length_b   7.36376805
_cell_length_c   9.10673700
_cell_angle_alpha   90.00000000
_cell_angle_beta   90.00000000
_cell_angle_gamma   90.22273990
_symmetry_Int_Tables_number   1
_chemical_formula_structural   Dy12Os3Rh
_chemical_formula_sum   'Dy12 Os3 Rh1'
_cell_volume   427.59066354
_cell_formula_units_Z   1
loop_
 _symmetry_equiv_pos_site_id
 _symmetry_equiv_pos_as_xyz
  1  'x, y, z'
loop_
 _atom_site_type_symbol
 _atom_site_label
 _atom_site_symmetry_multiplicity
 _atom_site_fract_x
 _atom_site_fract_y
 _atom_site_fract_z
 _atom_site_occupancy
  Dy  Dy0  1  0.333227  0.673144  0.061851  1
  Dy  Dy1  1  0.170067  0.177290  0.437910  1
  Dy  Dy2  1  0.670017  0.324853  0.563718  1
  Dy  Dy3  1  0.826975  0.824358  0.933495  1
  Dy  Dy4  1  0.670017  0.324853  0.936282  1
  Dy  Dy5  1  0.826975  0.824358  0.566505  1
  Dy  Dy6  1  0.333227  0.673144  0.438149  1
  Dy  Dy7  1  0.170067  0.177290  0.062090  1
  Dy  Dy8  1  0.868452  0.537748  0.250000  1
  Dy  Dy9  1  0.630859  0.040007  0.250000  1
  Dy  Dy10  1  0.130674  0.461673  0.750000  1
  Dy  Dy11  1  0.368667  0.961574  0.750000  1
  Os  Os12  1  0.459635  0.383253  0.250000  1
  Os  Os13  1  0.961392  0.115718  0.750000  1
  Os  Os14  1  0.539183  0.616976  0.750000  1
  Rh  Rh15  1  0.040567  0.883761  0.250000  1
