# generated using pymatgen
data_Li2Ho3AgSnPb2
_symmetry_space_group_name_H-M   'P 1'
_cell_length_a   7.36280702
_cell_length_b   7.36314608
_cell_length_c   4.61818900
_cell_angle_alpha   90.00000000
_cell_angle_beta   90.00000000
_cell_angle_gamma   120.23998748
_symmetry_Int_Tables_number   1
_chemical_formula_structural   Li2Ho3AgSnPb2
_chemical_formula_sum   'Li2 Ho3 Ag1 Sn1 Pb2'
_cell_volume   216.29866461
_cell_formula_units_Z   1
loop_
 _symmetry_equiv_pos_site_id
 _symmetry_equiv_pos_as_xyz
  1  'x, y, z'
loop_
 _atom_site_type_symbol
 _atom_site_label
 _atom_site_symmetry_multiplicity
 _atom_site_fract_x
 _atom_site_fract_y
 _atom_site_fract_z
 _atom_site_occupancy
  Li  Li0  1  0.232776  0.001380  0.000000  1
  Li  Li1  1  0.764350  0.771384  0.000000  1
  Ho  Ho2  1  0.568661  0.000301  0.500000  1
  Ho  Ho3  1  0.428832  0.434732  0.500000  1
  Ho  Ho4  1  0.002305  0.553624  0.500000  1
  Ag  Ag5  1  0.005361  0.242594  0.000000  1
  Sn  Sn6  1  0.340107  0.675006  0.000000  1
  Pb  Pb7  1  0.999013  0.986002  0.500000  1
  Pb  Pb8  1  0.658594  0.334977  0.000000  1
