# generated using pymatgen
data_Nd7Sm(OsBr4)2
_symmetry_space_group_name_H-M   'P 1'
_cell_length_a   9.35526802
_cell_length_b   9.36439336
_cell_length_c   6.68715155
_cell_angle_alpha   89.87839602
_cell_angle_beta   89.74564157
_cell_angle_gamma   89.44047474
_symmetry_Int_Tables_number   1
_chemical_formula_structural   Nd7Sm(OsBr4)2
_chemical_formula_sum   'Nd7 Sm1 Os2 Br8'
_cell_volume   585.80236562
_cell_formula_units_Z   1
loop_
 _symmetry_equiv_pos_site_id
 _symmetry_equiv_pos_as_xyz
  1  'x, y, z'
loop_
 _atom_site_type_symbol
 _atom_site_label
 _atom_site_symmetry_multiplicity
 _atom_site_fract_x
 _atom_site_fract_y
 _atom_site_fract_z
 _atom_site_occupancy
  Nd  Nd0  1  0.748888  0.097867  0.991744  1
  Nd  Nd1  1  0.098049  0.749636  0.491373  1
  Nd  Nd2  1  0.095923  0.249031  0.997658  1
  Nd  Nd3  1  0.249050  0.096103  0.497273  1
  Nd  Nd4  1  0.902686  0.750739  0.002792  1
  Nd  Nd5  1  0.901217  0.249882  0.508853  1
  Nd  Nd6  1  0.250119  0.901484  0.008847  1
  Sm  Sm7  1  0.755013  0.905008  0.503955  1
  Os  Os8  1  0.997146  0.001971  0.250248  1
  Os  Os9  1  0.001735  0.997702  0.750027  1
  Br  Br10  1  0.588546  0.179272  0.570387  1
  Br  Br11  1  0.814424  0.594141  0.426285  1
  Br  Br12  1  0.408402  0.184071  0.074691  1
  Br  Br13  1  0.183833  0.408511  0.574903  1
  Br  Br14  1  0.591431  0.816446  0.921947  1
  Br  Br15  1  0.413743  0.818183  0.428827  1
  Br  Br16  1  0.182376  0.587745  0.070851  1
  Br  Br17  1  0.817420  0.412208  0.929340  1
