# generated using pymatgen
data_Fe(PO3)3
_symmetry_space_group_name_H-M   'P 1'
_cell_length_a   15.48992000
_cell_length_b   6.32518100
_cell_length_c   8.44846638
_cell_angle_alpha   74.03001673
_cell_angle_beta   90.00000000
_cell_angle_gamma   90.00000000
_symmetry_Int_Tables_number   1
_chemical_formula_structural   Fe(PO3)3
_chemical_formula_sum   'Fe4 P12 O36'
_cell_volume   795.80529870
_cell_formula_units_Z   4
loop_
 _symmetry_equiv_pos_site_id
 _symmetry_equiv_pos_as_xyz
  1  'x, y, z'
loop_
 _atom_site_type_symbol
 _atom_site_label
 _atom_site_symmetry_multiplicity
 _atom_site_fract_x
 _atom_site_fract_y
 _atom_site_fract_z
 _atom_site_occupancy
  Fe  Fe0  1  0.638018  0.119617  0.123315  1
  Fe  Fe1  1  0.861982  0.119617  0.623315  1
  Fe  Fe2  1  0.138018  0.880383  0.376685  1
  Fe  Fe3  1  0.361982  0.880383  0.876685  1
  P  P4  1  0.955854  0.151461  0.277560  1
  P  P5  1  0.387681  0.412391  0.789994  1
  P  P6  1  0.612319  0.587609  0.210006  1
  P  P7  1  0.160079  0.791808  0.015538  1
  P  P8  1  0.660079  0.208192  0.484462  1
  P  P9  1  0.112319  0.412391  0.289994  1
  P  P10  1  0.339921  0.791808  0.515538  1
  P  P11  1  0.887681  0.587609  0.710006  1
  P  P12  1  0.455854  0.848539  0.222440  1
  P  P13  1  0.544146  0.151461  0.777560  1
  P  P14  1  0.044146  0.848539  0.722440  1
  P  P15  1  0.839921  0.208192  0.984462  1
  O  O16  1  0.388610  0.564510  0.898206  1
  O  O17  1  0.073820  0.835502  0.906127  1
  O  O18  1  0.926180  0.164498  0.093873  1
  O  O19  1  0.379065  0.822704  0.121157  1
  O  O20  1  0.651546  0.465763  0.388193  1
  O  O21  1  0.573820  0.164498  0.593873  1
  O  O22  1  0.840331  0.800825  0.647711  1
  O  O23  1  0.340331  0.199175  0.852289  1
  O  O24  1  0.848454  0.465763  0.888193  1
  O  O25  1  0.346852  0.931841  0.631972  1
  O  O26  1  0.010678  0.948979  0.336726  1
  O  O27  1  0.879065  0.177296  0.378843  1
  O  O28  1  0.263149  0.814571  0.405582  1
  O  O29  1  0.014021  0.370676  0.244100  1
  O  O30  1  0.989322  0.051021  0.663274  1
  O  O31  1  0.659669  0.800825  0.147711  1
  O  O32  1  0.611390  0.435490  0.101794  1
  O  O33  1  0.159669  0.199175  0.352289  1
  O  O34  1  0.514021  0.629324  0.255900  1
  O  O35  1  0.846852  0.068159  0.868028  1
  O  O36  1  0.763149  0.185429  0.094418  1
  O  O37  1  0.736851  0.185429  0.594418  1
  O  O38  1  0.111390  0.564510  0.398206  1
  O  O39  1  0.489322  0.948979  0.836726  1
  O  O40  1  0.510678  0.051021  0.163274  1
  O  O41  1  0.236851  0.814571  0.905582  1
  O  O42  1  0.151546  0.534237  0.111807  1
  O  O43  1  0.120935  0.822704  0.621157  1
  O  O44  1  0.426180  0.835502  0.406127  1
  O  O45  1  0.985979  0.629324  0.755900  1
  O  O46  1  0.348454  0.534237  0.611807  1
  O  O47  1  0.153148  0.931841  0.131972  1
  O  O48  1  0.620935  0.177296  0.878843  1
  O  O49  1  0.485979  0.370676  0.744100  1
  O  O50  1  0.888610  0.435490  0.601794  1
  O  O51  1  0.653148  0.068159  0.368028  1
