# generated using pymatgen
data_Y6NpCo12Si5
_symmetry_space_group_name_H-M   'P 1'
_cell_length_a   5.26274200
_cell_length_b   5.26274314
_cell_length_c   15.11208000
_cell_angle_alpha   90.00000000
_cell_angle_beta   90.00000000
_cell_angle_gamma   120.00000543
_symmetry_Int_Tables_number   1
_chemical_formula_structural   Y6NpCo12Si5
_chemical_formula_sum   'Y6 Np1 Co12 Si5'
_cell_volume   362.47587353
_cell_formula_units_Z   1
loop_
 _symmetry_equiv_pos_site_id
 _symmetry_equiv_pos_as_xyz
  1  'x, y, z'
loop_
 _atom_site_type_symbol
 _atom_site_label
 _atom_site_symmetry_multiplicity
 _atom_site_fract_x
 _atom_site_fract_y
 _atom_site_fract_z
 _atom_site_occupancy
  Y  Y0  1  0.333333  0.666667  0.033716  1
  Y  Y1  1  0.333333  0.666667  0.250000  1
  Y  Y2  1  0.333333  0.666667  0.466284  1
  Y  Y3  1  0.666667  0.333334  0.545910  1
  Y  Y4  1  0.666667  0.333334  0.750000  1
  Y  Y5  1  0.666667  0.333334  0.954090  1
  Np  Np6  1  0.000000  0.000000  0.250000  1
  Co  Co7  1  0.332425  0.166213  0.128235  1
  Co  Co8  1  0.833787  0.166213  0.128235  1
  Co  Co9  1  0.833787  0.667574  0.128235  1
  Co  Co10  1  0.332425  0.166213  0.371765  1
  Co  Co11  1  0.833787  0.166213  0.371765  1
  Co  Co12  1  0.833787  0.667574  0.371765  1
  Co  Co13  1  0.166530  0.333060  0.633443  1
  Co  Co14  1  0.166530  0.833469  0.633443  1
  Co  Co15  1  0.666939  0.833469  0.633443  1
  Co  Co16  1  0.166530  0.333060  0.866556  1
  Co  Co17  1  0.166530  0.833469  0.866556  1
  Co  Co18  1  0.666939  0.833469  0.866556  1
  Si  Si19  1  0.000000  0.000000  0.993025  1
  Si  Si20  1  0.666667  0.333334  0.250000  1
  Si  Si21  1  0.000000  0.000000  0.506975  1
  Si  Si22  1  0.000000  0.000000  0.750000  1
  Si  Si23  1  0.333333  0.666667  0.750000  1
