# generated using pymatgen
data_Sm2Cd3Rh2
_symmetry_space_group_name_H-M   'P 1'
_cell_length_a   5.47057679
_cell_length_b   5.47057625
_cell_length_c   7.49557197
_cell_angle_alpha   108.15386749
_cell_angle_beta   108.15386739
_cell_angle_gamma   47.51697881
_symmetry_Int_Tables_number   1
_chemical_formula_structural   Sm2Cd3Rh2
_chemical_formula_sum   'Sm2 Cd3 Rh2'
_cell_volume   155.55141104
_cell_formula_units_Z   1
loop_
 _symmetry_equiv_pos_site_id
 _symmetry_equiv_pos_as_xyz
  1  'x, y, z'
loop_
 _atom_site_type_symbol
 _atom_site_label
 _atom_site_symmetry_multiplicity
 _atom_site_fract_x
 _atom_site_fract_y
 _atom_site_fract_z
 _atom_site_occupancy
  Sm  Sm0  1  0.855764  0.855764  0.211625  1
  Sm  Sm1  1  0.144236  0.144236  0.788375  1
  Cd  Cd2  1  0.500000  0.500000  0.000000  1
  Cd  Cd3  1  0.631888  0.631888  0.443735  1
  Cd  Cd4  1  0.368112  0.368112  0.556266  1
  Rh  Rh5  1  0.150160  0.150160  0.189521  1
  Rh  Rh6  1  0.849840  0.849840  0.810479  1
