# generated using pymatgen
data_Tm6Al24NiRu7
_symmetry_space_group_name_H-M   'P 1'
_cell_length_a   8.74322937
_cell_length_b   8.74323019
_cell_length_c   9.53313661
_cell_angle_alpha   89.71592025
_cell_angle_beta   90.28407857
_cell_angle_gamma   119.72251494
_symmetry_Int_Tables_number   1
_chemical_formula_structural   Tm6Al24NiRu7
_chemical_formula_sum   'Tm6 Al24 Ni1 Ru7'
_cell_volume   632.86438749
_cell_formula_units_Z   1
loop_
 _symmetry_equiv_pos_site_id
 _symmetry_equiv_pos_as_xyz
  1  'x, y, z'
loop_
 _atom_site_type_symbol
 _atom_site_label
 _atom_site_symmetry_multiplicity
 _atom_site_fract_x
 _atom_site_fract_y
 _atom_site_fract_z
 _atom_site_occupancy
  Tm  Tm0  1  0.189995  0.386948  0.250993  1
  Tm  Tm1  1  0.810005  0.613052  0.749007  1
  Tm  Tm2  1  0.613052  0.810005  0.250993  1
  Tm  Tm3  1  0.386948  0.189995  0.749007  1
  Tm  Tm4  1  0.195093  0.804907  0.249844  1
  Tm  Tm5  1  0.804907  0.195093  0.750156  1
  Al  Al6  1  0.334881  0.665119  0.020365  1
  Al  Al7  1  0.665119  0.334881  0.979635  1
  Al  Al8  1  0.666367  0.333633  0.519004  1
  Al  Al9  1  0.333633  0.666367  0.480996  1
  Al  Al10  1  0.164199  0.325474  0.578458  1
  Al  Al11  1  0.835801  0.674526  0.421542  1
  Al  Al12  1  0.674526  0.835801  0.578458  1
  Al  Al13  1  0.837040  0.674481  0.077905  1
  Al  Al14  1  0.325474  0.164199  0.421542  1
  Al  Al15  1  0.162960  0.325519  0.922095  1
  Al  Al16  1  0.163259  0.836741  0.577243  1
  Al  Al17  1  0.325519  0.162960  0.077905  1
  Al  Al18  1  0.836741  0.163259  0.422757  1
  Al  Al19  1  0.674481  0.837040  0.922095  1
  Al  Al20  1  0.836543  0.163457  0.077679  1
  Al  Al21  1  0.163457  0.836543  0.922321  1
  Al  Al22  1  0.560951  0.124150  0.249352  1
  Al  Al23  1  0.439049  0.875850  0.750648  1
  Al  Al24  1  0.875850  0.439049  0.249352  1
  Al  Al25  1  0.124150  0.560951  0.750648  1
  Al  Al26  1  0.559316  0.440684  0.247193  1
  Al  Al27  1  0.440684  0.559316  0.752807  1
  Al  Al28  1  0.999734  0.000266  0.250076  1
  Al  Al29  1  0.000266  0.999734  0.749924  1
  Ni  Ni30  1  0.500000  0.500000  0.000000  1
  Ru  Ru31  1  0.500000  0.000000  0.000000  1
  Ru  Ru32  1  0.000000  0.500000  0.000000  1
  Ru  Ru33  1  0.500000  0.000000  0.500000  1
  Ru  Ru34  1  0.000000  0.500000  0.500000  1
  Ru  Ru35  1  0.500000  0.500000  0.500000  1
  Ru  Ru36  1  0.000000  0.000000  0.000000  1
  Ru  Ru37  1  0.000000  0.000000  0.500000  1
