# generated using pymatgen
data_Dy8Ge(Pd7Pt5)2
_symmetry_space_group_name_H-M   'P 1'
_cell_length_a   8.37510000
_cell_length_b   8.36828200
_cell_length_c   8.37822500
_cell_angle_alpha   90.00000000
_cell_angle_beta   90.00000000
_cell_angle_gamma   90.00000000
_symmetry_Int_Tables_number   1
_chemical_formula_structural   Dy8Ge(Pd7Pt5)2
_chemical_formula_sum   'Dy8 Ge1 Pd14 Pt10'
_cell_volume   587.18956286
_cell_formula_units_Z   1
loop_
 _symmetry_equiv_pos_site_id
 _symmetry_equiv_pos_as_xyz
  1  'x, y, z'
loop_
 _atom_site_type_symbol
 _atom_site_label
 _atom_site_symmetry_multiplicity
 _atom_site_fract_x
 _atom_site_fract_y
 _atom_site_fract_z
 _atom_site_occupancy
  Dy  Dy0  1  0.253585  0.254000  0.253232  1
  Dy  Dy1  1  0.746129  0.745878  0.746628  1
  Dy  Dy2  1  0.746129  0.745878  0.253372  1
  Dy  Dy3  1  0.746415  0.254000  0.746768  1
  Dy  Dy4  1  0.253585  0.254000  0.746768  1
  Dy  Dy5  1  0.253871  0.745878  0.253372  1
  Dy  Dy6  1  0.253871  0.745878  0.746628  1
  Dy  Dy7  1  0.746415  0.254000  0.253232  1
  Ge  Ge8  1  0.000000  0.000127  0.000000  1
  Pd  Pd9  1  0.000000  0.740143  0.500000  1
  Pd  Pd10  1  0.500000  0.740984  0.000000  1
  Pd  Pd11  1  0.500000  0.000017  0.259890  1
  Pd  Pd12  1  0.259813  0.000076  0.500000  1
  Pd  Pd13  1  0.500000  0.000017  0.740110  1
  Pd  Pd14  1  0.740187  0.000076  0.500000  1
  Pd  Pd15  1  0.000000  0.500284  0.259386  1
  Pd  Pd16  1  0.000000  0.500284  0.740614  1
  Pd  Pd17  1  0.289324  0.999963  0.000000  1
  Pd  Pd18  1  0.710676  0.999963  0.000000  1
  Pd  Pd19  1  0.000000  0.289129  0.000000  1
  Pd  Pd20  1  0.000000  0.711157  0.000000  1
  Pd  Pd21  1  0.000000  0.999947  0.289353  1
  Pd  Pd22  1  0.000000  0.999947  0.710647  1
  Pt  Pt23  1  0.259019  0.500109  0.000000  1
  Pt  Pt24  1  0.740981  0.500109  0.000000  1
  Pt  Pt25  1  0.000000  0.259691  0.500000  1
  Pt  Pt26  1  0.500000  0.258782  0.000000  1
  Pt  Pt27  1  0.252182  0.499853  0.500000  1
  Pt  Pt28  1  0.747818  0.499853  0.500000  1
  Pt  Pt29  1  0.500000  0.252148  0.500000  1
  Pt  Pt30  1  0.500000  0.747638  0.500000  1
  Pt  Pt31  1  0.500000  0.500095  0.252378  1
  Pt  Pt32  1  0.500000  0.500095  0.747622  1
