# generated using pymatgen
data_Yb4Ta2CrCoO12
_symmetry_space_group_name_H-M   'P 1'
_cell_length_a   5.36631101
_cell_length_b   5.50477456
_cell_length_c   7.66568198
_cell_angle_alpha   89.79856697
_cell_angle_beta   90.37877216
_cell_angle_gamma   89.98096394
_symmetry_Int_Tables_number   1
_chemical_formula_structural   Yb4Ta2CrCoO12
_chemical_formula_sum   'Yb4 Ta2 Cr1 Co1 O12'
_cell_volume   226.44043114
_cell_formula_units_Z   1
loop_
 _symmetry_equiv_pos_site_id
 _symmetry_equiv_pos_as_xyz
  1  'x, y, z'
loop_
 _atom_site_type_symbol
 _atom_site_label
 _atom_site_symmetry_multiplicity
 _atom_site_fract_x
 _atom_site_fract_y
 _atom_site_fract_z
 _atom_site_occupancy
  Yb  Yb0  1  0.986549  0.050192  0.248276  1
  Yb  Yb1  1  0.511312  0.554429  0.244612  1
  Yb  Yb2  1  0.488688  0.445572  0.755388  1
  Yb  Yb3  1  0.013451  0.949807  0.751724  1
  Ta  Ta4  1  0.500000  0.000000  0.500000  1
  Ta  Ta5  1  0.000000  0.500000  0.000000  1
  Cr  Cr6  1  0.000000  0.500000  0.500000  1
  Co  Co7  1  0.500000  0.000000  0.000000  1
  O  O8  1  0.301287  0.702859  0.547608  1
  O  O9  1  0.412653  0.975807  0.246453  1
  O  O10  1  0.208568  0.205448  0.954146  1
  O  O11  1  0.088266  0.474874  0.249463  1
  O  O12  1  0.791432  0.794552  0.045854  1
  O  O13  1  0.911734  0.525126  0.750537  1
  O  O14  1  0.698713  0.297141  0.452392  1
  O  O15  1  0.587347  0.024193  0.753547  1
  O  O16  1  0.199683  0.199889  0.545391  1
  O  O17  1  0.800317  0.800111  0.454609  1
  O  O18  1  0.298062  0.709415  0.956797  1
  O  O19  1  0.701938  0.290585  0.043203  1
