# generated using pymatgen
data_Pr3Y5Cd2IrPt
_symmetry_space_group_name_H-M   'P 1'
_cell_length_a   9.82641547
_cell_length_b   9.82641434
_cell_length_c   9.80007900
_cell_angle_alpha   60.08861938
_cell_angle_beta   60.08862316
_cell_angle_gamma   60.27581008
_symmetry_Int_Tables_number   1
_chemical_formula_structural   Pr3Y5Cd2IrPt
_chemical_formula_sum   'Pr6 Y10 Cd4 Ir2 Pt2'
_cell_volume   671.40525679
_cell_formula_units_Z   2
loop_
 _symmetry_equiv_pos_site_id
 _symmetry_equiv_pos_as_xyz
  1  'x, y, z'
loop_
 _atom_site_type_symbol
 _atom_site_label
 _atom_site_symmetry_multiplicity
 _atom_site_fract_x
 _atom_site_fract_y
 _atom_site_fract_z
 _atom_site_occupancy
  Pr  Pr0  1  0.940498  0.561180  0.558902  1
  Pr  Pr1  1  0.561180  0.940498  0.939420  1
  Pr  Pr2  1  0.561180  0.940498  0.558902  1
  Pr  Pr3  1  0.940498  0.561180  0.939420  1
  Pr  Pr4  1  0.560276  0.560276  0.939724  1
  Pr  Pr5  1  0.940200  0.940200  0.559800  1
  Y  Y6  1  0.349648  0.349648  0.345248  1
  Y  Y7  1  0.349648  0.349648  0.955455  1
  Y  Y8  1  0.353404  0.950489  0.348054  1
  Y  Y9  1  0.950489  0.353404  0.348054  1
  Y  Y10  1  0.808037  0.187357  0.189725  1
  Y  Y11  1  0.187357  0.808037  0.814881  1
  Y  Y12  1  0.187357  0.808037  0.189725  1
  Y  Y13  1  0.808037  0.187357  0.814881  1
  Y  Y14  1  0.189101  0.189101  0.810899  1
  Y  Y15  1  0.812521  0.812521  0.187479  1
  Cd  Cd16  1  0.579620  0.579620  0.579220  1
  Cd  Cd17  1  0.579620  0.579620  0.261541  1
  Cd  Cd18  1  0.579453  0.261828  0.579360  1
  Cd  Cd19  1  0.261828  0.579453  0.579360  1
  Ir  Ir20  1  0.141325  0.575149  0.141764  1
  Ir  Ir21  1  0.575149  0.141325  0.141764  1
  Pt  Pt22  1  0.141787  0.141787  0.142743  1
  Pt  Pt23  1  0.141787  0.141787  0.573684  1
