# generated using pymatgen
data_Tb2Ho2Al18NiIr5
_symmetry_space_group_name_H-M   'P 1'
_cell_length_a   7.55669743
_cell_length_b   7.55819527
_cell_length_c   9.44521208
_cell_angle_alpha   90.16476205
_cell_angle_beta   90.17432258
_cell_angle_gamma   119.83061493
_symmetry_Int_Tables_number   1
_chemical_formula_structural   Tb2Ho2Al18NiIr5
_chemical_formula_sum   'Tb2 Ho2 Al18 Ni1 Ir5'
_cell_volume   467.97608508
_cell_formula_units_Z   1
loop_
 _symmetry_equiv_pos_site_id
 _symmetry_equiv_pos_as_xyz
  1  'x, y, z'
loop_
 _atom_site_type_symbol
 _atom_site_label
 _atom_site_symmetry_multiplicity
 _atom_site_fract_x
 _atom_site_fract_y
 _atom_site_fract_z
 _atom_site_occupancy
  Tb  Tb0  1  0.995080  0.667919  0.250057  1
  Tb  Tb1  1  0.004920  0.332081  0.749943  1
  Ho  Ho2  1  0.667850  0.995099  0.250108  1
  Ho  Ho3  1  0.332150  0.004901  0.749892  1
  Al  Al4  1  0.123043  0.123225  0.246528  1
  Al  Al5  1  0.876957  0.876775  0.753472  1
  Al  Al6  1  0.000029  0.331695  0.074972  1
  Al  Al7  1  0.999971  0.668305  0.925028  1
  Al  Al8  1  0.999589  0.666937  0.575199  1
  Al  Al9  1  0.333634  0.000691  0.425060  1
  Al  Al10  1  0.000411  0.333063  0.424801  1
  Al  Al11  1  0.666366  0.999309  0.574940  1
  Al  Al12  1  0.667724  0.999710  0.925276  1
  Al  Al13  1  0.332276  0.000290  0.074724  1
  Al  Al14  1  0.333657  0.333426  0.552217  1
  Al  Al15  1  0.666343  0.666574  0.447783  1
  Al  Al16  1  0.668991  0.669247  0.051497  1
  Al  Al17  1  0.331009  0.330753  0.948503  1
  Al  Al18  1  0.338976  0.546738  0.249619  1
  Al  Al19  1  0.661024  0.453262  0.750381  1
  Al  Al20  1  0.546372  0.338411  0.249597  1
  Al  Al21  1  0.453628  0.661589  0.750403  1
  Ni  Ni22  1  0.000000  0.000000  0.000000  1
  Ir  Ir23  1  0.671800  0.327767  0.999984  1
  Ir  Ir24  1  0.328200  0.672233  0.000016  1
  Ir  Ir25  1  0.328147  0.672235  0.499994  1
  Ir  Ir26  1  0.671853  0.327765  0.500006  1
  Ir  Ir27  1  0.000000  0.000000  0.500000  1
