# generated using pymatgen
data_LiDy8GaPd23
_symmetry_space_group_name_H-M   'P 1'
_cell_length_a   8.33311200
_cell_length_b   8.40281300
_cell_length_c   8.35314800
_cell_angle_alpha   90.00000000
_cell_angle_beta   90.00000000
_cell_angle_gamma   90.00000000
_symmetry_Int_Tables_number   1
_chemical_formula_structural   LiDy8GaPd23
_chemical_formula_sum   'Li1 Dy8 Ga1 Pd23'
_cell_volume   584.90063634
_cell_formula_units_Z   1
loop_
 _symmetry_equiv_pos_site_id
 _symmetry_equiv_pos_as_xyz
  1  'x, y, z'
loop_
 _atom_site_type_symbol
 _atom_site_label
 _atom_site_symmetry_multiplicity
 _atom_site_fract_x
 _atom_site_fract_y
 _atom_site_fract_z
 _atom_site_occupancy
  Li  Li0  1  0.267468  0.500000  0.000000  1
  Dy  Dy1  1  0.252274  0.246762  0.259023  1
  Dy  Dy2  1  0.747548  0.747093  0.749599  1
  Dy  Dy3  1  0.747548  0.747093  0.250401  1
  Dy  Dy4  1  0.747548  0.252907  0.749599  1
  Dy  Dy5  1  0.252274  0.246762  0.740977  1
  Dy  Dy6  1  0.252274  0.753238  0.259023  1
  Dy  Dy7  1  0.252274  0.753238  0.740977  1
  Dy  Dy8  1  0.747548  0.252907  0.250401  1
  Ga  Ga9  1  0.995516  0.000000  0.000000  1
  Pd  Pd10  1  0.743235  0.500000  0.000000  1
  Pd  Pd11  1  0.997447  0.259627  0.500000  1
  Pd  Pd12  1  0.493844  0.262887  0.000000  1
  Pd  Pd13  1  0.997447  0.740373  0.500000  1
  Pd  Pd14  1  0.493844  0.737113  0.000000  1
  Pd  Pd15  1  0.500074  0.000000  0.259889  1
  Pd  Pd16  1  0.258777  0.000000  0.500000  1
  Pd  Pd17  1  0.500074  0.000000  0.740111  1
  Pd  Pd18  1  0.739557  0.000000  0.500000  1
  Pd  Pd19  1  0.002583  0.500000  0.260502  1
  Pd  Pd20  1  0.002583  0.500000  0.739498  1
  Pd  Pd21  1  0.252351  0.500000  0.500000  1
  Pd  Pd22  1  0.747485  0.500000  0.500000  1
  Pd  Pd23  1  0.501772  0.253124  0.500000  1
  Pd  Pd24  1  0.501772  0.746876  0.500000  1
  Pd  Pd25  1  0.496465  0.500000  0.251655  1
  Pd  Pd26  1  0.496465  0.500000  0.748345  1
  Pd  Pd27  1  0.287360  0.000000  0.000000  1
  Pd  Pd28  1  0.704663  0.000000  0.000000  1
  Pd  Pd29  1  0.011855  0.294020  0.000000  1
  Pd  Pd30  1  0.011855  0.705980  0.000000  1
  Pd  Pd31  1  0.998111  0.000000  0.290471  1
  Pd  Pd32  1  0.998111  0.000000  0.709529  1
