# generated using pymatgen
data_Er20AgIr7Os4
_symmetry_space_group_name_H-M   'P 1'
_cell_length_a   10.79018587
_cell_length_b   10.79018587
_cell_length_c   6.38974827
_cell_angle_alpha   90.02366483
_cell_angle_beta   90.02366483
_cell_angle_gamma   89.81775865
_symmetry_Int_Tables_number   1
_chemical_formula_structural   Er20AgIr7Os4
_chemical_formula_sum   'Er20 Ag1 Ir7 Os4'
_cell_volume   743.94243271
_cell_formula_units_Z   1
loop_
 _symmetry_equiv_pos_site_id
 _symmetry_equiv_pos_as_xyz
  1  'x, y, z'
loop_
 _atom_site_type_symbol
 _atom_site_label
 _atom_site_symmetry_multiplicity
 _atom_site_fract_x
 _atom_site_fract_y
 _atom_site_fract_z
 _atom_site_occupancy
  Er  Er0  1  0.292650  0.085262  0.376066  1
  Er  Er1  1  0.295028  0.913667  0.875981  1
  Er  Er2  1  0.701495  0.082875  0.861818  1
  Er  Er3  1  0.703050  0.906152  0.380235  1
  Er  Er4  1  0.585558  0.793239  0.877619  1
  Er  Er5  1  0.576334  0.207591  0.377962  1
  Er  Er6  1  0.412624  0.793170  0.377003  1
  Er  Er7  1  0.413277  0.206226  0.877725  1
  Er  Er8  1  0.206761  0.414442  0.622381  1
  Er  Er9  1  0.206830  0.587376  0.122997  1
  Er  Er10  1  0.792409  0.423666  0.122038  1
  Er  Er11  1  0.793774  0.586723  0.622275  1
  Er  Er12  1  0.914738  0.707350  0.123934  1
  Er  Er13  1  0.917125  0.298505  0.638182  1
  Er  Er14  1  0.086333  0.704972  0.624019  1
  Er  Er15  1  0.093848  0.296950  0.119765  1
  Er  Er16  1  0.004556  0.994694  0.504077  1
  Er  Er17  1  0.005306  0.995444  0.995923  1
  Er  Er18  1  0.499401  0.500243  0.999271  1
  Er  Er19  1  0.499757  0.500599  0.500729  1
  Ag  Ag20  1  0.844463  0.155537  0.250000  1
  Ir  Ir21  1  0.848746  0.849365  0.750382  1
  Ir  Ir22  1  0.150635  0.151254  0.749618  1
  Ir  Ir23  1  0.152486  0.847514  0.250000  1
  Ir  Ir24  1  0.653245  0.346755  0.750000  1
  Ir  Ir25  1  0.651978  0.651874  0.249958  1
  Ir  Ir26  1  0.348126  0.348022  0.250042  1
  Ir  Ir27  1  0.347905  0.652095  0.750000  1
  Os  Os28  1  0.501152  0.999979  0.125285  1
  Os  Os29  1  0.499893  0.999502  0.622397  1
  Os  Os30  1  0.000498  0.500107  0.877603  1
  Os  Os31  1  0.000021  0.498848  0.374715  1
