# generated using pymatgen
data_Dy5Er4Lu11Bi12
_symmetry_space_group_name_H-M   'P 1'
_cell_length_a   8.17408071
_cell_length_b   9.40859974
_cell_length_c   11.95669500
_cell_angle_alpha   89.98075647
_cell_angle_beta   90.06149388
_cell_angle_gamma   90.01207221
_symmetry_Int_Tables_number   1
_chemical_formula_structural   Dy5Er4Lu11Bi12
_chemical_formula_sum   'Dy5 Er4 Lu11 Bi12'
_cell_volume   919.54879890
_cell_formula_units_Z   1
loop_
 _symmetry_equiv_pos_site_id
 _symmetry_equiv_pos_as_xyz
  1  'x, y, z'
loop_
 _atom_site_type_symbol
 _atom_site_label
 _atom_site_symmetry_multiplicity
 _atom_site_fract_x
 _atom_site_fract_y
 _atom_site_fract_z
 _atom_site_occupancy
  Dy  Dy0  1  0.185046  0.749847  0.717667  1
  Dy  Dy1  1  0.685724  0.749711  0.782180  1
  Dy  Dy2  1  0.814400  0.249516  0.281872  1
  Dy  Dy3  1  0.314296  0.249492  0.217480  1
  Dy  Dy4  1  0.809184  0.436651  0.559897  1
  Er  Er5  1  0.353834  0.749459  0.217218  1
  Er  Er6  1  0.852868  0.748566  0.282368  1
  Er  Er7  1  0.644788  0.249130  0.782993  1
  Er  Er8  1  0.147531  0.249186  0.718022  1
  Lu  Lu9  1  0.022193  0.749320  0.989448  1
  Lu  Lu10  1  0.521971  0.749615  0.510741  1
  Lu  Lu11  1  0.977794  0.249659  0.010875  1
  Lu  Lu12  1  0.476931  0.249739  0.489141  1
  Lu  Lu13  1  0.308613  0.432383  0.940571  1
  Lu  Lu14  1  0.808361  0.068854  0.560168  1
  Lu  Lu15  1  0.691681  0.932392  0.059432  1
  Lu  Lu16  1  0.190577  0.567908  0.440498  1
  Lu  Lu17  1  0.691219  0.567240  0.059495  1
  Lu  Lu18  1  0.193038  0.933545  0.439530  1
  Lu  Lu19  1  0.308455  0.067085  0.940746  1
  Bi  Bi20  1  0.433973  0.003917  0.672676  1
  Bi  Bi21  1  0.934375  0.494783  0.827741  1
  Bi  Bi22  1  0.566087  0.504034  0.327180  1
  Bi  Bi23  1  0.065912  0.994511  0.172651  1
  Bi  Bi24  1  0.565979  0.994965  0.327323  1
  Bi  Bi25  1  0.066616  0.504150  0.172346  1
  Bi  Bi26  1  0.433086  0.495221  0.672794  1
  Bi  Bi27  1  0.933988  0.004388  0.827900  1
  Bi  Bi28  1  0.402007  0.749815  0.957753  1
  Bi  Bi29  1  0.903431  0.755426  0.541088  1
  Bi  Bi30  1  0.598063  0.249878  0.042284  1
  Bi  Bi31  1  0.097980  0.249614  0.457923  1
