# generated using pymatgen
data_Mg4TaTi(SbPt)6
_symmetry_space_group_name_H-M   'P 1'
_cell_length_a   7.74741383
_cell_length_b   7.74482869
_cell_length_c   7.74992909
_cell_angle_alpha   99.61638351
_cell_angle_beta   99.64351206
_cell_angle_gamma   120.02895953
_symmetry_Int_Tables_number   1
_chemical_formula_structural   Mg4TaTi(SbPt)6
_chemical_formula_sum   'Mg4 Ta1 Ti1 Sb6 Pt6'
_cell_volume   379.37463569
_cell_formula_units_Z   1
loop_
 _symmetry_equiv_pos_site_id
 _symmetry_equiv_pos_as_xyz
  1  'x, y, z'
loop_
 _atom_site_type_symbol
 _atom_site_label
 _atom_site_symmetry_multiplicity
 _atom_site_fract_x
 _atom_site_fract_y
 _atom_site_fract_z
 _atom_site_occupancy
  Mg  Mg0  1  0.330213  0.163615  0.499501  1
  Mg  Mg1  1  0.999341  0.502962  0.499972  1
  Mg  Mg2  1  0.163699  0.330314  0.998819  1
  Mg  Mg3  1  0.502635  0.999012  0.999362  1
  Ta  Ta4  1  0.832842  0.668635  0.000445  1
  Ti  Ti5  1  0.669012  0.833584  0.501092  1
  Sb  Sb6  1  0.918755  0.094965  0.248794  1
  Sb  Sb7  1  0.258945  0.749829  0.250071  1
  Sb  Sb8  1  0.575590  0.407620  0.255617  1
  Sb  Sb9  1  0.093986  0.919631  0.745746  1
  Sb  Sb10  1  0.749085  0.254246  0.747243  1
  Sb  Sb11  1  0.406518  0.576470  0.752601  1
  Pt  Pt12  1  0.193186  0.025056  0.119805  1
  Pt  Pt13  1  0.872574  0.389206  0.120676  1
  Pt  Pt14  1  0.558880  0.709669  0.133238  1
  Pt  Pt15  1  0.025750  0.193835  0.620235  1
  Pt  Pt16  1  0.388508  0.872645  0.621280  1
  Pt  Pt17  1  0.710435  0.558667  0.635502  1
