# generated using pymatgen
data_LuHf(Al3Ir)3
_symmetry_space_group_name_H-M   'P 1'
_cell_length_a   7.49585634
_cell_length_b   7.48597460
_cell_length_c   9.31004300
_cell_angle_alpha   90.00000000
_cell_angle_beta   90.00000000
_cell_angle_gamma   119.74260057
_symmetry_Int_Tables_number   1
_chemical_formula_structural   LuHf(Al3Ir)3
_chemical_formula_sum   'Lu2 Hf2 Al18 Ir6'
_cell_volume   453.59946175
_cell_formula_units_Z   2
loop_
 _symmetry_equiv_pos_site_id
 _symmetry_equiv_pos_as_xyz
  1  'x, y, z'
loop_
 _atom_site_type_symbol
 _atom_site_label
 _atom_site_symmetry_multiplicity
 _atom_site_fract_x
 _atom_site_fract_y
 _atom_site_fract_z
 _atom_site_occupancy
  Lu  Lu0  1  0.670864  0.994614  0.250000  1
  Lu  Lu1  1  0.329136  0.005386  0.750000  1
  Hf  Hf2  1  0.995661  0.671400  0.250000  1
  Hf  Hf3  1  0.004339  0.328600  0.750000  1
  Al  Al4  1  0.125927  0.124124  0.250000  1
  Al  Al5  1  0.874073  0.875876  0.750000  1
  Al  Al6  1  0.999564  0.336490  0.076225  1
  Al  Al7  1  0.000436  0.663510  0.923775  1
  Al  Al8  1  0.000436  0.663510  0.576225  1
  Al  Al9  1  0.332843  0.998339  0.421758  1
  Al  Al10  1  0.999564  0.336490  0.423775  1
  Al  Al11  1  0.667157  0.001661  0.578242  1
  Al  Al12  1  0.667157  0.001661  0.921758  1
  Al  Al13  1  0.332843  0.998339  0.078242  1
  Al  Al14  1  0.331309  0.333152  0.558294  1
  Al  Al15  1  0.668691  0.666848  0.441706  1
  Al  Al16  1  0.668691  0.666848  0.058294  1
  Al  Al17  1  0.331309  0.333152  0.941706  1
  Al  Al18  1  0.335424  0.548427  0.250000  1
  Al  Al19  1  0.664576  0.451573  0.750000  1
  Al  Al20  1  0.553234  0.342611  0.250000  1
  Al  Al21  1  0.446766  0.657389  0.750000  1
  Ir  Ir22  1  0.672739  0.327301  0.999533  1
  Ir  Ir23  1  0.327261  0.672699  0.000467  1
  Ir  Ir24  1  0.327261  0.672699  0.499533  1
  Ir  Ir25  1  0.672739  0.327301  0.500467  1
  Ir  Ir26  1  0.000000  0.000000  0.000000  1
  Ir  Ir27  1  0.000000  0.000000  0.500000  1
