# generated using pymatgen
data_Be6Co2ReW3
_symmetry_space_group_name_H-M   'P 1'
_cell_length_a   4.53555200
_cell_length_b   4.53555315
_cell_length_c   7.22790000
_cell_angle_alpha   90.00000000
_cell_angle_beta   90.00000000
_cell_angle_gamma   120.00000622
_symmetry_Int_Tables_number   1
_chemical_formula_structural   Be6Co2ReW3
_chemical_formula_sum   'Be6 Co2 Re1 W3'
_cell_volume   128.76657691
_cell_formula_units_Z   1
loop_
 _symmetry_equiv_pos_site_id
 _symmetry_equiv_pos_as_xyz
  1  'x, y, z'
loop_
 _atom_site_type_symbol
 _atom_site_label
 _atom_site_symmetry_multiplicity
 _atom_site_fract_x
 _atom_site_fract_y
 _atom_site_fract_z
 _atom_site_occupancy
  Be  Be0  1  0.832133  0.664267  0.251397  1
  Be  Be1  1  0.168824  0.831176  0.749273  1
  Be  Be2  1  0.662352  0.831176  0.749273  1
  Be  Be3  1  0.335733  0.167867  0.251397  1
  Be  Be4  1  0.832133  0.167867  0.251397  1
  Be  Be5  1  0.168824  0.337648  0.749273  1
  Co  Co6  1  0.000000  0.000000  0.000910  1
  Co  Co7  1  0.000000  0.000000  0.500381  1
  Re  Re8  1  0.333333  0.666667  0.429591  1
  W  W9  1  0.333333  0.666667  0.070414  1
  W  W10  1  0.666667  0.333333  0.564029  1
  W  W11  1  0.666667  0.333333  0.932664  1
