# generated using pymatgen
data_Ba2AlSiBr
_symmetry_space_group_name_H-M   'P 1'
_cell_length_a   4.48141500
_cell_length_b   4.48141728
_cell_length_c   9.20087100
_cell_angle_alpha   90.00000000
_cell_angle_beta   90.00000000
_cell_angle_gamma   120.00000532
_symmetry_Int_Tables_number   1
_chemical_formula_structural   Ba2AlSiBr
_chemical_formula_sum   'Ba2 Al1 Si1 Br1'
_cell_volume   160.02583351
_cell_formula_units_Z   1
loop_
 _symmetry_equiv_pos_site_id
 _symmetry_equiv_pos_as_xyz
  1  'x, y, z'
loop_
 _atom_site_type_symbol
 _atom_site_label
 _atom_site_symmetry_multiplicity
 _atom_site_fract_x
 _atom_site_fract_y
 _atom_site_fract_z
 _atom_site_occupancy
  Ba  Ba0  1  0.000000  0.000000  0.253458  1
  Ba  Ba1  1  0.000000  0.000000  0.746542  1
  Al  Al2  1  0.666667  0.333333  0.000000  1
  Si  Si3  1  0.333333  0.666667  0.000000  1
  Br  Br4  1  0.666667  0.333333  0.500000  1
