# generated using pymatgen
data_Ti5Pt2Rh
_symmetry_space_group_name_H-M   'P 1'
_cell_length_a   4.99825800
_cell_length_b   5.02437700
_cell_length_c   4.99825800
_cell_angle_alpha   90.00000000
_cell_angle_beta   90.00000000
_cell_angle_gamma   90.00000000
_symmetry_Int_Tables_number   1
_chemical_formula_structural   Ti5Pt2Rh
_chemical_formula_sum   'Ti5 Pt2 Rh1'
_cell_volume   125.52191560
_cell_formula_units_Z   1
loop_
 _symmetry_equiv_pos_site_id
 _symmetry_equiv_pos_as_xyz
  1  'x, y, z'
loop_
 _atom_site_type_symbol
 _atom_site_label
 _atom_site_symmetry_multiplicity
 _atom_site_fract_x
 _atom_site_fract_y
 _atom_site_fract_z
 _atom_site_occupancy
  Ti  Ti0  1  0.000000  0.750000  0.500000  1
  Ti  Ti1  1  0.252414  0.486770  0.000000  1
  Ti  Ti2  1  0.747586  0.486770  0.000000  1
  Ti  Ti3  1  0.500000  0.013230  0.247586  1
  Ti  Ti4  1  0.500000  0.013230  0.752414  1
  Pt  Pt5  1  0.500000  0.525547  0.500000  1
  Pt  Pt6  1  0.000000  0.974453  0.000000  1
  Rh  Rh7  1  0.000000  0.250000  0.500000  1
