# generated using pymatgen
data_K8Y6BeBr20
_symmetry_space_group_name_H-M   'P 1'
_cell_length_a   12.06736556
_cell_length_b   12.06736579
_cell_length_c   12.06736600
_cell_angle_alpha   59.99999942
_cell_angle_beta   59.99999878
_cell_angle_gamma   60.00000141
_symmetry_Int_Tables_number   1
_chemical_formula_structural   K8Y6BeBr20
_chemical_formula_sum   'K8 Y6 Be1 Br20'
_cell_volume   1242.57448693
_cell_formula_units_Z   1
loop_
 _symmetry_equiv_pos_site_id
 _symmetry_equiv_pos_as_xyz
  1  'x, y, z'
loop_
 _atom_site_type_symbol
 _atom_site_label
 _atom_site_symmetry_multiplicity
 _atom_site_fract_x
 _atom_site_fract_y
 _atom_site_fract_z
 _atom_site_occupancy
  K  K0  1  0.358573  0.358573  0.358573  1
  K  K1  1  0.641427  0.641427  0.641427  1
  K  K2  1  0.358573  0.358573  0.924280  1
  K  K3  1  0.358573  0.924280  0.358573  1
  K  K4  1  0.641427  0.641427  0.075720  1
  K  K5  1  0.641427  0.075720  0.641427  1
  K  K6  1  0.924280  0.358573  0.358573  1
  K  K7  1  0.075720  0.641427  0.641427  1
  Y  Y8  1  0.841595  0.158405  0.158405  1
  Y  Y9  1  0.158405  0.841595  0.841595  1
  Y  Y10  1  0.158405  0.841595  0.158405  1
  Y  Y11  1  0.841595  0.158405  0.841595  1
  Y  Y12  1  0.158405  0.158405  0.841595  1
  Y  Y13  1  0.841595  0.841595  0.158405  1
  Be  Be14  1  0.000000  0.000000  0.000000  1
  Br  Br15  1  0.338038  0.000000  0.000000  1
  Br  Br16  1  0.661962  0.000000  0.000000  1
  Br  Br17  1  0.000000  0.338038  0.661962  1
  Br  Br18  1  0.000000  0.661962  0.338038  1
  Br  Br19  1  0.000000  0.338038  0.000000  1
  Br  Br20  1  0.661962  0.000000  0.338038  1
  Br  Br21  1  0.000000  0.661962  0.000000  1
  Br  Br22  1  0.338038  0.000000  0.661962  1
  Br  Br23  1  0.000000  0.000000  0.338038  1
  Br  Br24  1  0.000000  0.000000  0.661962  1
  Br  Br25  1  0.661962  0.338038  0.000000  1
  Br  Br26  1  0.338038  0.661962  0.000000  1
  Br  Br27  1  0.673637  0.326363  0.326363  1
  Br  Br28  1  0.326363  0.673637  0.673637  1
  Br  Br29  1  0.326363  0.673637  0.326363  1
  Br  Br30  1  0.673637  0.326363  0.673637  1
  Br  Br31  1  0.326363  0.326363  0.673637  1
  Br  Br32  1  0.673637  0.673637  0.326363  1
  Br  Br33  1  0.250000  0.250000  0.250000  1
  Br  Br34  1  0.750000  0.750000  0.750000  1
