# generated using pymatgen
data_Gd4Sb8Au3
_symmetry_space_group_name_H-M   'P 1'
_cell_length_a   11.13698087
_cell_length_b   11.13698111
_cell_length_c   11.13698100
_cell_angle_alpha   147.86655850
_cell_angle_beta   147.86656043
_cell_angle_gamma   46.08238853
_symmetry_Int_Tables_number   1
_chemical_formula_structural   Gd4Sb8Au3
_chemical_formula_sum   'Gd4 Sb8 Au3'
_cell_volume   389.44994045
_cell_formula_units_Z   1
loop_
 _symmetry_equiv_pos_site_id
 _symmetry_equiv_pos_as_xyz
  1  'x, y, z'
loop_
 _atom_site_type_symbol
 _atom_site_label
 _atom_site_symmetry_multiplicity
 _atom_site_fract_x
 _atom_site_fract_y
 _atom_site_fract_z
 _atom_site_occupancy
  Gd  Gd0  1  0.632982  0.117932  0.000000  1
  Gd  Gd1  1  0.117932  0.632982  0.000000  1
  Gd  Gd2  1  0.882068  0.882068  0.515049  1
  Gd  Gd3  1  0.367018  0.367018  0.484951  1
  Sb  Sb4  1  0.250790  0.250790  0.000000  1
  Sb  Sb5  1  0.749210  0.749210  0.000000  1
  Sb  Sb6  1  0.250000  0.750000  0.500000  1
  Sb  Sb7  1  0.750000  0.250000  0.500000  1
  Sb  Sb8  1  0.347338  0.828176  0.000000  1
  Sb  Sb9  1  0.828176  0.347338  0.000000  1
  Sb  Sb10  1  0.171824  0.171824  0.519162  1
  Sb  Sb11  1  0.652662  0.652662  0.480838  1
  Au  Au12  1  0.000000  0.000000  0.000000  1
  Au  Au13  1  0.500000  0.000000  0.500000  1
  Au  Au14  1  0.000000  0.500000  0.500000  1
