# generated using pymatgen
data_Li2P2PdRu
_symmetry_space_group_name_H-M   'P 1'
_cell_length_a   3.89514000
_cell_length_b   6.53511478
_cell_length_c   6.82887936
_cell_angle_alpha   89.08488632
_cell_angle_beta   90.00000000
_cell_angle_gamma   90.00000000
_symmetry_Int_Tables_number   1
_chemical_formula_structural   Li2P2PdRu
_chemical_formula_sum   'Li4 P4 Pd2 Ru2'
_cell_volume   173.80822968
_cell_formula_units_Z   2
loop_
 _symmetry_equiv_pos_site_id
 _symmetry_equiv_pos_as_xyz
  1  'x, y, z'
loop_
 _atom_site_type_symbol
 _atom_site_label
 _atom_site_symmetry_multiplicity
 _atom_site_fract_x
 _atom_site_fract_y
 _atom_site_fract_z
 _atom_site_occupancy
  Li  Li0  1  0.250000  0.518391  0.161590  1
  Li  Li1  1  0.750000  0.481609  0.838410  1
  Li  Li2  1  0.750000  0.979070  0.671119  1
  Li  Li3  1  0.250000  0.020930  0.328881  1
  P  P4  1  0.250000  0.778443  0.861257  1
  P  P5  1  0.750000  0.221557  0.138743  1
  P  P6  1  0.750000  0.712526  0.389684  1
  P  P7  1  0.250000  0.287474  0.610316  1
  Pd  Pd8  1  0.750000  0.850789  0.060112  1
  Pd  Pd9  1  0.250000  0.149211  0.939888  1
  Ru  Ru10  1  0.250000  0.642711  0.558337  1
  Ru  Ru11  1  0.750000  0.357289  0.441663  1
