# generated using pymatgen
data_Rb2BaPuO6
_symmetry_space_group_name_H-M   'P 1'
_cell_length_a   6.54374117
_cell_length_b   6.54374056
_cell_length_c   6.54374200
_cell_angle_alpha   60.00001295
_cell_angle_beta   60.00001601
_cell_angle_gamma   90.00000585
_symmetry_Int_Tables_number   1
_chemical_formula_structural   Rb2BaPuO6
_chemical_formula_sum   'Rb2 Ba1 Pu1 O6'
_cell_volume   198.13606044
_cell_formula_units_Z   1
loop_
 _symmetry_equiv_pos_site_id
 _symmetry_equiv_pos_as_xyz
  1  'x, y, z'
loop_
 _atom_site_type_symbol
 _atom_site_label
 _atom_site_symmetry_multiplicity
 _atom_site_fract_x
 _atom_site_fract_y
 _atom_site_fract_z
 _atom_site_occupancy
  Rb  Rb0  1  0.250003  0.750001  0.499998  1
  Rb  Rb1  1  0.750000  0.250000  0.500000  1
  Ba  Ba2  1  0.500000  0.500000  0.000000  1
  Pu  Pu3  1  0.000000  0.000000  0.000000  1
  O  O4  1  0.785540  0.214460  0.000000  1
  O  O5  1  0.214461  0.214461  0.000000  1
  O  O6  1  0.214461  0.785539  0.000000  1
  O  O7  1  0.785539  0.785539  0.000000  1
  O  O8  1  0.785540  0.785540  0.428920  1
  O  O9  1  0.214460  0.214460  0.571079  1
