# generated using pymatgen
data_Zr2TiCo2Ir
_symmetry_space_group_name_H-M   'P 1'
_cell_length_a   5.27549816
_cell_length_b   4.92991762
_cell_length_c   5.19569700
_cell_angle_alpha   58.19999535
_cell_angle_beta   60.49913378
_cell_angle_gamma   59.65236474
_symmetry_Int_Tables_number   1
_chemical_formula_structural   Zr2TiCo2Ir
_chemical_formula_sum   'Zr2 Ti1 Co2 Ir1'
_cell_volume   94.27723219
_cell_formula_units_Z   1
loop_
 _symmetry_equiv_pos_site_id
 _symmetry_equiv_pos_as_xyz
  1  'x, y, z'
loop_
 _atom_site_type_symbol
 _atom_site_label
 _atom_site_symmetry_multiplicity
 _atom_site_fract_x
 _atom_site_fract_y
 _atom_site_fract_z
 _atom_site_occupancy
  Zr  Zr0  1  0.257668  0.245833  0.248250  1
  Zr  Zr1  1  0.992332  0.004167  0.001750  1
  Ti  Ti2  1  0.625000  0.125000  0.625000  1
  Co  Co3  1  0.625000  0.625000  0.125000  1
  Co  Co4  1  0.625000  0.625000  0.625000  1
  Ir  Ir5  1  0.125000  0.625000  0.625000  1
