# generated using pymatgen
data_Ca4DyZr3(Ni4As3)4
_symmetry_space_group_name_H-M   'P 1'
_cell_length_a   12.81794012
_cell_length_b   12.81794000
_cell_length_c   3.93418000
_cell_angle_alpha   90.00000000
_cell_angle_beta   90.00000000
_cell_angle_gamma   120.01561417
_symmetry_Int_Tables_number   1
_chemical_formula_structural   Ca4DyZr3(Ni4As3)4
_chemical_formula_sum   'Ca4 Dy1 Zr3 Ni16 As12'
_cell_volume   559.69699854
_cell_formula_units_Z   1
loop_
 _symmetry_equiv_pos_site_id
 _symmetry_equiv_pos_as_xyz
  1  'x, y, z'
loop_
 _atom_site_type_symbol
 _atom_site_label
 _atom_site_symmetry_multiplicity
 _atom_site_fract_x
 _atom_site_fract_y
 _atom_site_fract_z
 _atom_site_occupancy
  Ca  Ca0  1  0.816070  0.000062  0.500000  1
  Ca  Ca1  1  0.000062  0.816070  0.500000  1
  Ca  Ca2  1  0.333053  0.666511  0.000000  1
  Ca  Ca3  1  0.666511  0.333053  0.000000  1
  Dy  Dy4  1  0.185159  0.185159  0.500000  1
  Zr  Zr5  1  0.564732  0.564732  0.000000  1
  Zr  Zr6  1  0.435461  0.000121  0.000000  1
  Zr  Zr7  1  0.000121  0.435461  0.000000  1
  Ni  Ni8  1  0.722230  0.722230  0.500000  1
  Ni  Ni9  1  0.277785  0.002399  0.500000  1
  Ni  Ni10  1  0.002399  0.277785  0.500000  1
  Ni  Ni11  1  0.183639  0.375948  0.000000  1
  Ni  Ni12  1  0.621904  0.806481  0.000000  1
  Ni  Ni13  1  0.193535  0.814555  0.000000  1
  Ni  Ni14  1  0.806481  0.621904  0.000000  1
  Ni  Ni15  1  0.814555  0.193535  0.000000  1
  Ni  Ni16  1  0.375948  0.183639  0.000000  1
  Ni  Ni17  1  0.361990  0.481762  0.500000  1
  Ni  Ni18  1  0.516699  0.879480  0.500000  1
  Ni  Ni19  1  0.120419  0.637045  0.500000  1
  Ni  Ni20  1  0.879480  0.516699  0.500000  1
  Ni  Ni21  1  0.637045  0.120419  0.500000  1
  Ni  Ni22  1  0.481762  0.361990  0.500000  1
  Ni  Ni23  1  0.002286  0.002286  0.000000  1
  As  As24  1  0.822384  0.822384  0.000000  1
  As  As25  1  0.178550  0.000012  0.000000  1
  As  As26  1  0.000012  0.178550  0.000000  1
  As  As27  1  0.172526  0.478028  0.500000  1
  As  As28  1  0.521745  0.693980  0.500000  1
  As  As29  1  0.305445  0.828433  0.500000  1
  As  As30  1  0.693980  0.521745  0.500000  1
  As  As31  1  0.828433  0.305445  0.500000  1
  As  As32  1  0.478028  0.172526  0.500000  1
  As  As33  1  0.355660  0.355660  0.000000  1
  As  As34  1  0.644072  0.999839  0.000000  1
  As  As35  1  0.999839  0.644072  0.000000  1
