# generated using pymatgen
data_CsY3S5
_symmetry_space_group_name_H-M   'P 1'
_cell_length_a   4.02060700
_cell_length_b   12.03719900
_cell_length_c   21.48618400
_cell_angle_alpha   90.00000000
_cell_angle_beta   90.00000000
_cell_angle_gamma   90.00000000
_symmetry_Int_Tables_number   1
_chemical_formula_structural   CsY3S5
_chemical_formula_sum   'Cs4 Y12 S20'
_cell_volume   1039.86355020
_cell_formula_units_Z   4
loop_
 _symmetry_equiv_pos_site_id
 _symmetry_equiv_pos_as_xyz
  1  'x, y, z'
loop_
 _atom_site_type_symbol
 _atom_site_label
 _atom_site_symmetry_multiplicity
 _atom_site_fract_x
 _atom_site_fract_y
 _atom_site_fract_z
 _atom_site_occupancy
  Cs  Cs0  1  0.250000  0.853978  0.093062  1
  Cs  Cs1  1  0.750000  0.146022  0.906938  1
  Cs  Cs2  1  0.750000  0.353978  0.406938  1
  Cs  Cs3  1  0.250000  0.646022  0.593062  1
  Y  Y4  1  0.750000  0.797626  0.825424  1
  Y  Y5  1  0.250000  0.202374  0.174576  1
  Y  Y6  1  0.250000  0.297626  0.674576  1
  Y  Y7  1  0.750000  0.702374  0.325424  1
  Y  Y8  1  0.250000  0.957736  0.697612  1
  Y  Y9  1  0.750000  0.042264  0.302388  1
  Y  Y10  1  0.750000  0.457736  0.802388  1
  Y  Y11  1  0.250000  0.542264  0.197612  1
  Y  Y12  1  0.750000  0.391068  0.053078  1
  Y  Y13  1  0.250000  0.608932  0.946922  1
  Y  Y14  1  0.250000  0.891068  0.446922  1
  Y  Y15  1  0.750000  0.108932  0.553078  1
  S  S16  1  0.250000  0.951458  0.568680  1
  S  S17  1  0.750000  0.048542  0.431320  1
  S  S18  1  0.750000  0.451458  0.931320  1
  S  S19  1  0.250000  0.548542  0.068680  1
  S  S20  1  0.750000  0.761762  0.951403  1
  S  S21  1  0.250000  0.238238  0.048597  1
  S  S22  1  0.250000  0.261762  0.548597  1
  S  S23  1  0.750000  0.738238  0.451403  1
  S  S24  1  0.250000  0.946661  0.824289  1
  S  S25  1  0.750000  0.053339  0.175711  1
  S  S26  1  0.750000  0.446661  0.675711  1
  S  S27  1  0.250000  0.553339  0.324289  1
  S  S28  1  0.750000  0.126021  0.682698  1
  S  S29  1  0.250000  0.873979  0.317302  1
  S  S30  1  0.250000  0.626021  0.817302  1
  S  S31  1  0.750000  0.373979  0.182698  1
  S  S32  1  0.750000  0.689903  0.198904  1
  S  S33  1  0.250000  0.310097  0.801096  1
  S  S34  1  0.250000  0.189903  0.301096  1
  S  S35  1  0.750000  0.810097  0.698904  1
