# generated using pymatgen
data_Y7Ho13Sn15Te
_symmetry_space_group_name_H-M   'P 1'
_cell_length_a   8.05552048
_cell_length_b   8.15764241
_cell_length_c   15.40664700
_cell_angle_alpha   90.10025450
_cell_angle_beta   90.62513974
_cell_angle_gamma   89.94273499
_symmetry_Int_Tables_number   1
_chemical_formula_structural   Y7Ho13Sn15Te
_chemical_formula_sum   'Y7 Ho13 Sn15 Te1'
_cell_volume   1012.37095760
_cell_formula_units_Z   1
loop_
 _symmetry_equiv_pos_site_id
 _symmetry_equiv_pos_as_xyz
  1  'x, y, z'
loop_
 _atom_site_type_symbol
 _atom_site_label
 _atom_site_symmetry_multiplicity
 _atom_site_fract_x
 _atom_site_fract_y
 _atom_site_fract_z
 _atom_site_occupancy
  Y  Y0  1  0.021730  0.178010  0.597512  1
  Y  Y1  1  0.478795  0.677492  0.402674  1
  Y  Y2  1  0.965760  0.818836  0.101402  1
  Y  Y3  1  0.475605  0.669906  0.099515  1
  Y  Y4  1  0.978422  0.821864  0.402623  1
  Y  Y5  1  0.521117  0.321464  0.597570  1
  Y  Y6  1  0.022657  0.181154  0.899227  1
  Ho  Ho7  1  0.373514  0.837653  0.878347  1
  Ho  Ho8  1  0.867603  0.663207  0.623315  1
  Ho  Ho9  1  0.632903  0.162193  0.376108  1
  Ho  Ho10  1  0.125979  0.342255  0.122512  1
  Ho  Ho11  1  0.630588  0.162190  0.120649  1
  Ho  Ho12  1  0.133375  0.337250  0.376252  1
  Ho  Ho13  1  0.367174  0.838164  0.623495  1
  Ho  Ho14  1  0.871378  0.662387  0.877838  1
  Ho  Ho15  1  0.534437  0.331853  0.896812  1
  Ho  Ho16  1  0.199667  0.502582  0.749505  1
  Ho  Ho17  1  0.699190  0.997963  0.750180  1
  Ho  Ho18  1  0.800578  0.497369  0.250540  1
  Ho  Ho19  1  0.300754  0.001424  0.254402  1
  Sn  Sn20  1  0.794451  0.461609  0.458412  1
  Sn  Sn21  1  0.705971  0.962293  0.541473  1
  Sn  Sn22  1  0.214784  0.533340  0.957895  1
  Sn  Sn23  1  0.714351  0.967157  0.957303  1
  Sn  Sn24  1  0.205884  0.538178  0.541379  1
  Sn  Sn25  1  0.294871  0.037705  0.458783  1
  Sn  Sn26  1  0.789657  0.463872  0.041707  1
  Sn  Sn27  1  0.566071  0.621876  0.750293  1
  Sn  Sn28  1  0.066919  0.879709  0.752093  1
  Sn  Sn29  1  0.434387  0.377422  0.247554  1
  Sn  Sn30  1  0.934525  0.120418  0.247603  1
  Sn  Sn31  1  0.333651  0.148570  0.750821  1
  Sn  Sn32  1  0.833824  0.353028  0.748782  1
  Sn  Sn33  1  0.664113  0.851801  0.249738  1
  Sn  Sn34  1  0.166487  0.648079  0.250153  1
  Te  Te35  1  0.278827  0.029727  0.045533  1
