# generated using pymatgen
data_Gd(MnB3)2
_symmetry_space_group_name_H-M   'P 1'
_cell_length_a   5.47142626
_cell_length_b   5.47142581
_cell_length_c   5.47142600
_cell_angle_alpha   147.16236590
_cell_angle_beta   107.91551627
_cell_angle_gamma   81.49911295
_symmetry_Int_Tables_number   1
_chemical_formula_structural   Gd(MnB3)2
_chemical_formula_sum   'Gd1 Mn2 B6'
_cell_volume   82.54720932
_cell_formula_units_Z   1
loop_
 _symmetry_equiv_pos_site_id
 _symmetry_equiv_pos_as_xyz
  1  'x, y, z'
loop_
 _atom_site_type_symbol
 _atom_site_label
 _atom_site_symmetry_multiplicity
 _atom_site_fract_x
 _atom_site_fract_y
 _atom_site_fract_z
 _atom_site_occupancy
  Gd  Gd0  1  0.000000  0.000000  0.000000  1
  Mn  Mn1  1  0.654913  0.154913  0.500000  1
  Mn  Mn2  1  0.345087  0.845087  0.500000  1
  B  B3  1  0.640831  0.499999  0.140831  1
  B  B4  1  0.540153  0.303720  0.236434  1
  B  B5  1  0.932715  0.696280  0.236434  1
  B  B6  1  0.067286  0.303721  0.763567  1
  B  B7  1  0.459846  0.696280  0.763567  1
  B  B8  1  0.359169  0.500000  0.859169  1
