# generated using pymatgen
data_CuBi3PtRh3O14
_symmetry_space_group_name_H-M   'P 1'
_cell_length_a   7.16510075
_cell_length_b   7.34568823
_cell_length_c   7.36620100
_cell_angle_alpha   59.90758655
_cell_angle_beta   59.06714228
_cell_angle_gamma   58.99261552
_symmetry_Int_Tables_number   1
_chemical_formula_structural   CuBi3PtRh3O14
_chemical_formula_sum   'Cu1 Bi3 Pt1 Rh3 O14'
_cell_volume   269.87436950
_cell_formula_units_Z   1
loop_
 _symmetry_equiv_pos_site_id
 _symmetry_equiv_pos_as_xyz
  1  'x, y, z'
loop_
 _atom_site_type_symbol
 _atom_site_label
 _atom_site_symmetry_multiplicity
 _atom_site_fract_x
 _atom_site_fract_y
 _atom_site_fract_z
 _atom_site_occupancy
  Cu  Cu0  1  0.625000  0.125000  0.125000  1
  Bi  Bi1  1  0.125000  0.125000  0.625000  1
  Bi  Bi2  1  0.125000  0.625000  0.125000  1
  Bi  Bi3  1  0.125000  0.125000  0.125000  1
  Pt  Pt4  1  0.625000  0.125000  0.625000  1
  Rh  Rh5  1  0.625000  0.625000  0.125000  1
  Rh  Rh6  1  0.125000  0.625000  0.625000  1
  Rh  Rh7  1  0.625000  0.625000  0.625000  1
  O  O8  1  0.291722  0.235529  0.236374  1
  O  O9  1  0.958278  0.014471  0.013626  1
  O  O10  1  0.545115  0.955068  0.543237  1
  O  O11  1  0.286808  0.710874  0.291505  1
  O  O12  1  0.543894  0.549543  0.953281  1
  O  O13  1  0.963192  0.539126  0.539187  1
  O  O14  1  0.545115  0.955068  0.956579  1
  O  O15  1  0.965324  0.959423  0.537626  1
  O  O16  1  0.963192  0.539126  0.958495  1
  O  O17  1  0.704885  0.294932  0.293421  1
  O  O18  1  0.286808  0.710874  0.710813  1
  O  O19  1  0.704885  0.294932  0.706763  1
  O  O20  1  0.284676  0.290577  0.712374  1
  O  O21  1  0.706106  0.700457  0.296719  1
