# generated using pymatgen
data_U4Mn2Co3Si2Ni
_symmetry_space_group_name_H-M   'P 1'
_cell_length_a   5.05863892
_cell_length_b   5.05863901
_cell_length_c   7.58377200
_cell_angle_alpha   90.00000000
_cell_angle_beta   90.00000000
_cell_angle_gamma   117.93389530
_symmetry_Int_Tables_number   1
_chemical_formula_structural   U4Mn2Co3Si2Ni
_chemical_formula_sum   'U4 Mn2 Co3 Si2 Ni1'
_cell_volume   171.45636610
_cell_formula_units_Z   1
loop_
 _symmetry_equiv_pos_site_id
 _symmetry_equiv_pos_as_xyz
  1  'x, y, z'
loop_
 _atom_site_type_symbol
 _atom_site_label
 _atom_site_symmetry_multiplicity
 _atom_site_fract_x
 _atom_site_fract_y
 _atom_site_fract_z
 _atom_site_occupancy
  U  U0  1  0.340948  0.659052  0.427079  1
  U  U1  1  0.658141  0.341859  0.565961  1
  U  U2  1  0.658141  0.341859  0.934039  1
  U  U3  1  0.340948  0.659052  0.072921  1
  Mn  Mn4  1  0.835851  0.664565  0.250000  1
  Mn  Mn5  1  0.335435  0.164149  0.250000  1
  Co  Co6  1  0.166880  0.833120  0.750000  1
  Co  Co7  1  0.160203  0.335223  0.750000  1
  Co  Co8  1  0.664777  0.839797  0.750000  1
  Si  Si9  1  0.001878  0.998122  0.502838  1
  Si  Si10  1  0.001878  0.998122  0.997162  1
  Ni  Ni11  1  0.834920  0.165080  0.250000  1
