# generated using pymatgen
data_Tm10ZnGePb6
_symmetry_space_group_name_H-M   'P 1'
_cell_length_a   9.15512900
_cell_length_b   9.15512850
_cell_length_c   6.57493800
_cell_angle_alpha   90.00000000
_cell_angle_beta   90.00000000
_cell_angle_gamma   119.99999819
_symmetry_Int_Tables_number   1
_chemical_formula_structural   Tm10ZnGePb6
_chemical_formula_sum   'Tm10 Zn1 Ge1 Pb6'
_cell_volume   477.25579884
_cell_formula_units_Z   1
loop_
 _symmetry_equiv_pos_site_id
 _symmetry_equiv_pos_as_xyz
  1  'x, y, z'
loop_
 _atom_site_type_symbol
 _atom_site_label
 _atom_site_symmetry_multiplicity
 _atom_site_fract_x
 _atom_site_fract_y
 _atom_site_fract_z
 _atom_site_occupancy
  Tm  Tm0  1  0.333333  0.666667  0.000000  1
  Tm  Tm1  1  0.666667  0.333333  0.500000  1
  Tm  Tm2  1  0.666667  0.333333  0.000000  1
  Tm  Tm3  1  0.333333  0.666667  0.500000  1
  Tm  Tm4  1  0.256789  0.000000  0.237291  1
  Tm  Tm5  1  0.256789  0.256789  0.762709  1
  Tm  Tm6  1  0.000000  0.743211  0.762709  1
  Tm  Tm7  1  0.000000  0.256789  0.237291  1
  Tm  Tm8  1  0.743211  0.743211  0.237291  1
  Tm  Tm9  1  0.743211  0.000000  0.762709  1
  Zn  Zn10  1  0.000000  0.000000  0.500000  1
  Ge  Ge11  1  0.000000  0.000000  0.000000  1
  Pb  Pb12  1  0.610531  0.000000  0.249661  1
  Pb  Pb13  1  0.610531  0.610531  0.750339  1
  Pb  Pb14  1  0.000000  0.389469  0.750339  1
  Pb  Pb15  1  0.000000  0.610531  0.249661  1
  Pb  Pb16  1  0.389469  0.389469  0.249661  1
  Pb  Pb17  1  0.389469  0.000000  0.750339  1
