# generated using pymatgen
data_Ta8Fe7Si14Ir
_symmetry_space_group_name_H-M   'P 1'
_cell_length_a   9.24068940
_cell_length_b   9.24414252
_cell_length_c   9.23788800
_cell_angle_alpha   94.25601352
_cell_angle_beta   94.23165531
_cell_angle_gamma   148.43907320
_symmetry_Int_Tables_number   1
_chemical_formula_structural   Ta8Fe7Si14Ir
_chemical_formula_sum   'Ta8 Fe7 Si14 Ir1'
_cell_volume   397.44458660
_cell_formula_units_Z   1
loop_
 _symmetry_equiv_pos_site_id
 _symmetry_equiv_pos_as_xyz
  1  'x, y, z'
loop_
 _atom_site_type_symbol
 _atom_site_label
 _atom_site_symmetry_multiplicity
 _atom_site_fract_x
 _atom_site_fract_y
 _atom_site_fract_z
 _atom_site_occupancy
  Ta  Ta0  1  0.134737  0.134726  0.269424  1
  Ta  Ta1  1  0.865332  0.865320  0.730667  1
  Ta  Ta2  1  0.866428  0.133091  0.001854  1
  Ta  Ta3  1  0.135423  0.868752  0.001856  1
  Ta  Ta4  1  0.498452  0.309076  0.808380  1
  Ta  Ta5  1  0.501551  0.691477  0.192968  1
  Ta  Ta6  1  0.691407  0.501471  0.192976  1
  Ta  Ta7  1  0.309949  0.499332  0.808403  1
  Fe  Fe8  1  0.103718  0.603715  0.207509  1
  Fe  Fe9  1  0.101660  0.899713  0.500892  1
  Fe  Fe10  1  0.399339  0.601307  0.500965  1
  Fe  Fe11  1  0.596183  0.399619  0.496449  1
  Fe  Fe12  1  0.900233  0.096792  0.496457  1
  Fe  Fe13  1  0.899608  0.399608  0.799096  1
  Fe  Fe14  1  0.598705  0.098700  0.197290  1
  Si  Si15  1  0.515100  0.113582  0.587210  1
  Si  Si16  1  0.503389  0.907149  0.406802  1
  Si  Si17  1  0.903323  0.499601  0.406812  1
  Si  Si18  1  0.072160  0.473764  0.587228  1
  Si  Si19  1  0.750609  0.750810  0.000325  1
  Si  Si20  1  0.249720  0.249493  0.000316  1
  Si  Si21  1  0.290690  0.290639  0.580928  1
  Si  Si22  1  0.709189  0.709150  0.418678  1
  Si  Si23  1  0.727270  0.312113  0.006047  1
  Si  Si24  1  0.278744  0.693921  0.006012  1
  Si  Si25  1  0.998297  0.296297  0.298153  1
  Si  Si26  1  0.982376  0.690437  0.699835  1
  Si  Si27  1  0.717351  0.009269  0.699870  1
  Si  Si28  1  0.300012  0.002033  0.298206  1
  Ir  Ir29  1  0.399045  0.899045  0.798394  1
