# generated using pymatgen
data_Ir4Pb3AuO14
_symmetry_space_group_name_H-M   'P 1'
_cell_length_a   7.27361549
_cell_length_b   7.38698479
_cell_length_c   7.38698500
_cell_angle_alpha   60.00000352
_cell_angle_beta   59.48305706
_cell_angle_gamma   59.48305205
_symmetry_Int_Tables_number   1
_chemical_formula_structural   Ir4Pb3AuO14
_chemical_formula_sum   'Ir4 Pb3 Au1 O14'
_cell_volume   278.44010828
_cell_formula_units_Z   1
loop_
 _symmetry_equiv_pos_site_id
 _symmetry_equiv_pos_as_xyz
  1  'x, y, z'
loop_
 _atom_site_type_symbol
 _atom_site_label
 _atom_site_symmetry_multiplicity
 _atom_site_fract_x
 _atom_site_fract_y
 _atom_site_fract_z
 _atom_site_occupancy
  Ir  Ir0  1  0.125000  0.625000  0.625000  1
  Ir  Ir1  1  0.625000  0.125000  0.625000  1
  Ir  Ir2  1  0.625000  0.625000  0.125000  1
  Ir  Ir3  1  0.625000  0.625000  0.625000  1
  Pb  Pb4  1  0.125000  0.625000  0.125000  1
  Pb  Pb5  1  0.125000  0.125000  0.625000  1
  Pb  Pb6  1  0.125000  0.125000  0.125000  1
  Au  Au7  1  0.625000  0.125000  0.125000  1
  O  O8  1  0.704717  0.689766  0.302759  1
  O  O9  1  0.292858  0.296602  0.705270  1
  O  O10  1  0.704717  0.302759  0.689766  1
  O  O11  1  0.292858  0.705270  0.296602  1
  O  O12  1  0.292858  0.705270  0.705270  1
  O  O13  1  0.704717  0.302759  0.302759  1
  O  O14  1  0.545283  0.560234  0.947241  1
  O  O15  1  0.957142  0.953398  0.544730  1
  O  O16  1  0.545283  0.947241  0.560234  1
  O  O17  1  0.957142  0.544730  0.953398  1
  O  O18  1  0.957142  0.544730  0.544730  1
  O  O19  1  0.545283  0.947241  0.947241  1
  O  O20  1  0.283279  0.238907  0.238907  1
  O  O21  1  0.966721  0.011093  0.011093  1
