# generated using pymatgen
data_Pr15Nd(CdCo)4
_symmetry_space_group_name_H-M   'P 1'
_cell_length_a   9.90759478
_cell_length_b   9.91163905
_cell_length_c   9.91163924
_cell_angle_alpha   60.07704575
_cell_angle_beta   60.01350123
_cell_angle_gamma   60.01350071
_symmetry_Int_Tables_number   1
_chemical_formula_structural   Pr15Nd(CdCo)4
_chemical_formula_sum   'Pr15 Nd1 Cd4 Co4'
_cell_volume   688.78731586
_cell_formula_units_Z   1
loop_
 _symmetry_equiv_pos_site_id
 _symmetry_equiv_pos_as_xyz
  1  'x, y, z'
loop_
 _atom_site_type_symbol
 _atom_site_label
 _atom_site_symmetry_multiplicity
 _atom_site_fract_x
 _atom_site_fract_y
 _atom_site_fract_z
 _atom_site_occupancy
  Pr  Pr0  1  0.560602  0.939599  0.560692  1
  Pr  Pr1  1  0.190585  0.188551  0.810071  1
  Pr  Pr2  1  0.560602  0.560692  0.939599  1
  Pr  Pr3  1  0.961346  0.346139  0.346139  1
  Pr  Pr4  1  0.810792  0.188551  0.810071  1
  Pr  Pr5  1  0.190585  0.810071  0.188551  1
  Pr  Pr6  1  0.346477  0.347507  0.959538  1
  Pr  Pr7  1  0.346477  0.959538  0.347507  1
  Pr  Pr8  1  0.939108  0.939599  0.560692  1
  Pr  Pr9  1  0.938728  0.561272  0.561272  1
  Pr  Pr10  1  0.346376  0.346139  0.346139  1
  Pr  Pr11  1  0.810792  0.810071  0.188551  1
  Pr  Pr12  1  0.810652  0.189348  0.189348  1
  Pr  Pr13  1  0.560060  0.939940  0.939940  1
  Pr  Pr14  1  0.939108  0.560692  0.939599  1
  Nd  Nd15  1  0.190240  0.809760  0.809760  1
  Cd  Cd16  1  0.578920  0.579525  0.579525  1
  Cd  Cd17  1  0.579470  0.261535  0.579526  1
  Cd  Cd18  1  0.579470  0.579526  0.261535  1
  Cd  Cd19  1  0.262032  0.579525  0.579525  1
  Co  Co20  1  0.140064  0.578449  0.141425  1
  Co  Co21  1  0.577657  0.141274  0.141274  1
  Co  Co22  1  0.140064  0.141425  0.578449  1
  Co  Co23  1  0.139797  0.141274  0.141274  1
