# generated using pymatgen
data_U8Al3Ga13
_symmetry_space_group_name_H-M   'P 1'
_cell_length_a   5.62132600
_cell_length_b   5.62132973
_cell_length_c   16.62185700
_cell_angle_alpha   90.00008256
_cell_angle_beta   90.00000000
_cell_angle_gamma   119.99996630
_symmetry_Int_Tables_number   1
_chemical_formula_structural   U8Al3Ga13
_chemical_formula_sum   'U8 Al3 Ga13'
_cell_volume   454.87089922
_cell_formula_units_Z   1
loop_
 _symmetry_equiv_pos_site_id
 _symmetry_equiv_pos_as_xyz
  1  'x, y, z'
loop_
 _atom_site_type_symbol
 _atom_site_label
 _atom_site_symmetry_multiplicity
 _atom_site_fract_x
 _atom_site_fract_y
 _atom_site_fract_z
 _atom_site_occupancy
  U  U0  1  0.999999  0.999998  0.075924  1
  U  U1  1  0.666682  0.333364  0.170732  1
  U  U2  1  0.666683  0.333365  0.327939  1
  U  U3  1  0.000001  0.000002  0.425333  1
  U  U4  1  0.000001  0.000002  0.575533  1
  U  U5  1  0.333319  0.666640  0.673514  1
  U  U6  1  0.333317  0.666635  0.826654  1
  U  U7  1  0.999999  0.999998  0.924997  1
  Al  Al8  1  0.333342  0.666685  0.371932  1
  Al  Al9  1  0.666658  0.333315  0.628226  1
  Al  Al10  1  0.666646  0.333292  0.871025  1
  Ga  Ga11  1  0.500177  0.000353  0.999411  1
  Ga  Ga12  1  0.500178  0.499823  0.999411  1
  Ga  Ga13  1  0.999646  0.499823  0.999411  1
  Ga  Ga14  1  0.333346  0.666693  0.128446  1
  Ga  Ga15  1  0.155627  0.311254  0.250428  1
  Ga  Ga16  1  0.688794  0.844424  0.250428  1
  Ga  Ga17  1  0.155630  0.844424  0.250428  1
  Ga  Ga18  1  0.499963  0.999926  0.500112  1
  Ga  Ga19  1  0.499963  0.500037  0.500111  1
  Ga  Ga20  1  0.000075  0.500037  0.500111  1
  Ga  Ga21  1  0.844169  0.155781  0.749964  1
  Ga  Ga22  1  0.311613  0.155781  0.749964  1
  Ga  Ga23  1  0.844167  0.688337  0.749964  1
