# generated using pymatgen
data_Ta3Mn2Fe2MoP4
_symmetry_space_group_name_H-M   'P 1'
_cell_length_a   3.61005800
_cell_length_b   6.09982943
_cell_length_c   6.93484459
_cell_angle_alpha   90.22451312
_cell_angle_beta   90.00000000
_cell_angle_gamma   90.00000000
_symmetry_Int_Tables_number   1
_chemical_formula_structural   Ta3Mn2Fe2MoP4
_chemical_formula_sum   'Ta3 Mn2 Fe2 Mo1 P4'
_cell_volume   152.70922379
_cell_formula_units_Z   1
loop_
 _symmetry_equiv_pos_site_id
 _symmetry_equiv_pos_as_xyz
  1  'x, y, z'
loop_
 _atom_site_type_symbol
 _atom_site_label
 _atom_site_symmetry_multiplicity
 _atom_site_fract_x
 _atom_site_fract_y
 _atom_site_fract_z
 _atom_site_occupancy
  Ta  Ta0  1  0.250000  0.523848  0.324124  1
  Ta  Ta1  1  0.250000  0.021975  0.174916  1
  Ta  Ta2  1  0.750000  0.477873  0.678226  1
  Mn  Mn3  1  0.750000  0.353960  0.059866  1
  Mn  Mn4  1  0.750000  0.855610  0.441165  1
  Fe  Fe5  1  0.250000  0.643938  0.936267  1
  Fe  Fe6  1  0.250000  0.147631  0.561728  1
  Mo  Mo7  1  0.750000  0.976700  0.826132  1
  P  P8  1  0.250000  0.781813  0.624866  1
  P  P9  1  0.750000  0.221353  0.379352  1
  P  P10  1  0.250000  0.274520  0.876743  1
  P  P11  1  0.750000  0.720777  0.116615  1
