# generated using pymatgen
data_Eu3Dy(Si5Pt3)2
_symmetry_space_group_name_H-M   'P 1'
_cell_length_a   8.26900847
_cell_length_b   8.26458820
_cell_length_c   8.26458825
_cell_angle_alpha   137.02355411
_cell_angle_beta   104.62603273
_cell_angle_gamma   90.90035378
_symmetry_Int_Tables_number   1
_chemical_formula_structural   Eu3Dy(Si5Pt3)2
_chemical_formula_sum   'Eu3 Dy1 Si10 Pt6'
_cell_volume   354.92643706
_cell_formula_units_Z   1
loop_
 _symmetry_equiv_pos_site_id
 _symmetry_equiv_pos_as_xyz
  1  'x, y, z'
loop_
 _atom_site_type_symbol
 _atom_site_label
 _atom_site_symmetry_multiplicity
 _atom_site_fract_x
 _atom_site_fract_y
 _atom_site_fract_z
 _atom_site_occupancy
  Eu  Eu0  1  0.896066  0.128826  0.767240  1
  Eu  Eu1  1  0.638100  0.370913  0.267187  1
  Eu  Eu2  1  0.362449  0.629502  0.732947  1
  Dy  Dy3  1  0.101629  0.870979  0.230650  1
  Si  Si4  1  0.999889  0.747034  0.746723  1
  Si  Si5  1  0.999889  0.253165  0.252854  1
  Si  Si6  1  0.272114  0.020487  0.750427  1
  Si  Si7  1  0.729652  0.478196  0.749075  1
  Si  Si8  1  0.729652  0.980577  0.251455  1
  Si  Si9  1  0.272114  0.521688  0.251628  1
  Si  Si10  1  0.762118  0.612355  0.149763  1
  Si  Si11  1  0.238653  0.388578  0.850074  1
  Si  Si12  1  0.457504  0.109534  0.347970  1
  Si  Si13  1  0.540653  0.888381  0.652272  1
  Pt  Pt14  1  0.497506  0.750627  0.249868  1
  Pt  Pt15  1  0.497506  0.247639  0.746879  1
  Pt  Pt16  1  0.025264  0.639106  0.386158  1
  Pt  Pt17  1  0.978284  0.363713  0.614571  1
  Pt  Pt18  1  0.246145  0.134263  0.111882  1
  Pt  Pt19  1  0.754813  0.864436  0.890377  1
