# generated using pymatgen
data_TbDyTh(CoSn)3
_symmetry_space_group_name_H-M   'P 1'
_cell_length_a   7.42312609
_cell_length_b   7.22911685
_cell_length_c   3.95923300
_cell_angle_alpha   90.00000000
_cell_angle_beta   90.00000000
_cell_angle_gamma   120.90936201
_symmetry_Int_Tables_number   1
_chemical_formula_structural   TbDyTh(CoSn)3
_chemical_formula_sum   'Tb1 Dy1 Th1 Co3 Sn3'
_cell_volume   182.28914361
_cell_formula_units_Z   1
loop_
 _symmetry_equiv_pos_site_id
 _symmetry_equiv_pos_as_xyz
  1  'x, y, z'
loop_
 _atom_site_type_symbol
 _atom_site_label
 _atom_site_symmetry_multiplicity
 _atom_site_fract_x
 _atom_site_fract_y
 _atom_site_fract_z
 _atom_site_occupancy
  Tb  Tb0  1  0.998559  0.591003  0.500000  1
  Dy  Dy1  1  0.406811  0.408131  0.500000  1
  Th  Th2  1  0.583015  0.999852  0.500000  1
  Co  Co3  1  0.354405  0.688415  0.000000  1
  Co  Co4  1  0.993621  0.000732  0.500000  1
  Co  Co5  1  0.664637  0.311155  0.000000  1
  Sn  Sn6  1  0.746286  0.735975  0.000000  1
  Sn  Sn7  1  0.011331  0.263683  0.000000  1
  Sn  Sn8  1  0.241335  0.001054  0.000000  1
