# generated using pymatgen
data_HoTmRh2O7
_symmetry_space_group_name_H-M   'P 1'
_cell_length_a   7.19696191
_cell_length_b   7.19102086
_cell_length_c   7.19102150
_cell_angle_alpha   59.93842951
_cell_angle_beta   59.97265559
_cell_angle_gamma   59.97266439
_symmetry_Int_Tables_number   1
_chemical_formula_structural   HoTmRh2O7
_chemical_formula_sum   'Ho2 Tm2 Rh4 O14'
_cell_volume   262.92593271
_cell_formula_units_Z   2
loop_
 _symmetry_equiv_pos_site_id
 _symmetry_equiv_pos_as_xyz
  1  'x, y, z'
loop_
 _atom_site_type_symbol
 _atom_site_label
 _atom_site_symmetry_multiplicity
 _atom_site_fract_x
 _atom_site_fract_y
 _atom_site_fract_z
 _atom_site_occupancy
  Ho  Ho0  1  0.125000  0.125000  0.125000  1
  Ho  Ho1  1  0.625000  0.125000  0.125000  1
  Tm  Tm2  1  0.125000  0.625000  0.125000  1
  Tm  Tm3  1  0.125000  0.125000  0.625000  1
  Rh  Rh4  1  0.625000  0.625000  0.625000  1
  Rh  Rh5  1  0.625000  0.625000  0.125000  1
  Rh  Rh6  1  0.125000  0.625000  0.625000  1
  Rh  Rh7  1  0.625000  0.125000  0.625000  1
  O  O8  1  0.248075  0.251925  0.251925  1
  O  O9  1  0.286209  0.712036  0.286508  1
  O  O10  1  0.963791  0.963492  0.537964  1
  O  O11  1  0.534753  0.963492  0.537964  1
  O  O12  1  0.715247  0.712036  0.286508  1
  O  O13  1  0.963636  0.536364  0.536364  1
  O  O14  1  0.715247  0.286508  0.712036  1
  O  O15  1  0.286209  0.286508  0.712036  1
  O  O16  1  0.713370  0.286630  0.286630  1
  O  O17  1  0.286364  0.713636  0.713636  1
  O  O18  1  0.963791  0.537964  0.963492  1
  O  O19  1  0.534753  0.537964  0.963492  1
  O  O20  1  0.001925  0.998075  0.998075  1
  O  O21  1  0.536630  0.963370  0.963370  1
