# generated using pymatgen
data_PrNd4Sm(RuBr3)2
_symmetry_space_group_name_H-M   'P 1'
_cell_length_a   4.23203000
_cell_length_b   8.96946982
_cell_length_c   12.21506520
_cell_angle_alpha   86.99131458
_cell_angle_beta   90.00000000
_cell_angle_gamma   90.00000000
_symmetry_Int_Tables_number   1
_chemical_formula_structural   PrNd4Sm(RuBr3)2
_chemical_formula_sum   'Pr1 Nd4 Sm1 Ru2 Br6'
_cell_volume   463.03332769
_cell_formula_units_Z   1
loop_
 _symmetry_equiv_pos_site_id
 _symmetry_equiv_pos_as_xyz
  1  'x, y, z'
loop_
 _atom_site_type_symbol
 _atom_site_label
 _atom_site_symmetry_multiplicity
 _atom_site_fract_x
 _atom_site_fract_y
 _atom_site_fract_z
 _atom_site_occupancy
  Pr  Pr0  1  0.750000  0.121416  0.162506  1
  Nd  Nd1  1  0.250000  0.314173  0.383962  1
  Nd  Nd2  1  0.750000  0.685702  0.617809  1
  Nd  Nd3  1  0.250000  0.891580  0.383027  1
  Nd  Nd4  1  0.250000  0.879892  0.835677  1
  Sm  Sm5  1  0.750000  0.105141  0.615814  1
  Ru  Ru6  1  0.250000  0.897779  0.617337  1
  Ru  Ru7  1  0.750000  0.103527  0.382843  1
  Br  Br8  1  0.250000  0.400730  0.628294  1
  Br  Br9  1  0.750000  0.598053  0.373451  1
  Br  Br10  1  0.250000  0.880523  0.114094  1
  Br  Br11  1  0.750000  0.115725  0.882798  1
  Br  Br12  1  0.250000  0.361509  0.132443  1
  Br  Br13  1  0.750000  0.644249  0.869947  1
