# generated using pymatgen
data_Dy2Sc3Ga3Pb
_symmetry_space_group_name_H-M   'P 1'
_cell_length_a   7.32078353
_cell_length_b   7.67188238
_cell_length_c   14.64134800
_cell_angle_alpha   89.99041073
_cell_angle_beta   89.61122571
_cell_angle_gamma   89.93278914
_symmetry_Int_Tables_number   1
_chemical_formula_structural   Dy2Sc3Ga3Pb
_chemical_formula_sum   'Dy8 Sc12 Ga12 Pb4'
_cell_volume   822.29994637
_cell_formula_units_Z   4
loop_
 _symmetry_equiv_pos_site_id
 _symmetry_equiv_pos_as_xyz
  1  'x, y, z'
loop_
 _atom_site_type_symbol
 _atom_site_label
 _atom_site_symmetry_multiplicity
 _atom_site_fract_x
 _atom_site_fract_y
 _atom_site_fract_z
 _atom_site_occupancy
  Dy  Dy0  1  0.011007  0.173361  0.092554  1
  Dy  Dy1  1  0.997197  0.826565  0.903864  1
  Dy  Dy2  1  0.488274  0.681877  0.905301  1
  Dy  Dy3  1  0.991870  0.826632  0.602566  1
  Dy  Dy4  1  0.496894  0.313412  0.094521  1
  Dy  Dy5  1  0.993826  0.176191  0.398028  1
  Dy  Dy6  1  0.501113  0.315999  0.397446  1
  Dy  Dy7  1  0.504719  0.685648  0.605211  1
  Sc  Sc8  1  0.169516  0.502920  0.755833  1
  Sc  Sc9  1  0.829312  0.498721  0.247442  1
  Sc  Sc10  1  0.326029  0.002368  0.244744  1
  Sc  Sc11  1  0.672713  0.995208  0.753811  1
  Sc  Sc12  1  0.348263  0.164855  0.634941  1
  Sc  Sc13  1  0.666587  0.841257  0.368043  1
  Sc  Sc14  1  0.163707  0.667354  0.364957  1
  Sc  Sc15  1  0.659168  0.841572  0.124962  1
  Sc  Sc16  1  0.828916  0.321195  0.631846  1
  Sc  Sc17  1  0.333527  0.171793  0.877031  1
  Sc  Sc18  1  0.834908  0.318824  0.873428  1
  Sc  Sc19  1  0.178274  0.673992  0.122847  1
  Ga  Ga20  1  0.038552  0.115155  0.750868  1
  Ga  Ga21  1  0.963486  0.882553  0.245143  1
  Ga  Ga22  1  0.466493  0.616724  0.248602  1
  Ga  Ga23  1  0.535531  0.386358  0.755421  1
  Ga  Ga24  1  0.290586  0.871315  0.752430  1
  Ga  Ga25  1  0.709856  0.132689  0.247273  1
  Ga  Ga26  1  0.206957  0.369978  0.247775  1
  Ga  Ga27  1  0.792757  0.625950  0.752786  1
  Ga  Ga28  1  0.675128  0.041098  0.541856  1
  Ga  Ga29  1  0.171409  0.461423  0.957255  1
  Ga  Ga30  1  0.662533  0.035732  0.958964  1
  Ga  Ga31  1  0.337409  0.962053  0.038844  1
  Pb  Pb32  1  0.184500  0.456937  0.541884  1
  Pb  Pb33  1  0.816400  0.544998  0.460345  1
  Pb  Pb34  1  0.324975  0.957091  0.462315  1
  Pb  Pb35  1  0.827610  0.540200  0.038867  1
