# generated using pymatgen
data_Tb3(DyS2)4
_symmetry_space_group_name_H-M   'P 1'
_cell_length_a   7.81598257
_cell_length_b   7.81445537
_cell_length_c   7.81689222
_cell_angle_alpha   119.99282227
_cell_angle_beta   90.02322459
_cell_angle_gamma   119.98511197
_symmetry_Int_Tables_number   1
_chemical_formula_structural   Tb3(DyS2)4
_chemical_formula_sum   'Tb3 Dy4 S8'
_cell_volume   337.64335979
_cell_formula_units_Z   1
loop_
 _symmetry_equiv_pos_site_id
 _symmetry_equiv_pos_as_xyz
  1  'x, y, z'
loop_
 _atom_site_type_symbol
 _atom_site_label
 _atom_site_symmetry_multiplicity
 _atom_site_fract_x
 _atom_site_fract_y
 _atom_site_fract_z
 _atom_site_occupancy
  Tb  Tb0  1  0.249965  0.000003  0.249965  1
  Tb  Tb1  1  0.249960  0.499925  0.249968  1
  Tb  Tb2  1  0.750040  0.999998  0.750041  1
  Dy  Dy3  1  0.750042  0.000010  0.249967  1
  Dy  Dy4  1  0.249994  0.500001  0.749987  1
  Dy  Dy5  1  0.249957  0.999991  0.750035  1
  Dy  Dy6  1  0.750040  0.500077  0.750033  1
  S  S7  1  0.999575  0.999182  0.999599  1
  S  S8  1  0.500425  0.000816  0.500399  1
  S  S9  1  0.999504  0.998996  0.499481  1
  S  S10  1  0.998986  0.499987  0.499823  1
  S  S11  1  0.500853  0.499985  0.499990  1
  S  S12  1  0.999153  0.500015  0.000016  1
  S  S13  1  0.501008  0.500011  0.000177  1
  S  S14  1  0.500501  0.001005  0.000527  1
