# generated using pymatgen
data_Ho6Zn22CdAs
_symmetry_space_group_name_H-M   'P 1'
_cell_length_a   9.05857707
_cell_length_b   9.05854952
_cell_length_c   9.05847000
_cell_angle_alpha   60.00050220
_cell_angle_beta   60.00031796
_cell_angle_gamma   59.99978784
_symmetry_Int_Tables_number   1
_chemical_formula_structural   Ho6Zn22CdAs
_chemical_formula_sum   'Ho6 Zn22 Cd1 As1'
_cell_volume   525.60621829
_cell_formula_units_Z   1
loop_
 _symmetry_equiv_pos_site_id
 _symmetry_equiv_pos_as_xyz
  1  'x, y, z'
loop_
 _atom_site_type_symbol
 _atom_site_label
 _atom_site_symmetry_multiplicity
 _atom_site_fract_x
 _atom_site_fract_y
 _atom_site_fract_z
 _atom_site_occupancy
  Ho  Ho0  1  0.716005  0.283999  0.283995  1
  Ho  Ho1  1  0.715998  0.283996  0.716004  1
  Ho  Ho2  1  0.716002  0.716003  0.283991  1
  Ho  Ho3  1  0.283995  0.716001  0.716005  1
  Ho  Ho4  1  0.284002  0.716004  0.283996  1
  Ho  Ho5  1  0.283998  0.283997  0.716009  1
  Zn  Zn6  1  0.613923  0.128693  0.128690  1
  Zn  Zn7  1  0.128693  0.613923  0.128691  1
  Zn  Zn8  1  0.128692  0.128693  0.613921  1
  Zn  Zn9  1  0.128692  0.128690  0.128690  1
  Zn  Zn10  1  0.386077  0.871307  0.871310  1
  Zn  Zn11  1  0.871307  0.386077  0.871309  1
  Zn  Zn12  1  0.871308  0.871307  0.386079  1
  Zn  Zn13  1  0.871308  0.871310  0.871310  1
  Zn  Zn14  1  0.500000  0.000000  0.000000  1
  Zn  Zn15  1  0.500000  0.000000  0.500000  1
  Zn  Zn16  1  0.500000  0.500000  0.000000  1
  Zn  Zn17  1  0.000000  0.500000  0.500000  1
  Zn  Zn18  1  0.000000  0.500000  0.000000  1
  Zn  Zn19  1  0.000000  0.000000  0.500000  1
  Zn  Zn20  1  0.009106  0.330303  0.330299  1
  Zn  Zn21  1  0.330303  0.009103  0.330302  1
  Zn  Zn22  1  0.330298  0.330298  0.009106  1
  Zn  Zn23  1  0.330296  0.330297  0.330305  1
  Zn  Zn24  1  0.990894  0.669697  0.669701  1
  Zn  Zn25  1  0.669697  0.990897  0.669698  1
  Zn  Zn26  1  0.669702  0.669702  0.990894  1
  Zn  Zn27  1  0.669704  0.669703  0.669695  1
  Cd  Cd28  1  0.000000  0.000000  0.000000  1
  As  As29  1  0.500000  0.500000  0.500000  1
