# generated using pymatgen
data_Y8Al2NiRh
_symmetry_space_group_name_H-M   'P 1'
_cell_length_a   9.53464095
_cell_length_b   9.53470603
_cell_length_c   9.53349116
_cell_angle_alpha   60.09750932
_cell_angle_beta   60.09722975
_cell_angle_gamma   60.15405670
_symmetry_Int_Tables_number   1
_chemical_formula_structural   Y8Al2NiRh
_chemical_formula_sum   'Y16 Al4 Ni2 Rh2'
_cell_volume   614.45601987
_cell_formula_units_Z   2
loop_
 _symmetry_equiv_pos_site_id
 _symmetry_equiv_pos_as_xyz
  1  'x, y, z'
loop_
 _atom_site_type_symbol
 _atom_site_label
 _atom_site_symmetry_multiplicity
 _atom_site_fract_x
 _atom_site_fract_y
 _atom_site_fract_z
 _atom_site_occupancy
  Y  Y0  1  0.436792  0.063504  0.435292  1
  Y  Y1  1  0.063493  0.436798  0.435304  1
  Y  Y2  1  0.435504  0.435500  0.064661  1
  Y  Y3  1  0.062824  0.436746  0.063278  1
  Y  Y4  1  0.436753  0.062840  0.063279  1
  Y  Y5  1  0.062524  0.062525  0.436463  1
  Y  Y6  1  0.807940  0.194751  0.807127  1
  Y  Y7  1  0.194771  0.807946  0.807123  1
  Y  Y8  1  0.807269  0.807278  0.193239  1
  Y  Y9  1  0.193677  0.807291  0.190469  1
  Y  Y10  1  0.807284  0.193657  0.190485  1
  Y  Y11  1  0.191779  0.191736  0.806942  1
  Y  Y12  1  0.649621  0.649654  0.652247  1
  Y  Y13  1  0.647438  0.647465  0.055343  1
  Y  Y14  1  0.056801  0.644569  0.648617  1
  Y  Y15  1  0.644557  0.056783  0.648629  1
  Al  Al16  1  0.423192  0.423188  0.731327  1
  Al  Al17  1  0.731201  0.423010  0.422967  1
  Al  Al18  1  0.423008  0.731210  0.422965  1
  Al  Al19  1  0.421866  0.421866  0.421352  1
  Ni  Ni20  1  0.426609  0.858882  0.859063  1
  Ni  Ni21  1  0.858891  0.426602  0.859065  1
  Rh  Rh22  1  0.857457  0.857473  0.857484  1
  Rh  Rh23  1  0.858747  0.858729  0.427278  1
