# generated using pymatgen
data_Pr16In4Ru3Pt
_symmetry_space_group_name_H-M   'P 1'
_cell_length_a   10.02519256
_cell_length_b   10.02505353
_cell_length_c   10.02508113
_cell_angle_alpha   60.10429153
_cell_angle_beta   60.10290441
_cell_angle_gamma   60.10343586
_symmetry_Int_Tables_number   1
_chemical_formula_structural   Pr16In4Ru3Pt
_chemical_formula_sum   'Pr16 In4 Ru3 Pt1'
_cell_volume   714.11804970
_cell_formula_units_Z   1
loop_
 _symmetry_equiv_pos_site_id
 _symmetry_equiv_pos_as_xyz
  1  'x, y, z'
loop_
 _atom_site_type_symbol
 _atom_site_label
 _atom_site_symmetry_multiplicity
 _atom_site_fract_x
 _atom_site_fract_y
 _atom_site_fract_z
 _atom_site_occupancy
  Pr  Pr0  1  0.058414  0.440377  0.440378  1
  Pr  Pr1  1  0.192675  0.808359  0.192705  1
  Pr  Pr2  1  0.653528  0.653491  0.653499  1
  Pr  Pr3  1  0.440377  0.440366  0.058420  1
  Pr  Pr4  1  0.060386  0.435815  0.060387  1
  Pr  Pr5  1  0.435817  0.060391  0.060393  1
  Pr  Pr6  1  0.060387  0.060393  0.435817  1
  Pr  Pr7  1  0.648379  0.648343  0.046587  1
  Pr  Pr8  1  0.648375  0.046591  0.648344  1
  Pr  Pr9  1  0.199947  0.806547  0.806552  1
  Pr  Pr10  1  0.440374  0.058422  0.440369  1
  Pr  Pr11  1  0.192666  0.192706  0.808362  1
  Pr  Pr12  1  0.046580  0.648355  0.648361  1
  Pr  Pr13  1  0.806547  0.806558  0.199963  1
  Pr  Pr14  1  0.808362  0.192692  0.192684  1
  Pr  Pr15  1  0.806551  0.199965  0.806556  1
  In  In16  1  0.419175  0.419176  0.419177  1
  In  In17  1  0.419733  0.741880  0.419734  1
  In  In18  1  0.741878  0.419734  0.419735  1
  In  In19  1  0.419734  0.419734  0.741880  1
  Ru  Ru20  1  0.417727  0.861696  0.861698  1
  Ru  Ru21  1  0.861699  0.417720  0.861698  1
  Ru  Ru22  1  0.861700  0.861699  0.417713  1
  Pt  Pt23  1  0.858992  0.858989  0.858990  1
