# generated using pymatgen
data_Tb6Ho10In4IrPd3
_symmetry_space_group_name_H-M   'P 1'
_cell_length_a   9.71456112
_cell_length_b   9.70847655
_cell_length_c   9.71594797
_cell_angle_alpha   59.91714273
_cell_angle_beta   59.97745358
_cell_angle_gamma   59.91392618
_symmetry_Int_Tables_number   1
_chemical_formula_structural   Tb6Ho10In4IrPd3
_chemical_formula_sum   'Tb6 Ho10 In4 Ir1 Pd3'
_cell_volume   647.01588467
_cell_formula_units_Z   1
loop_
 _symmetry_equiv_pos_site_id
 _symmetry_equiv_pos_as_xyz
  1  'x, y, z'
loop_
 _atom_site_type_symbol
 _atom_site_label
 _atom_site_symmetry_multiplicity
 _atom_site_fract_x
 _atom_site_fract_y
 _atom_site_fract_z
 _atom_site_occupancy
  Tb  Tb0  1  0.437790  0.435686  0.062878  1
  Tb  Tb1  1  0.647043  0.645749  0.061069  1
  Tb  Tb2  1  0.184775  0.811660  0.193932  1
  Tb  Tb3  1  0.063626  0.435911  0.062396  1
  Tb  Tb4  1  0.189818  0.811165  0.808504  1
  Tb  Tb5  1  0.062831  0.439416  0.435510  1
  Ho  Ho6  1  0.810312  0.185084  0.193396  1
  Ho  Ho7  1  0.651507  0.651173  0.644157  1
  Ho  Ho8  1  0.809929  0.190055  0.810410  1
  Ho  Ho9  1  0.189913  0.190734  0.809417  1
  Ho  Ho10  1  0.054053  0.650622  0.644441  1
  Ho  Ho11  1  0.437242  0.063130  0.062528  1
  Ho  Ho12  1  0.062390  0.061611  0.434910  1
  Ho  Ho13  1  0.651243  0.053432  0.644187  1
  Ho  Ho14  1  0.809271  0.812137  0.193795  1
  Ho  Ho15  1  0.440845  0.062312  0.434393  1
  In  In16  1  0.416616  0.416212  0.417697  1
  In  In17  1  0.417361  0.416879  0.748395  1
  In  In18  1  0.416260  0.750482  0.417145  1
  In  In19  1  0.748576  0.416635  0.417857  1
  Ir  Ir20  1  0.855985  0.857178  0.430144  1
  Pd  Pd21  1  0.431856  0.856333  0.857184  1
  Pd  Pd22  1  0.854742  0.855965  0.857738  1
  Pd  Pd23  1  0.856018  0.430438  0.857915  1
