# generated using pymatgen
data_Pr8Be4Si11Ag
_symmetry_space_group_name_H-M   'P 1'
_cell_length_a   8.04846185
_cell_length_b   8.04846174
_cell_length_c   8.64779904
_cell_angle_alpha   90.00929657
_cell_angle_beta   89.99070390
_cell_angle_gamma   119.71541412
_symmetry_Int_Tables_number   1
_chemical_formula_structural   Pr8Be4Si11Ag
_chemical_formula_sum   'Pr8 Be4 Si11 Ag1'
_cell_volume   486.51952356
_cell_formula_units_Z   1
loop_
 _symmetry_equiv_pos_site_id
 _symmetry_equiv_pos_as_xyz
  1  'x, y, z'
loop_
 _atom_site_type_symbol
 _atom_site_label
 _atom_site_symmetry_multiplicity
 _atom_site_fract_x
 _atom_site_fract_y
 _atom_site_fract_z
 _atom_site_occupancy
  Pr  Pr0  1  0.499813  0.500187  0.751180  1
  Pr  Pr1  1  0.499986  0.500014  0.248738  1
  Pr  Pr2  1  0.002295  0.504008  0.747615  1
  Pr  Pr3  1  0.002176  0.503900  0.252431  1
  Pr  Pr4  1  0.495992  0.997705  0.747615  1
  Pr  Pr5  1  0.496100  0.997824  0.252431  1
  Pr  Pr6  1  0.001479  0.998521  0.747518  1
  Pr  Pr7  1  0.001489  0.998511  0.252499  1
  Be  Be8  1  0.662539  0.337461  0.997487  1
  Be  Be9  1  0.335631  0.664369  0.002373  1
  Be  Be10  1  0.334102  0.665898  0.497504  1
  Be  Be11  1  0.666504  0.333496  0.502539  1
  Si  Si12  1  0.171496  0.828504  0.999849  1
  Si  Si13  1  0.347054  0.175924  0.000150  1
  Si  Si14  1  0.171811  0.828189  0.500236  1
  Si  Si15  1  0.654574  0.823830  0.999917  1
  Si  Si16  1  0.828247  0.171753  0.499714  1
  Si  Si17  1  0.824076  0.652946  0.000150  1
  Si  Si18  1  0.655293  0.827669  0.500245  1
  Si  Si19  1  0.176170  0.345426  0.999917  1
  Si  Si20  1  0.344808  0.172900  0.499757  1
  Si  Si21  1  0.172331  0.344707  0.500245  1
  Si  Si22  1  0.827100  0.655192  0.499757  1
  Ag  Ag23  1  0.828935  0.171065  0.000132  1
