# generated using pymatgen
data_Zr24PSe7
_symmetry_space_group_name_H-M   'P 1'
_cell_length_a   10.97311604
_cell_length_b   10.98093272
_cell_length_c   5.48910982
_cell_angle_alpha   89.93700358
_cell_angle_beta   89.99995032
_cell_angle_gamma   90.00935349
_symmetry_Int_Tables_number   1
_chemical_formula_structural   Zr24PSe7
_chemical_formula_sum   'Zr24 P1 Se7'
_cell_volume   661.41014743
_cell_formula_units_Z   1
loop_
 _symmetry_equiv_pos_site_id
 _symmetry_equiv_pos_as_xyz
  1  'x, y, z'
loop_
 _atom_site_type_symbol
 _atom_site_label
 _atom_site_symmetry_multiplicity
 _atom_site_fract_x
 _atom_site_fract_y
 _atom_site_fract_z
 _atom_site_occupancy
  Zr  Zr0  1  0.025604  0.857038  0.279508  1
  Zr  Zr1  1  0.358795  0.475753  0.780608  1
  Zr  Zr2  1  0.640227  0.524773  0.782929  1
  Zr  Zr3  1  0.975291  0.139674  0.284063  1
  Zr  Zr4  1  0.475476  0.640328  0.218539  1
  Zr  Zr5  1  0.139350  0.019470  0.718849  1
  Zr  Zr6  1  0.863128  0.970271  0.718929  1
  Zr  Zr7  1  0.524129  0.360238  0.217499  1
  Zr  Zr8  1  0.283143  0.817907  0.982075  1
  Zr  Zr9  1  0.317430  0.214279  0.484980  1
  Zr  Zr10  1  0.681690  0.785562  0.484048  1
  Zr  Zr11  1  0.714859  0.181800  0.984017  1
  Zr  Zr12  1  0.211110  0.683824  0.518454  1
  Zr  Zr13  1  0.181901  0.285504  0.016154  1
  Zr  Zr14  1  0.821764  0.715386  0.012876  1
  Zr  Zr15  1  0.785851  0.318061  0.515242  1
  Zr  Zr16  1  0.897245  0.414284  0.044421  1
  Zr  Zr17  1  0.916548  0.606789  0.551207  1
  Zr  Zr18  1  0.085045  0.397429  0.546153  1
  Zr  Zr19  1  0.100471  0.589471  0.038689  1
  Zr  Zr20  1  0.602430  0.085660  0.453255  1
  Zr  Zr21  1  0.586107  0.897458  0.955768  1
  Zr  Zr22  1  0.414021  0.102513  0.955650  1
  Zr  Zr23  1  0.397615  0.914307  0.454151  1
  P  P24  1  0.038594  0.793828  0.787624  1
  Se  Se25  1  0.536861  0.293269  0.712123  1
  Se  Se26  1  0.793832  0.962395  0.212570  1
  Se  Se27  1  0.206360  0.037143  0.212958  1
  Se  Se28  1  0.462642  0.707263  0.713111  1
  Se  Se29  1  0.962992  0.205572  0.788814  1
  Se  Se30  1  0.708090  0.538413  0.288357  1
  Se  Se31  1  0.291400  0.464338  0.286375  1
