# generated using pymatgen
data_NdSmTm4(RuO7)2
_symmetry_space_group_name_H-M   'P 1'
_cell_length_a   6.38016562
_cell_length_b   6.38016665
_cell_length_c   7.44184777
_cell_angle_alpha   90.02992403
_cell_angle_beta   90.02992843
_cell_angle_gamma   109.84360433
_symmetry_Int_Tables_number   1
_chemical_formula_structural   NdSmTm4(RuO7)2
_chemical_formula_sum   'Nd1 Sm1 Tm4 Ru2 O14'
_cell_volume   284.94434004
_cell_formula_units_Z   1
loop_
 _symmetry_equiv_pos_site_id
 _symmetry_equiv_pos_as_xyz
  1  'x, y, z'
loop_
 _atom_site_type_symbol
 _atom_site_label
 _atom_site_symmetry_multiplicity
 _atom_site_fract_x
 _atom_site_fract_y
 _atom_site_fract_z
 _atom_site_occupancy
  Nd  Nd0  1  0.000000  0.000000  0.500000  1
  Sm  Sm1  1  0.000000  0.000000  0.000000  1
  Tm  Tm2  1  0.483621  0.934336  0.750802  1
  Tm  Tm3  1  0.516379  0.065664  0.249198  1
  Tm  Tm4  1  0.934336  0.483621  0.750802  1
  Tm  Tm5  1  0.065664  0.516379  0.249198  1
  Ru  Ru6  1  0.500000  0.500000  0.500000  1
  Ru  Ru7  1  0.500000  0.500000  0.000000  1
  O  O8  1  0.592490  0.592490  0.749895  1
  O  O9  1  0.407510  0.407510  0.250105  1
  O  O10  1  0.837088  0.119458  0.752942  1
  O  O11  1  0.162912  0.880542  0.247058  1
  O  O12  1  0.119458  0.837088  0.752942  1
  O  O13  1  0.880542  0.162912  0.247058  1
  O  O14  1  0.438830  0.178612  0.963083  1
  O  O15  1  0.559644  0.821316  0.462934  1
  O  O16  1  0.178612  0.438830  0.963083  1
  O  O17  1  0.821316  0.559644  0.462934  1
  O  O18  1  0.440356  0.178684  0.537066  1
  O  O19  1  0.561170  0.821388  0.036917  1
  O  O20  1  0.821388  0.561170  0.036917  1
  O  O21  1  0.178684  0.440356  0.537066  1
