# generated using pymatgen
data_Ba6NdEr(BO3)6
_symmetry_space_group_name_H-M   'P 1'
_cell_length_a   8.28311451
_cell_length_b   8.28311484
_cell_length_c   8.28311345
_cell_angle_alpha   105.64738275
_cell_angle_beta   105.64738396
_cell_angle_gamma   105.64739624
_symmetry_Int_Tables_number   1
_chemical_formula_structural   Ba6NdEr(BO3)6
_chemical_formula_sum   'Ba6 Nd1 Er1 B6 O18'
_cell_volume   489.70465354
_cell_formula_units_Z   1
loop_
 _symmetry_equiv_pos_site_id
 _symmetry_equiv_pos_as_xyz
  1  'x, y, z'
loop_
 _atom_site_type_symbol
 _atom_site_label
 _atom_site_symmetry_multiplicity
 _atom_site_fract_x
 _atom_site_fract_y
 _atom_site_fract_z
 _atom_site_occupancy
  Ba  Ba0  1  0.354034  0.731635  0.845047  1
  Ba  Ba1  1  0.845047  0.354034  0.731635  1
  Ba  Ba2  1  0.731635  0.845047  0.354034  1
  Ba  Ba3  1  0.645966  0.268365  0.154953  1
  Ba  Ba4  1  0.154953  0.645966  0.268365  1
  Ba  Ba5  1  0.268365  0.154953  0.645966  1
  Nd  Nd6  1  0.000000  0.000000  0.000000  1
  Er  Er7  1  0.500000  0.500000  0.500000  1
  B  B8  1  0.707950  0.616695  0.953623  1
  B  B9  1  0.953623  0.707950  0.616695  1
  B  B10  1  0.616695  0.953623  0.707950  1
  B  B11  1  0.046377  0.292050  0.383305  1
  B  B12  1  0.383305  0.046377  0.292050  1
  B  B13  1  0.292050  0.383305  0.046377  1
  O  O14  1  0.053713  0.804797  0.541881  1
  O  O15  1  0.541881  0.053713  0.804797  1
  O  O16  1  0.426638  0.492749  0.216804  1
  O  O17  1  0.492749  0.216804  0.426638  1
  O  O18  1  0.216804  0.426638  0.492749  1
  O  O19  1  0.783196  0.573362  0.507251  1
  O  O20  1  0.573362  0.507251  0.783196  1
  O  O21  1  0.507251  0.783196  0.573362  1
  O  O22  1  0.261726  0.199044  0.981039  1
  O  O23  1  0.199044  0.981039  0.261726  1
  O  O24  1  0.981039  0.261726  0.199044  1
  O  O25  1  0.738274  0.800956  0.018961  1
  O  O26  1  0.800956  0.018961  0.738274  1
  O  O27  1  0.018961  0.738274  0.800956  1
  O  O28  1  0.195203  0.458119  0.946287  1
  O  O29  1  0.458119  0.946287  0.195203  1
  O  O30  1  0.946287  0.195203  0.458119  1
  O  O31  1  0.804797  0.541881  0.053713  1
