# generated using pymatgen
data_Tb5Ho5In6
_symmetry_space_group_name_H-M   'P 1'
_cell_length_a   6.03356535
_cell_length_b   9.17951513
_cell_length_c   9.18180792
_cell_angle_alpha   83.79082962
_cell_angle_beta   70.81855218
_cell_angle_gamma   70.81357227
_symmetry_Int_Tables_number   1
_chemical_formula_structural   Tb5Ho5In6
_chemical_formula_sum   'Tb5 Ho5 In6'
_cell_volume   453.62495428
_cell_formula_units_Z   1
loop_
 _symmetry_equiv_pos_site_id
 _symmetry_equiv_pos_as_xyz
  1  'x, y, z'
loop_
 _atom_site_type_symbol
 _atom_site_label
 _atom_site_symmetry_multiplicity
 _atom_site_fract_x
 _atom_site_fract_y
 _atom_site_fract_z
 _atom_site_occupancy
  Tb  Tb0  1  0.719827  0.863137  0.697209  1
  Tb  Tb1  1  0.279991  0.137438  0.302579  1
  Tb  Tb2  1  0.780197  0.302416  0.137190  1
  Tb  Tb3  1  0.219984  0.697445  0.862586  1
  Tb  Tb4  1  0.581375  0.698949  0.138300  1
  Ho  Ho5  1  0.418713  0.300480  0.862095  1
  Ho  Ho6  1  0.081103  0.138011  0.699783  1
  Ho  Ho7  1  0.918688  0.862378  0.300246  1
  Ho  Ho8  1  0.749911  0.499786  0.500243  1
  Ho  Ho9  1  0.250060  0.499786  0.500243  1
  In  In10  1  0.161376  0.500272  0.176975  1
  In  In11  1  0.839310  0.498994  0.822385  1
  In  In12  1  0.338417  0.823257  0.499910  1
  In  In13  1  0.661269  0.176758  0.500704  1
  In  In14  1  0.249796  0.000446  0.999776  1
  In  In15  1  0.749981  0.000446  0.999776  1
