# generated using pymatgen
data_SmY3Er4(Si3Rh)4
_symmetry_space_group_name_H-M   'P 1'
_cell_length_a   8.16952109
_cell_length_b   8.17606030
_cell_length_c   7.91266400
_cell_angle_alpha   90.00000000
_cell_angle_beta   90.00000000
_cell_angle_gamma   120.02647588
_symmetry_Int_Tables_number   1
_chemical_formula_structural   SmY3Er4(Si3Rh)4
_chemical_formula_sum   'Sm1 Y3 Er4 Si12 Rh4'
_cell_volume   457.59167339
_cell_formula_units_Z   1
loop_
 _symmetry_equiv_pos_site_id
 _symmetry_equiv_pos_as_xyz
  1  'x, y, z'
loop_
 _atom_site_type_symbol
 _atom_site_label
 _atom_site_symmetry_multiplicity
 _atom_site_fract_x
 _atom_site_fract_y
 _atom_site_fract_z
 _atom_site_occupancy
  Sm  Sm0  1  0.000214  0.000107  0.250000  1
  Y  Y1  1  0.000141  0.000070  0.750000  1
  Y  Y2  1  0.491163  0.508757  0.250000  1
  Y  Y3  1  0.491163  0.982407  0.250000  1
  Er  Er4  1  0.015839  0.507919  0.250000  1
  Er  Er5  1  0.509080  0.490922  0.750000  1
  Er  Er6  1  0.981850  0.490924  0.750000  1
  Er  Er7  1  0.509080  0.018158  0.750000  1
  Si  Si8  1  0.832844  0.167417  0.502146  1
  Si  Si9  1  0.832844  0.665428  0.502146  1
  Si  Si10  1  0.335026  0.167513  0.502491  1
  Si  Si11  1  0.832844  0.167417  0.997854  1
  Si  Si12  1  0.832844  0.665428  0.997854  1
  Si  Si13  1  0.335026  0.167513  0.997509  1
  Si  Si14  1  0.167646  0.832016  0.999005  1
  Si  Si15  1  0.664452  0.832226  0.997874  1
  Si  Si16  1  0.167646  0.335629  0.999005  1
  Si  Si17  1  0.167646  0.832016  0.500995  1
  Si  Si18  1  0.664452  0.832226  0.502126  1
  Si  Si19  1  0.167646  0.335629  0.500995  1
  Rh  Rh20  1  0.668011  0.334006  0.471022  1
  Rh  Rh21  1  0.668011  0.334006  0.028978  1
  Rh  Rh22  1  0.332266  0.666133  0.960748  1
  Rh  Rh23  1  0.332266  0.666133  0.539252  1
