# generated using pymatgen
data_Cu3RhS8
_symmetry_space_group_name_H-M   'P 1'
_cell_length_a   5.80347357
_cell_length_b   5.80347341
_cell_length_c   5.80347415
_cell_angle_alpha   89.52253176
_cell_angle_beta   89.52254044
_cell_angle_gamma   89.52253942
_symmetry_Int_Tables_number   1
_chemical_formula_structural   Cu3RhS8
_chemical_formula_sum   'Cu3 Rh1 S8'
_cell_volume   195.44252891
_cell_formula_units_Z   1
loop_
 _symmetry_equiv_pos_site_id
 _symmetry_equiv_pos_as_xyz
  1  'x, y, z'
loop_
 _atom_site_type_symbol
 _atom_site_label
 _atom_site_symmetry_multiplicity
 _atom_site_fract_x
 _atom_site_fract_y
 _atom_site_fract_z
 _atom_site_occupancy
  Cu  Cu0  1  0.500000  0.500000  0.000000  1
  Cu  Cu1  1  0.500000  0.000000  0.500000  1
  Cu  Cu2  1  0.000000  0.500000  0.500000  1
  Rh  Rh3  1  0.000000  0.000000  0.000000  1
  S  S4  1  0.898375  0.101754  0.608304  1
  S  S5  1  0.101754  0.608304  0.898375  1
  S  S6  1  0.608304  0.898375  0.101754  1
  S  S7  1  0.399053  0.399053  0.399053  1
  S  S8  1  0.101625  0.898246  0.391696  1
  S  S9  1  0.898246  0.391696  0.101625  1
  S  S10  1  0.391696  0.101625  0.898246  1
  S  S11  1  0.600947  0.600947  0.600947  1
