# generated using pymatgen
data_Sc4Ni2As6Ru5
_symmetry_space_group_name_H-M   'P 1'
_cell_length_a   7.04201336
_cell_length_b   7.04201267
_cell_length_c   6.98666480
_cell_angle_alpha   109.66203218
_cell_angle_beta   109.66202741
_cell_angle_gamma   109.41127457
_symmetry_Int_Tables_number   1
_chemical_formula_structural   Sc4Ni2As6Ru5
_chemical_formula_sum   'Sc4 Ni2 As6 Ru5'
_cell_volume   265.64609849
_cell_formula_units_Z   1
loop_
 _symmetry_equiv_pos_site_id
 _symmetry_equiv_pos_as_xyz
  1  'x, y, z'
loop_
 _atom_site_type_symbol
 _atom_site_label
 _atom_site_symmetry_multiplicity
 _atom_site_fract_x
 _atom_site_fract_y
 _atom_site_fract_z
 _atom_site_occupancy
  Sc  Sc0  1  0.008513  0.008513  0.509944  1
  Sc  Sc1  1  0.497488  0.997488  0.994976  1
  Sc  Sc2  1  0.997488  0.497488  0.994976  1
  Sc  Sc3  1  0.501432  0.501432  0.509944  1
  Ni  Ni4  1  0.748964  0.500883  0.249847  1
  Ni  Ni5  1  0.500883  0.748964  0.249847  1
  As  As6  1  0.312351  0.000001  0.312352  1
  As  As7  1  0.000001  0.312351  0.312352  1
  As  As8  1  0.997287  0.682891  0.680178  1
  As  As9  1  0.320844  0.320844  0.009148  1
  As  As10  1  0.688304  0.688304  0.009148  1
  As  As11  1  0.682891  0.997287  0.680178  1
  Ru  Ru12  1  0.502720  0.251957  0.754677  1
  Ru  Ru13  1  0.745571  0.245571  0.491141  1
  Ru  Ru14  1  0.245571  0.745571  0.491141  1
  Ru  Ru15  1  0.251957  0.502720  0.754677  1
  Ru  Ru16  1  0.997736  0.997736  0.995472  1
