# generated using pymatgen
data_Y20Cd3Os2Pd3
_symmetry_space_group_name_H-M   'P 1'
_cell_length_a   9.56391000
_cell_length_b   9.56390998
_cell_length_c   9.63728800
_cell_angle_alpha   90.00000000
_cell_angle_beta   90.00000000
_cell_angle_gamma   120.00000006
_symmetry_Int_Tables_number   1
_chemical_formula_structural   Y20Cd3Os2Pd3
_chemical_formula_sum   'Y20 Cd3 Os2 Pd3'
_cell_volume   763.40751256
_cell_formula_units_Z   1
loop_
 _symmetry_equiv_pos_site_id
 _symmetry_equiv_pos_as_xyz
  1  'x, y, z'
loop_
 _atom_site_type_symbol
 _atom_site_label
 _atom_site_symmetry_multiplicity
 _atom_site_fract_x
 _atom_site_fract_y
 _atom_site_fract_z
 _atom_site_occupancy
  Y  Y0  1  0.000000  0.000000  0.450305  1
  Y  Y1  1  0.000000  0.000000  0.049695  1
  Y  Y2  1  0.208510  0.791490  0.441110  1
  Y  Y3  1  0.208510  0.417021  0.441110  1
  Y  Y4  1  0.582979  0.791490  0.441110  1
  Y  Y5  1  0.792509  0.207491  0.557239  1
  Y  Y6  1  0.792509  0.585017  0.557239  1
  Y  Y7  1  0.414983  0.207491  0.557239  1
  Y  Y8  1  0.792509  0.207491  0.942761  1
  Y  Y9  1  0.792509  0.585017  0.942761  1
  Y  Y10  1  0.414983  0.207491  0.942761  1
  Y  Y11  1  0.208510  0.791490  0.058890  1
  Y  Y12  1  0.208510  0.417021  0.058890  1
  Y  Y13  1  0.582979  0.791490  0.058890  1
  Y  Y14  1  0.539636  0.460364  0.250000  1
  Y  Y15  1  0.539636  0.079273  0.250000  1
  Y  Y16  1  0.920727  0.460364  0.250000  1
  Y  Y17  1  0.460164  0.539836  0.750000  1
  Y  Y18  1  0.460164  0.920329  0.750000  1
  Y  Y19  1  0.079671  0.539836  0.750000  1
  Cd  Cd20  1  0.107891  0.892109  0.750000  1
  Cd  Cd21  1  0.107891  0.215779  0.750000  1
  Cd  Cd22  1  0.784221  0.892109  0.750000  1
  Os  Os23  1  0.333333  0.666667  0.250000  1
  Os  Os24  1  0.666667  0.333333  0.750000  1
  Pd  Pd25  1  0.870002  0.129998  0.250000  1
  Pd  Pd26  1  0.870002  0.740006  0.250000  1
  Pd  Pd27  1  0.259994  0.129998  0.250000  1
