# generated using pymatgen
data_NaIrRh3S8
_symmetry_space_group_name_H-M   'P 1'
_cell_length_a   3.60218057
_cell_length_b   7.75801707
_cell_length_c   8.97871694
_cell_angle_alpha   78.16463549
_cell_angle_beta   78.42820560
_cell_angle_gamma   76.57580902
_symmetry_Int_Tables_number   1
_chemical_formula_structural   NaIrRh3S8
_chemical_formula_sum   'Na1 Ir1 Rh3 S8'
_cell_volume   235.76884862
_cell_formula_units_Z   1
loop_
 _symmetry_equiv_pos_site_id
 _symmetry_equiv_pos_as_xyz
  1  'x, y, z'
loop_
 _atom_site_type_symbol
 _atom_site_label
 _atom_site_symmetry_multiplicity
 _atom_site_fract_x
 _atom_site_fract_y
 _atom_site_fract_z
 _atom_site_occupancy
  Na  Na0  1  0.501318  0.998557  0.998807  1
  Ir  Ir1  1  0.630994  0.196767  0.541246  1
  Rh  Rh2  1  0.842560  0.493774  0.821104  1
  Rh  Rh3  1  0.158280  0.504402  0.179039  1
  Rh  Rh4  1  0.368435  0.806233  0.456895  1
  S  S5  1  0.460152  0.303895  0.775802  1
  S  S6  1  0.540951  0.695220  0.222878  1
  S  S7  1  0.905163  0.625973  0.563701  1
  S  S8  1  0.094246  0.373916  0.437592  1
  S  S9  1  0.215468  0.655393  0.913670  1
  S  S10  1  0.784634  0.342475  0.088258  1
  S  S11  1  0.821299  0.003002  0.354399  1
  S  S12  1  0.176500  0.000393  0.646608  1
