# generated using pymatgen
data_Ta8ReOs4W3
_symmetry_space_group_name_H-M   'P 1'
_cell_length_a   6.42147800
_cell_length_b   4.52464600
_cell_length_c   9.10750700
_cell_angle_alpha   90.00000000
_cell_angle_beta   90.00097881
_cell_angle_gamma   90.00000000
_symmetry_Int_Tables_number   1
_chemical_formula_structural   Ta8ReOs4W3
_chemical_formula_sum   'Ta8 Re1 Os4 W3'
_cell_volume   264.61783942
_cell_formula_units_Z   1
loop_
 _symmetry_equiv_pos_site_id
 _symmetry_equiv_pos_as_xyz
  1  'x, y, z'
loop_
 _atom_site_type_symbol
 _atom_site_label
 _atom_site_symmetry_multiplicity
 _atom_site_fract_x
 _atom_site_fract_y
 _atom_site_fract_z
 _atom_site_occupancy
  Ta  Ta0  1  0.999489  0.750001  0.125454  1
  Ta  Ta1  1  0.500561  0.750001  0.125447  1
  Ta  Ta2  1  0.000235  0.250000  0.375000  1
  Ta  Ta3  1  0.499821  0.250000  0.374994  1
  Ta  Ta4  1  0.500510  0.750001  0.624556  1
  Ta  Ta5  1  0.999434  0.750001  0.624557  1
  Ta  Ta6  1  0.499440  0.250000  0.874998  1
  Ta  Ta7  1  0.000503  0.250000  0.874993  1
  Re  Re8  1  0.249977  0.750001  0.875016  1
  Os  Os9  1  0.250032  0.250000  0.123743  1
  Os  Os10  1  0.750035  0.750001  0.375006  1
  Os  Os11  1  0.249974  0.250000  0.626251  1
  Os  Os12  1  0.749962  0.750001  0.874998  1
  W  W13  1  0.750028  0.250000  0.123968  1
  W  W14  1  0.250021  0.750001  0.375001  1
  W  W15  1  0.749980  0.250000  0.626018  1
