# generated using pymatgen
data_YbYGa9Ru5
_symmetry_space_group_name_H-M   'P 1'
_cell_length_a   8.01738342
_cell_length_b   8.01738315
_cell_length_c   8.01738239
_cell_angle_alpha   134.97129997
_cell_angle_beta   134.28524449
_cell_angle_gamma   66.10990420
_symmetry_Int_Tables_number   1
_chemical_formula_structural   YbYGa9Ru5
_chemical_formula_sum   'Yb1 Y1 Ga9 Ru5'
_cell_volume   256.98218527
_cell_formula_units_Z   1
loop_
 _symmetry_equiv_pos_site_id
 _symmetry_equiv_pos_as_xyz
  1  'x, y, z'
loop_
 _atom_site_type_symbol
 _atom_site_label
 _atom_site_symmetry_multiplicity
 _atom_site_fract_x
 _atom_site_fract_y
 _atom_site_fract_z
 _atom_site_occupancy
  Yb  Yb0  1  0.500000  0.000000  0.500000  1
  Y  Y1  1  0.000000  0.500000  0.500000  1
  Ga  Ga2  1  0.437796  0.859932  0.003317  1
  Ga  Ga3  1  0.143385  0.140068  0.577865  1
  Ga  Ga4  1  0.856615  0.434479  0.996683  1
  Ga  Ga5  1  0.856615  0.859932  0.422135  1
  Ga  Ga6  1  0.562204  0.140068  0.996683  1
  Ga  Ga7  1  0.143385  0.565521  0.003317  1
  Ga  Ga8  1  0.562204  0.565521  0.422135  1
  Ga  Ga9  1  0.000000  0.000000  0.000000  1
  Ga  Ga10  1  0.437796  0.434479  0.577865  1
  Ru  Ru11  1  0.181660  0.181660  0.000000  1
  Ru  Ru12  1  0.818340  0.818340  0.000000  1
  Ru  Ru13  1  0.248969  0.748969  0.500000  1
  Ru  Ru14  1  0.751031  0.251031  0.500000  1
  Ru  Ru15  1  0.500000  0.500000  0.000000  1
