# generated using pymatgen
data_V3Te5Se
_symmetry_space_group_name_H-M   'P 1'
_cell_length_a   7.52846742
_cell_length_b   7.52846766
_cell_length_c   9.29722113
_cell_angle_alpha   68.14694483
_cell_angle_beta   68.14694324
_cell_angle_gamma   27.07104957
_symmetry_Int_Tables_number   1
_chemical_formula_structural   V3Te5Se
_chemical_formula_sum   'V3 Te5 Se1'
_cell_volume   221.53844585
_cell_formula_units_Z   1
loop_
 _symmetry_equiv_pos_site_id
 _symmetry_equiv_pos_as_xyz
  1  'x, y, z'
loop_
 _atom_site_type_symbol
 _atom_site_label
 _atom_site_symmetry_multiplicity
 _atom_site_fract_x
 _atom_site_fract_y
 _atom_site_fract_z
 _atom_site_occupancy
  V  V0  1  0.996799  0.996799  0.002254  1
  V  V1  1  0.362666  0.362666  0.282775  1
  V  V2  1  0.636184  0.636184  0.709233  1
  Te  Te3  1  0.645172  0.645172  0.978923  1
  Te  Te4  1  0.707493  0.707493  0.382295  1
  Te  Te5  1  0.290969  0.290969  0.612680  1
  Te  Te6  1  0.003644  0.003644  0.702413  1
  Te  Te7  1  0.990755  0.990755  0.303087  1
  Se  Se8  1  0.366319  0.366319  0.026340  1
