# generated using pymatgen
data_Er3TmReB12Os
_symmetry_space_group_name_H-M   'P 1'
_cell_length_a   3.64002400
_cell_length_b   9.10453371
_cell_length_c   11.48182200
_cell_angle_alpha   90.13734350
_cell_angle_beta   90.00000000
_cell_angle_gamma   90.00000000
_symmetry_Int_Tables_number   1
_chemical_formula_structural   Er3TmReB12Os
_chemical_formula_sum   'Er6 Tm2 Re2 B24 Os2'
_cell_volume   380.51476864
_cell_formula_units_Z   2
loop_
 _symmetry_equiv_pos_site_id
 _symmetry_equiv_pos_as_xyz
  1  'x, y, z'
loop_
 _atom_site_type_symbol
 _atom_site_label
 _atom_site_symmetry_multiplicity
 _atom_site_fract_x
 _atom_site_fract_y
 _atom_site_fract_z
 _atom_site_occupancy
  Er  Er0  1  0.000000  0.320456  0.412372  1
  Er  Er1  1  0.000000  0.679544  0.587628  1
  Er  Er2  1  0.000000  0.824257  0.084615  1
  Er  Er3  1  0.000000  0.175743  0.915385  1
  Er  Er4  1  0.000000  0.943309  0.370824  1
  Er  Er5  1  0.000000  0.056691  0.629176  1
  Tm  Tm6  1  0.000000  0.442762  0.128582  1
  Tm  Tm7  1  0.000000  0.557238  0.871418  1
  Re  Re8  1  0.000000  0.138598  0.179588  1
  Re  Re9  1  0.000000  0.861402  0.820412  1
  B  B10  1  0.500000  0.553534  0.433408  1
  B  B11  1  0.500000  0.446466  0.566592  1
  B  B12  1  0.500000  0.053015  0.066684  1
  B  B13  1  0.500000  0.946985  0.933316  1
  B  B14  1  0.500000  0.748941  0.419092  1
  B  B15  1  0.500000  0.251059  0.580908  1
  B  B16  1  0.500000  0.249362  0.080753  1
  B  B17  1  0.500000  0.750638  0.919247  1
  B  B18  1  0.500000  0.790967  0.265571  1
  B  B19  1  0.500000  0.209033  0.734429  1
  B  B20  1  0.500000  0.292379  0.234827  1
  B  B21  1  0.500000  0.707621  0.765173  1
  B  B22  1  0.500000  0.630552  0.185545  1
  B  B23  1  0.500000  0.369448  0.814455  1
  B  B24  1  0.500000  0.131270  0.315206  1
  B  B25  1  0.500000  0.868730  0.684794  1
  B  B26  1  0.500000  0.981990  0.212552  1
  B  B27  1  0.500000  0.018010  0.787448  1
  B  B28  1  0.500000  0.482273  0.287820  1
  B  B29  1  0.500000  0.517727  0.712180  1
  B  B30  1  0.500000  0.602614  0.028696  1
  B  B31  1  0.500000  0.397386  0.971304  1
  B  B32  1  0.500000  0.103227  0.471611  1
  B  B33  1  0.500000  0.896773  0.528389  1
  Os  Os34  1  0.000000  0.637127  0.321706  1
  Os  Os35  1  0.000000  0.362873  0.678294  1
