# generated using pymatgen
data_Ti10Si4Ge2C
_symmetry_space_group_name_H-M   'P 1'
_cell_length_a   7.48737602
_cell_length_b   7.47890704
_cell_length_c   5.18573818
_cell_angle_alpha   90.01803969
_cell_angle_beta   89.99099044
_cell_angle_gamma   119.96258858
_symmetry_Int_Tables_number   1
_chemical_formula_structural   Ti10Si4Ge2C
_chemical_formula_sum   'Ti10 Si4 Ge2 C1'
_cell_volume   251.57794955
_cell_formula_units_Z   1
loop_
 _symmetry_equiv_pos_site_id
 _symmetry_equiv_pos_as_xyz
  1  'x, y, z'
loop_
 _atom_site_type_symbol
 _atom_site_label
 _atom_site_symmetry_multiplicity
 _atom_site_fract_x
 _atom_site_fract_y
 _atom_site_fract_z
 _atom_site_occupancy
  Ti  Ti0  1  0.000000  0.759813  0.258685  1
  Ti  Ti1  1  0.238370  0.238394  0.259753  1
  Ti  Ti2  1  0.761630  0.000025  0.259753  1
  Ti  Ti3  1  0.000000  0.241324  0.739885  1
  Ti  Ti4  1  0.764811  0.760983  0.739865  1
  Ti  Ti5  1  0.235189  0.996171  0.739865  1
  Ti  Ti6  1  0.331264  0.666322  0.002540  1
  Ti  Ti7  1  0.668736  0.335057  0.002540  1
  Ti  Ti8  1  0.669556  0.335317  0.497385  1
  Ti  Ti9  1  0.330444  0.665762  0.497385  1
  Si  Si10  1  0.000000  0.399414  0.246553  1
  Si  Si11  1  0.601450  0.602231  0.248925  1
  Si  Si12  1  0.398550  0.000781  0.248925  1
  Si  Si13  1  0.000000  0.599260  0.753512  1
  Ge  Ge14  1  0.399537  0.398843  0.752409  1
  Ge  Ge15  1  0.600463  0.999306  0.752409  1
  C  C16  1  0.000000  0.000998  0.499612  1
