# generated using pymatgen
data_Pu5Th2UH24
_symmetry_space_group_name_H-M   'P 1'
_cell_length_a   6.66331500
_cell_length_b   6.66370500
_cell_length_c   6.66958100
_cell_angle_alpha   90.00000000
_cell_angle_beta   90.00000000
_cell_angle_gamma   90.00000000
_symmetry_Int_Tables_number   1
_chemical_formula_structural   Pu5Th2UH24
_chemical_formula_sum   'Pu5 Th2 U1 H24'
_cell_volume   296.14517317
_cell_formula_units_Z   1
loop_
 _symmetry_equiv_pos_site_id
 _symmetry_equiv_pos_as_xyz
  1  'x, y, z'
loop_
 _atom_site_type_symbol
 _atom_site_label
 _atom_site_symmetry_multiplicity
 _atom_site_fract_x
 _atom_site_fract_y
 _atom_site_fract_z
 _atom_site_occupancy
  Pu  Pu0  1  0.748249  0.000000  0.500000  1
  Pu  Pu1  1  0.999626  0.500000  0.252555  1
  Pu  Pu2  1  0.999626  0.500000  0.747445  1
  Pu  Pu3  1  0.499491  0.744552  0.000000  1
  Pu  Pu4  1  0.499491  0.255448  0.000000  1
  Th  Th5  1  0.995234  0.000000  0.000000  1
  Th  Th6  1  0.254469  0.000000  0.500000  1
  U  U7  1  0.503469  0.500000  0.500000  1
  H  H8  1  0.999466  0.157961  0.309523  1
  H  H9  1  0.501044  0.200448  0.654872  1
  H  H10  1  0.501044  0.799552  0.345128  1
  H  H11  1  0.800449  0.655701  0.500000  1
  H  H12  1  0.201614  0.651644  0.500000  1
  H  H13  1  0.345262  0.500000  0.797714  1
  H  H14  1  0.655233  0.500000  0.799595  1
  H  H15  1  0.309073  0.000000  0.153403  1
  H  H16  1  0.156384  0.309047  0.000000  1
  H  H17  1  0.842463  0.689003  0.000000  1
  H  H18  1  0.309073  0.000000  0.846597  1
  H  H19  1  0.842463  0.310997  0.000000  1
  H  H20  1  0.688676  0.000000  0.157515  1
  H  H21  1  0.688676  0.000000  0.842485  1
  H  H22  1  0.156384  0.690953  0.000000  1
  H  H23  1  0.999466  0.842039  0.690477  1
  H  H24  1  0.999466  0.157961  0.690477  1
  H  H25  1  0.999466  0.842039  0.309523  1
  H  H26  1  0.655233  0.500000  0.200405  1
  H  H27  1  0.345262  0.500000  0.202286  1
  H  H28  1  0.800449  0.344299  0.500000  1
  H  H29  1  0.201614  0.348356  0.500000  1
  H  H30  1  0.501044  0.799552  0.654872  1
  H  H31  1  0.501044  0.200448  0.345128  1
