# generated using pymatgen
data_RhClF8
_symmetry_space_group_name_H-M   'P 1'
_cell_length_a   5.92345446
_cell_length_b   5.92345400
_cell_length_c   10.68095132
_cell_angle_alpha   75.02217991
_cell_angle_beta   75.02218277
_cell_angle_gamma   86.71035584
_symmetry_Int_Tables_number   1
_chemical_formula_structural   RhClF8
_chemical_formula_sum   'Rh2 Cl2 F16'
_cell_volume   349.71601142
_cell_formula_units_Z   2
loop_
 _symmetry_equiv_pos_site_id
 _symmetry_equiv_pos_as_xyz
  1  'x, y, z'
loop_
 _atom_site_type_symbol
 _atom_site_label
 _atom_site_symmetry_multiplicity
 _atom_site_fract_x
 _atom_site_fract_y
 _atom_site_fract_z
 _atom_site_occupancy
  Rh  Rh0  1  0.000000  0.000000  0.500000  1
  Rh  Rh1  1  0.000000  0.000000  0.000000  1
  Cl  Cl2  1  0.329307  0.670693  0.250000  1
  Cl  Cl3  1  0.670693  0.329307  0.750000  1
  F  F4  1  0.600889  0.531974  0.830780  1
  F  F5  1  0.468026  0.399111  0.669220  1
  F  F6  1  0.399111  0.468026  0.169220  1
  F  F7  1  0.531974  0.600889  0.330780  1
  F  F8  1  0.190266  0.221768  0.527211  1
  F  F9  1  0.778232  0.809734  0.972789  1
  F  F10  1  0.809734  0.778232  0.472789  1
  F  F11  1  0.221768  0.190266  0.027211  1
  F  F12  1  0.249380  0.958665  0.347114  1
  F  F13  1  0.041335  0.750620  0.152886  1
  F  F14  1  0.750620  0.041335  0.652886  1
  F  F15  1  0.958665  0.249380  0.847114  1
  F  F16  1  0.877851  0.241679  0.384944  1
  F  F17  1  0.758321  0.122149  0.115056  1
  F  F18  1  0.122149  0.758321  0.615056  1
  F  F19  1  0.241679  0.877851  0.884944  1
