# generated using pymatgen
data_Ti4CuMo5
_symmetry_space_group_name_H-M   'P 1'
_cell_length_a   4.43403304
_cell_length_b   8.26452057
_cell_length_c   4.43985200
_cell_angle_alpha   90.00000000
_cell_angle_beta   90.00000000
_cell_angle_gamma   74.46541485
_symmetry_Int_Tables_number   1
_chemical_formula_structural   Ti4CuMo5
_chemical_formula_sum   'Ti4 Cu1 Mo5'
_cell_volume   156.75550938
_cell_formula_units_Z   1
loop_
 _symmetry_equiv_pos_site_id
 _symmetry_equiv_pos_as_xyz
  1  'x, y, z'
loop_
 _atom_site_type_symbol
 _atom_site_label
 _atom_site_symmetry_multiplicity
 _atom_site_fract_x
 _atom_site_fract_y
 _atom_site_fract_z
 _atom_site_occupancy
  Ti  Ti0  1  0.084096  0.997477  0.000000  1
  Ti  Ti1  1  0.282730  0.602519  0.000000  1
  Ti  Ti2  1  0.585130  0.996069  0.500001  1
  Ti  Ti3  1  0.781416  0.603924  0.500001  1
  Cu  Cu4  1  0.183161  0.799994  0.500001  1
  Mo  Mo5  1  0.480430  0.205786  0.000000  1
  Mo  Mo6  1  0.886183  0.394223  0.000000  1
  Mo  Mo7  1  0.683457  0.799987  0.000000  1
  Mo  Mo8  1  0.980071  0.206401  0.500001  1
  Mo  Mo9  1  0.386502  0.393620  0.500001  1
