# generated using pymatgen
data_Y2BePt6
_symmetry_space_group_name_H-M   'P 1'
_cell_length_a   5.99256739
_cell_length_b   5.99256634
_cell_length_c   5.99256600
_cell_angle_alpha   60.00000190
_cell_angle_beta   60.00000770
_cell_angle_gamma   60.00000252
_symmetry_Int_Tables_number   1
_chemical_formula_structural   Y2BePt6
_chemical_formula_sum   'Y2 Be1 Pt6'
_cell_volume   152.16810971
_cell_formula_units_Z   1
loop_
 _symmetry_equiv_pos_site_id
 _symmetry_equiv_pos_as_xyz
  1  'x, y, z'
loop_
 _atom_site_type_symbol
 _atom_site_label
 _atom_site_symmetry_multiplicity
 _atom_site_fract_x
 _atom_site_fract_y
 _atom_site_fract_z
 _atom_site_occupancy
  Y  Y0  1  0.250000  0.250000  0.250000  1
  Y  Y1  1  0.750000  0.750000  0.750000  1
  Be  Be2  1  0.500000  0.500000  0.500000  1
  Pt  Pt3  1  0.761654  0.238346  0.238346  1
  Pt  Pt4  1  0.238346  0.761654  0.238346  1
  Pt  Pt5  1  0.761654  0.761654  0.238346  1
  Pt  Pt6  1  0.238346  0.238346  0.761654  1
  Pt  Pt7  1  0.761654  0.238346  0.761654  1
  Pt  Pt8  1  0.238346  0.761654  0.761654  1
