# generated using pymatgen
data_Pr2SiP5Pd21
_symmetry_space_group_name_H-M   'P 1'
_cell_length_a   8.69595444
_cell_length_b   8.69805468
_cell_length_c   8.69805525
_cell_angle_alpha   59.98401866
_cell_angle_beta   60.00798496
_cell_angle_gamma   60.00797813
_symmetry_Int_Tables_number   1
_chemical_formula_structural   Pr2SiP5Pd21
_chemical_formula_sum   'Pr2 Si1 P5 Pd21'
_cell_volume   465.20721627
_cell_formula_units_Z   1
loop_
 _symmetry_equiv_pos_site_id
 _symmetry_equiv_pos_as_xyz
  1  'x, y, z'
loop_
 _atom_site_type_symbol
 _atom_site_label
 _atom_site_symmetry_multiplicity
 _atom_site_fract_x
 _atom_site_fract_y
 _atom_site_fract_z
 _atom_site_occupancy
  Pr  Pr0  1  0.749570  0.750430  0.750430  1
  Pr  Pr1  1  0.249570  0.250430  0.250430  1
  Si  Si2  1  0.260047  0.739953  0.739953  1
  P  P3  1  0.737959  0.739867  0.262041  1
  P  P4  1  0.260133  0.739867  0.262041  1
  P  P5  1  0.739444  0.260556  0.260556  1
  P  P6  1  0.260133  0.262041  0.739867  1
  P  P7  1  0.737959  0.262041  0.739867  1
  Pd  Pd8  1  0.001704  0.998296  0.998296  1
  Pd  Pd9  1  0.613321  0.612964  0.160395  1
  Pd  Pd10  1  0.613321  0.160395  0.612964  1
  Pd  Pd11  1  0.159345  0.613073  0.613073  1
  Pd  Pd12  1  0.614509  0.613073  0.613073  1
  Pd  Pd13  1  0.386927  0.385491  0.840655  1
  Pd  Pd14  1  0.386927  0.840655  0.385491  1
  Pd  Pd15  1  0.839605  0.386679  0.386679  1
  Pd  Pd16  1  0.387036  0.386679  0.386679  1
  Pd  Pd17  1  0.999909  0.000091  0.343834  1
  Pd  Pd18  1  0.656166  0.000091  0.343834  1
  Pd  Pd19  1  0.000983  0.655859  0.342175  1
  Pd  Pd20  1  0.656166  0.343834  0.000091  1
  Pd  Pd21  1  0.999909  0.343834  0.000091  1
  Pd  Pd22  1  0.000983  0.342175  0.655859  1
  Pd  Pd23  1  0.345545  0.654455  0.002342  1
  Pd  Pd24  1  0.345545  0.002342  0.654455  1
  Pd  Pd25  1  0.344141  0.999017  0.999017  1
  Pd  Pd26  1  0.997658  0.002342  0.654455  1
  Pd  Pd27  1  0.997658  0.654455  0.002342  1
  Pd  Pd28  1  0.657825  0.999017  0.999017  1
