# generated using pymatgen
data_CeY5MnCl10
_symmetry_space_group_name_H-M   'P 1'
_cell_length_a   7.06215363
_cell_length_b   8.51122544
_cell_length_c   8.93938400
_cell_angle_alpha   108.22392567
_cell_angle_beta   97.03787148
_cell_angle_gamma   104.17426517
_symmetry_Int_Tables_number   1
_chemical_formula_structural   CeY5MnCl10
_chemical_formula_sum   'Ce1 Y5 Mn1 Cl10'
_cell_volume   483.13188371
_cell_formula_units_Z   1
loop_
 _symmetry_equiv_pos_site_id
 _symmetry_equiv_pos_as_xyz
  1  'x, y, z'
loop_
 _atom_site_type_symbol
 _atom_site_label
 _atom_site_symmetry_multiplicity
 _atom_site_fract_x
 _atom_site_fract_y
 _atom_site_fract_z
 _atom_site_occupancy
  Ce  Ce0  1  0.033538  0.720922  0.416106  1
  Y  Y1  1  0.963313  0.286798  0.586878  1
  Y  Y2  1  0.869001  0.946643  0.756672  1
  Y  Y3  1  0.135059  0.052481  0.244200  1
  Y  Y4  1  0.373337  0.142576  0.688828  1
  Y  Y5  1  0.626985  0.857794  0.310393  1
  Mn  Mn6  1  0.005796  0.969078  0.490831  1
  Cl  Cl7  1  0.461458  0.825526  0.586983  1
  Cl  Cl8  1  0.551721  0.183349  0.419884  1
  Cl  Cl9  1  0.905552  0.625790  0.681432  1
  Cl  Cl10  1  0.083337  0.373975  0.331716  1
  Cl  Cl11  1  0.248455  0.088500  0.957025  1
  Cl  Cl12  1  0.754688  0.923713  0.047206  1
  Cl  Cl13  1  0.335888  0.454286  0.768723  1
  Cl  Cl14  1  0.641827  0.541239  0.223056  1
  Cl  Cl15  1  0.788859  0.257641  0.842615  1
  Cl  Cl16  1  0.221184  0.749688  0.147454  1
