# generated using pymatgen
data_Rb2ThCl6
_symmetry_space_group_name_H-M   'P 1'
_cell_length_a   8.48533049
_cell_length_b   8.48533105
_cell_length_c   8.84243717
_cell_angle_alpha   89.68535790
_cell_angle_beta   89.68535594
_cell_angle_gamma   119.80588563
_symmetry_Int_Tables_number   1
_chemical_formula_structural   Rb2ThCl6
_chemical_formula_sum   'Rb4 Th2 Cl12'
_cell_volume   552.40842851
_cell_formula_units_Z   2
loop_
 _symmetry_equiv_pos_site_id
 _symmetry_equiv_pos_as_xyz
  1  'x, y, z'
loop_
 _atom_site_type_symbol
 _atom_site_label
 _atom_site_symmetry_multiplicity
 _atom_site_fract_x
 _atom_site_fract_y
 _atom_site_fract_z
 _atom_site_occupancy
  Rb  Rb0  1  0.359632  0.668047  0.002349  1
  Rb  Rb1  1  0.668047  0.359632  0.502349  1
  Rb  Rb2  1  0.640368  0.331953  0.997651  1
  Rb  Rb3  1  0.331953  0.640368  0.497651  1
  Th  Th4  1  0.058941  0.941059  0.750000  1
  Th  Th5  1  0.941059  0.058941  0.250000  1
  Cl  Cl6  1  0.307210  0.297273  0.264703  1
  Cl  Cl7  1  0.692790  0.702727  0.735297  1
  Cl  Cl8  1  0.875178  0.088098  0.945342  1
  Cl  Cl9  1  0.124822  0.911902  0.054658  1
  Cl  Cl10  1  0.702727  0.692790  0.235297  1
  Cl  Cl11  1  0.911902  0.124822  0.554658  1
  Cl  Cl12  1  0.014206  0.589418  0.764571  1
  Cl  Cl13  1  0.589418  0.014206  0.264571  1
  Cl  Cl14  1  0.985794  0.410582  0.235429  1
  Cl  Cl15  1  0.088098  0.875178  0.445342  1
  Cl  Cl16  1  0.410582  0.985794  0.735429  1
  Cl  Cl17  1  0.297273  0.307210  0.764703  1
