# generated using pymatgen
data_Th5SnBi2As
_symmetry_space_group_name_H-M   'P 1'
_cell_length_a   9.58622300
_cell_length_b   9.59289916
_cell_length_c   6.69089600
_cell_angle_alpha   90.00000000
_cell_angle_beta   90.00000000
_cell_angle_gamma   119.97697746
_symmetry_Int_Tables_number   1
_chemical_formula_structural   Th5SnBi2As
_chemical_formula_sum   'Th10 Sn2 Bi4 As2'
_cell_volume   532.98259034
_cell_formula_units_Z   2
loop_
 _symmetry_equiv_pos_site_id
 _symmetry_equiv_pos_as_xyz
  1  'x, y, z'
loop_
 _atom_site_type_symbol
 _atom_site_label
 _atom_site_symmetry_multiplicity
 _atom_site_fract_x
 _atom_site_fract_y
 _atom_site_fract_z
 _atom_site_occupancy
  Th  Th0  1  0.999772  0.741605  0.750000  1
  Th  Th1  1  0.258167  0.258395  0.750000  1
  Th  Th2  1  0.331459  0.664178  0.496579  1
  Th  Th3  1  0.667282  0.335822  0.496579  1
  Th  Th4  1  0.743102  0.739542  0.250000  1
  Th  Th5  1  0.743224  0.000000  0.750000  1
  Th  Th6  1  0.003560  0.260458  0.250000  1
  Th  Th7  1  0.255317  0.000000  0.250000  1
  Th  Th8  1  0.331459  0.664178  0.003421  1
  Th  Th9  1  0.667282  0.335822  0.003421  1
  Sn  Sn10  1  0.389774  0.389278  0.250000  1
  Sn  Sn11  1  0.000496  0.610722  0.250000  1
  Bi  Bi12  1  0.609136  0.609289  0.750000  1
  Bi  Bi13  1  0.999847  0.390711  0.750000  1
  Bi  Bi14  1  0.390484  0.000000  0.750000  1
  Bi  Bi15  1  0.610849  0.000000  0.250000  1
  As  As16  1  0.999396  0.000000  0.999481  1
  As  As17  1  0.999396  0.000000  0.500519  1
