# generated using pymatgen
data_MnNb6Fe14Si7Ru
_symmetry_space_group_name_H-M   'P 1'
_cell_length_a   8.00408517
_cell_length_b   7.98943439
_cell_length_c   7.96399669
_cell_angle_alpha   59.89427559
_cell_angle_beta   60.11610959
_cell_angle_gamma   60.06052525
_symmetry_Int_Tables_number   1
_chemical_formula_structural   MnNb6Fe14Si7Ru
_chemical_formula_sum   'Mn1 Nb6 Fe14 Si7 Ru1'
_cell_volume   360.30719453
_cell_formula_units_Z   1
loop_
 _symmetry_equiv_pos_site_id
 _symmetry_equiv_pos_as_xyz
  1  'x, y, z'
loop_
 _atom_site_type_symbol
 _atom_site_label
 _atom_site_symmetry_multiplicity
 _atom_site_fract_x
 _atom_site_fract_y
 _atom_site_fract_z
 _atom_site_occupancy
  Mn  Mn0  1  0.615119  0.621546  0.141789  1
  Nb  Nb1  1  0.798071  0.201232  0.799466  1
  Nb  Nb2  1  0.799036  0.802853  0.199966  1
  Nb  Nb3  1  0.201780  0.798551  0.201119  1
  Nb  Nb4  1  0.205719  0.203001  0.794455  1
  Nb  Nb5  1  0.205719  0.796825  0.794455  1
  Nb  Nb6  1  0.799036  0.198147  0.199966  1
  Fe  Fe7  1  0.381055  0.378486  0.861974  1
  Fe  Fe8  1  0.825396  0.519963  0.828228  1
  Fe  Fe9  1  0.825396  0.826414  0.828228  1
  Fe  Fe10  1  0.825598  0.826630  0.521142  1
  Fe  Fe11  1  0.384039  0.382061  0.375769  1
  Fe  Fe12  1  0.137481  0.621072  0.620377  1
  Fe  Fe13  1  0.615806  0.622569  0.622151  1
  Fe  Fe14  1  0.175772  0.170611  0.172952  1
  Fe  Fe15  1  0.175772  0.480665  0.172952  1
  Fe  Fe16  1  0.520615  0.825721  0.827943  1
  Fe  Fe17  1  0.615806  0.139474  0.622151  1
  Fe  Fe18  1  0.176621  0.170718  0.481942  1
  Fe  Fe19  1  0.384039  0.858131  0.375769  1
  Fe  Fe20  1  0.477950  0.173155  0.175738  1
  Si  Si21  1  0.500531  0.003878  0.997336  1
  Si  Si22  1  0.007550  0.499869  0.992711  1
  Si  Si23  1  0.500531  0.498254  0.997336  1
  Si  Si24  1  0.485240  0.501683  0.511393  1
  Si  Si25  1  0.003760  0.500456  0.501240  1
  Si  Si26  1  0.003760  0.994544  0.501240  1
  Si  Si27  1  0.501176  0.999405  0.500014  1
  Ru  Ru28  1  0.851626  0.384088  0.380198  1
