# generated using pymatgen
data_ErTa3(NbN2)6
_symmetry_space_group_name_H-M   'P 1'
_cell_length_a   5.29889300
_cell_length_b   5.29889193
_cell_length_c   10.51708600
_cell_angle_alpha   90.00000000
_cell_angle_beta   90.00000000
_cell_angle_gamma   120.00000045
_symmetry_Int_Tables_number   1
_chemical_formula_structural   ErTa3(NbN2)6
_chemical_formula_sum   'Er1 Ta3 Nb6 N12'
_cell_volume   255.73859030
_cell_formula_units_Z   1
loop_
 _symmetry_equiv_pos_site_id
 _symmetry_equiv_pos_as_xyz
  1  'x, y, z'
loop_
 _atom_site_type_symbol
 _atom_site_label
 _atom_site_symmetry_multiplicity
 _atom_site_fract_x
 _atom_site_fract_y
 _atom_site_fract_z
 _atom_site_occupancy
  Er  Er0  1  0.666667  0.333333  0.000000  1
  Ta  Ta1  1  0.333333  0.666667  0.000000  1
  Ta  Ta2  1  0.333333  0.666667  0.500000  1
  Ta  Ta3  1  0.666667  0.333333  0.500000  1
  Nb  Nb4  1  0.676989  0.675515  0.745437  1
  Nb  Nb5  1  0.324485  0.001474  0.745437  1
  Nb  Nb6  1  0.998526  0.323011  0.745437  1
  Nb  Nb7  1  0.324485  0.323011  0.254563  1
  Nb  Nb8  1  0.676989  0.001474  0.254563  1
  Nb  Nb9  1  0.998526  0.675515  0.254563  1
  N  N10  1  0.657638  0.657565  0.383567  1
  N  N11  1  0.342435  0.000073  0.383567  1
  N  N12  1  0.999927  0.342362  0.383567  1
  N  N13  1  0.342435  0.342362  0.616433  1
  N  N14  1  0.657638  0.000073  0.616433  1
  N  N15  1  0.999927  0.657565  0.616433  1
  N  N16  1  0.335121  0.352754  0.871223  1
  N  N17  1  0.647246  0.982367  0.871223  1
  N  N18  1  0.017633  0.664879  0.871223  1
  N  N19  1  0.647246  0.664879  0.128777  1
  N  N20  1  0.335121  0.982367  0.128777  1
  N  N21  1  0.017633  0.352754  0.128777  1
