# generated using pymatgen
data_La2CdCu10Ag
_symmetry_space_group_name_H-M   'P 1'
_cell_length_a   5.10267100
_cell_length_b   8.39350160
_cell_length_c   10.56923300
_cell_angle_alpha   89.84277860
_cell_angle_beta   90.00000000
_cell_angle_gamma   90.00000000
_symmetry_Int_Tables_number   1
_chemical_formula_structural   La2CdCu10Ag
_chemical_formula_sum   'La4 Cd2 Cu20 Ag2'
_cell_volume   452.67090575
_cell_formula_units_Z   2
loop_
 _symmetry_equiv_pos_site_id
 _symmetry_equiv_pos_as_xyz
  1  'x, y, z'
loop_
 _atom_site_type_symbol
 _atom_site_label
 _atom_site_symmetry_multiplicity
 _atom_site_fract_x
 _atom_site_fract_y
 _atom_site_fract_z
 _atom_site_occupancy
  La  La0  1  0.250000  0.755225  0.070088  1
  La  La1  1  0.750000  0.244775  0.929912  1
  La  La2  1  0.750000  0.739317  0.555386  1
  La  La3  1  0.250000  0.260683  0.444614  1
  Cd  Cd4  1  0.750000  0.857655  0.862656  1
  Cd  Cd5  1  0.250000  0.142345  0.137344  1
  Cu  Cu6  1  0.250000  0.817147  0.744558  1
  Cu  Cu7  1  0.750000  0.182853  0.255442  1
  Cu  Cu8  1  0.750000  0.684064  0.246651  1
  Cu  Cu9  1  0.250000  0.315936  0.753349  1
  Cu  Cu10  1  0.500087  0.566825  0.812281  1
  Cu  Cu11  1  0.499913  0.433175  0.187719  1
  Cu  Cu12  1  0.499483  0.933334  0.314122  1
  Cu  Cu13  1  0.000087  0.433175  0.187719  1
  Cu  Cu14  1  0.500517  0.066666  0.685878  1
  Cu  Cu15  1  0.999913  0.566825  0.812281  1
  Cu  Cu16  1  0.999483  0.066666  0.685878  1
  Cu  Cu17  1  0.000517  0.933334  0.314122  1
  Cu  Cu18  1  0.250000  0.912450  0.515810  1
  Cu  Cu19  1  0.750000  0.087550  0.484190  1
  Cu  Cu20  1  0.750000  0.583495  0.016516  1
  Cu  Cu21  1  0.250000  0.416505  0.983484  1
  Cu  Cu22  1  0.250000  0.558501  0.610497  1
  Cu  Cu23  1  0.750000  0.441499  0.389503  1
  Cu  Cu24  1  0.750000  0.946301  0.109301  1
  Cu  Cu25  1  0.250000  0.053699  0.890699  1
  Ag  Ag26  1  0.250000  0.640065  0.363266  1
  Ag  Ag27  1  0.750000  0.359935  0.636734  1
