# generated using pymatgen
data_La2YHo(Mo2O7)2
_symmetry_space_group_name_H-M   'P 1'
_cell_length_a   7.39734406
_cell_length_b   7.47648360
_cell_length_c   7.47648325
_cell_angle_alpha   60.94626759
_cell_angle_beta   60.41300113
_cell_angle_gamma   60.41299090
_symmetry_Int_Tables_number   1
_chemical_formula_structural   La2YHo(Mo2O7)2
_chemical_formula_sum   'La2 Y1 Ho1 Mo4 O14'
_cell_volume   296.26975818
_cell_formula_units_Z   1
loop_
 _symmetry_equiv_pos_site_id
 _symmetry_equiv_pos_as_xyz
  1  'x, y, z'
loop_
 _atom_site_type_symbol
 _atom_site_label
 _atom_site_symmetry_multiplicity
 _atom_site_fract_x
 _atom_site_fract_y
 _atom_site_fract_z
 _atom_site_occupancy
  La  La0  1  0.125000  0.625000  0.125000  1
  La  La1  1  0.125000  0.125000  0.625000  1
  Y  Y2  1  0.625000  0.125000  0.125000  1
  Ho  Ho3  1  0.125000  0.125000  0.125000  1
  Mo  Mo4  1  0.625000  0.625000  0.625000  1
  Mo  Mo5  1  0.125000  0.625000  0.625000  1
  Mo  Mo6  1  0.625000  0.125000  0.625000  1
  Mo  Mo7  1  0.625000  0.625000  0.125000  1
  O  O8  1  0.255105  0.243841  0.243841  1
  O  O9  1  0.994895  0.006159  0.006159  1
  O  O10  1  0.548738  0.959721  0.531531  1
  O  O11  1  0.289415  0.719665  0.289904  1
  O  O12  1  0.548738  0.531531  0.959721  1
  O  O13  1  0.957431  0.542352  0.542352  1
  O  O14  1  0.534201  0.964844  0.964844  1
  O  O15  1  0.960585  0.960096  0.530335  1
  O  O16  1  0.960585  0.530335  0.960096  1
  O  O17  1  0.715799  0.285156  0.285156  1
  O  O18  1  0.292569  0.707648  0.707648  1
  O  O19  1  0.701262  0.718469  0.290279  1
  O  O20  1  0.289415  0.289904  0.719665  1
  O  O21  1  0.701262  0.290279  0.718469  1
