# generated using pymatgen
data_Tb2NdEr2(In2Pt)2
_symmetry_space_group_name_H-M   'P 1'
_cell_length_a   3.63771800
_cell_length_b   8.20607600
_cell_length_c   18.37268400
_cell_angle_alpha   90.00000000
_cell_angle_beta   90.00000000
_cell_angle_gamma   90.00000000
_symmetry_Int_Tables_number   1
_chemical_formula_structural   Tb2NdEr2(In2Pt)2
_chemical_formula_sum   'Tb4 Nd2 Er4 In8 Pt4'
_cell_volume   548.45016231
_cell_formula_units_Z   2
loop_
 _symmetry_equiv_pos_site_id
 _symmetry_equiv_pos_as_xyz
  1  'x, y, z'
loop_
 _atom_site_type_symbol
 _atom_site_label
 _atom_site_symmetry_multiplicity
 _atom_site_fract_x
 _atom_site_fract_y
 _atom_site_fract_z
 _atom_site_occupancy
  Tb  Tb0  1  0.000000  0.738425  0.281250  1
  Tb  Tb1  1  0.000000  0.261575  0.718750  1
  Tb  Tb2  1  0.000000  0.761575  0.781250  1
  Tb  Tb3  1  0.000000  0.238425  0.218750  1
  Nd  Nd4  1  0.000000  0.500000  0.500000  1
  Nd  Nd5  1  0.000000  0.000000  0.000000  1
  Er  Er6  1  0.000000  0.618896  0.085344  1
  Er  Er7  1  0.000000  0.381104  0.914656  1
  Er  Er8  1  0.000000  0.881104  0.585344  1
  Er  Er9  1  0.000000  0.118896  0.414656  1
  In  In10  1  0.500000  0.700138  0.932846  1
  In  In11  1  0.500000  0.299862  0.067154  1
  In  In12  1  0.500000  0.799862  0.432846  1
  In  In13  1  0.500000  0.200138  0.567154  1
  In  In14  1  0.500000  0.583349  0.652237  1
  In  In15  1  0.500000  0.416651  0.347763  1
  In  In16  1  0.500000  0.916651  0.152237  1
  In  In17  1  0.500000  0.083349  0.847763  1
  Pt  Pt18  1  0.500000  0.524143  0.194708  1
  Pt  Pt19  1  0.500000  0.475857  0.805292  1
  Pt  Pt20  1  0.500000  0.975857  0.694708  1
  Pt  Pt21  1  0.500000  0.024143  0.305292  1
