# generated using pymatgen
data_Tb6Al24Os5PtRh2
_symmetry_space_group_name_H-M   'P 1'
_cell_length_a   8.82837020
_cell_length_b   8.83449178
_cell_length_c   9.56868479
_cell_angle_alpha   90.11071079
_cell_angle_beta   89.66523026
_cell_angle_gamma   119.49280534
_symmetry_Int_Tables_number   1
_chemical_formula_structural   Tb6Al24Os5PtRh2
_chemical_formula_sum   'Tb6 Al24 Os5 Pt1 Rh2'
_cell_volume   649.58249429
_cell_formula_units_Z   1
loop_
 _symmetry_equiv_pos_site_id
 _symmetry_equiv_pos_as_xyz
  1  'x, y, z'
loop_
 _atom_site_type_symbol
 _atom_site_label
 _atom_site_symmetry_multiplicity
 _atom_site_fract_x
 _atom_site_fract_y
 _atom_site_fract_z
 _atom_site_occupancy
  Tb  Tb0  1  0.188541  0.384024  0.251057  1
  Tb  Tb1  1  0.811459  0.615976  0.748943  1
  Tb  Tb2  1  0.614024  0.813394  0.252294  1
  Tb  Tb3  1  0.385976  0.186606  0.747706  1
  Tb  Tb4  1  0.193726  0.809543  0.250131  1
  Tb  Tb5  1  0.806274  0.190457  0.749869  1
  Al  Al6  1  0.337698  0.669643  0.027001  1
  Al  Al7  1  0.662302  0.330357  0.972999  1
  Al  Al8  1  0.668714  0.332621  0.523780  1
  Al  Al9  1  0.331286  0.667379  0.476220  1
  Al  Al10  1  0.161318  0.325422  0.575817  1
  Al  Al11  1  0.838682  0.674578  0.424183  1
  Al  Al12  1  0.674148  0.838044  0.576169  1
  Al  Al13  1  0.833581  0.675676  0.077290  1
  Al  Al14  1  0.325852  0.161956  0.423831  1
  Al  Al15  1  0.166419  0.324324  0.922710  1
  Al  Al16  1  0.163911  0.835373  0.574838  1
  Al  Al17  1  0.325821  0.161771  0.075358  1
  Al  Al18  1  0.836089  0.164627  0.425162  1
  Al  Al19  1  0.674179  0.838229  0.924642  1
  Al  Al20  1  0.832019  0.159454  0.075821  1
  Al  Al21  1  0.167981  0.840546  0.924179  1
  Al  Al22  1  0.561412  0.125600  0.249325  1
  Al  Al23  1  0.438588  0.874400  0.750675  1
  Al  Al24  1  0.873492  0.438028  0.252880  1
  Al  Al25  1  0.126508  0.561972  0.747120  1
  Al  Al26  1  0.560860  0.439841  0.248380  1
  Al  Al27  1  0.439140  0.560159  0.751620  1
  Al  Al28  1  0.999125  0.002309  0.250169  1
  Al  Al29  1  0.000875  0.997691  0.749831  1
  Os  Os30  1  0.500000  0.000000  0.000000  1
  Os  Os31  1  0.500000  0.000000  0.500000  1
  Os  Os32  1  0.000000  0.500000  0.500000  1
  Os  Os33  1  0.000000  0.000000  0.000000  1
  Os  Os34  1  0.000000  0.000000  0.500000  1
  Pt  Pt35  1  0.000000  0.500000  0.000000  1
  Rh  Rh36  1  0.500000  0.500000  0.000000  1
  Rh  Rh37  1  0.500000  0.500000  0.500000  1
