# generated using pymatgen
data_Tb3Dy9Tc3Pt
_symmetry_space_group_name_H-M   'P 1'
_cell_length_a   6.32064150
_cell_length_b   7.41141605
_cell_length_c   9.20834900
_cell_angle_alpha   90.00000000
_cell_angle_beta   90.00000000
_cell_angle_gamma   89.91116037
_symmetry_Int_Tables_number   1
_chemical_formula_structural   Tb3Dy9Tc3Pt
_chemical_formula_sum   'Tb3 Dy9 Tc3 Pt1'
_cell_volume   431.36370529
_cell_formula_units_Z   1
loop_
 _symmetry_equiv_pos_site_id
 _symmetry_equiv_pos_as_xyz
  1  'x, y, z'
loop_
 _atom_site_type_symbol
 _atom_site_label
 _atom_site_symmetry_multiplicity
 _atom_site_fract_x
 _atom_site_fract_y
 _atom_site_fract_z
 _atom_site_occupancy
  Tb  Tb0  1  0.871736  0.543500  0.250000  1
  Tb  Tb1  1  0.129104  0.455328  0.750000  1
  Tb  Tb2  1  0.370295  0.964668  0.750000  1
  Dy  Dy3  1  0.329061  0.675814  0.067623  1
  Dy  Dy4  1  0.165585  0.177522  0.435278  1
  Dy  Dy5  1  0.668294  0.318677  0.559285  1
  Dy  Dy6  1  0.836555  0.827371  0.939307  1
  Dy  Dy7  1  0.668294  0.318677  0.940715  1
  Dy  Dy8  1  0.836555  0.827371  0.560693  1
  Dy  Dy9  1  0.329061  0.675814  0.432377  1
  Dy  Dy10  1  0.165585  0.177522  0.064722  1
  Dy  Dy11  1  0.624110  0.038843  0.250000  1
  Tc  Tc12  1  0.038646  0.886011  0.250000  1
  Tc  Tc13  1  0.462639  0.386528  0.250000  1
  Tc  Tc14  1  0.956188  0.113634  0.750000  1
  Pt  Pt15  1  0.548291  0.612718  0.750000  1
