# generated using pymatgen
data_Tb2Co9P6Os
_symmetry_space_group_name_H-M   'P 1'
_cell_length_a   3.68847500
_cell_length_b   10.35233900
_cell_length_c   11.75037400
_cell_angle_alpha   90.00000000
_cell_angle_beta   90.00000000
_cell_angle_gamma   90.00000000
_symmetry_Int_Tables_number   1
_chemical_formula_structural   Tb2Co9P6Os
_chemical_formula_sum   'Tb4 Co18 P12 Os2'
_cell_volume   448.68031816
_cell_formula_units_Z   2
loop_
 _symmetry_equiv_pos_site_id
 _symmetry_equiv_pos_as_xyz
  1  'x, y, z'
loop_
 _atom_site_type_symbol
 _atom_site_label
 _atom_site_symmetry_multiplicity
 _atom_site_fract_x
 _atom_site_fract_y
 _atom_site_fract_z
 _atom_site_occupancy
  Tb  Tb0  1  0.250000  0.582552  0.701848  1
  Tb  Tb1  1  0.250000  0.917448  0.201848  1
  Tb  Tb2  1  0.750000  0.413393  0.295525  1
  Tb  Tb3  1  0.750000  0.086607  0.795525  1
  Co  Co4  1  0.750000  0.284153  0.009181  1
  Co  Co5  1  0.750000  0.215847  0.509181  1
  Co  Co6  1  0.250000  0.406041  0.488405  1
  Co  Co7  1  0.250000  0.093959  0.988405  1
  Co  Co8  1  0.750000  0.592101  0.509571  1
  Co  Co9  1  0.750000  0.907899  0.009571  1
  Co  Co10  1  0.250000  0.220123  0.176884  1
  Co  Co11  1  0.250000  0.279877  0.676884  1
  Co  Co12  1  0.750000  0.777533  0.822865  1
  Co  Co13  1  0.750000  0.722467  0.322865  1
  Co  Co14  1  0.250000  0.887172  0.701616  1
  Co  Co15  1  0.250000  0.612828  0.201616  1
  Co  Co16  1  0.750000  0.115857  0.301338  1
  Co  Co17  1  0.750000  0.384143  0.801338  1
  Co  Co18  1  0.250000  0.465395  0.932932  1
  Co  Co19  1  0.250000  0.034605  0.432932  1
  Co  Co20  1  0.750000  0.533254  0.068583  1
  Co  Co21  1  0.750000  0.966746  0.568583  1
  P  P22  1  0.250000  0.416141  0.111918  1
  P  P23  1  0.250000  0.083859  0.611918  1
  P  P24  1  0.750000  0.578467  0.887002  1
  P  P25  1  0.750000  0.921533  0.387002  1
  P  P26  1  0.250000  0.271337  0.869588  1
  P  P27  1  0.250000  0.228663  0.369588  1
  P  P28  1  0.750000  0.728450  0.132360  1
  P  P29  1  0.750000  0.771550  0.632360  1
  P  P30  1  0.250000  0.594207  0.390427  1
  P  P31  1  0.250000  0.905793  0.890427  1
  P  P32  1  0.750000  0.396656  0.608367  1
  P  P33  1  0.750000  0.103344  0.108367  1
  Os  Os34  1  0.250000  0.714765  0.991590  1
  Os  Os35  1  0.250000  0.785235  0.491590  1
