# generated using pymatgen
data_La3Nd6SmC4I15
_symmetry_space_group_name_H-M   'P 1'
_cell_length_a   9.83252258
_cell_length_b   10.70610709
_cell_length_c   11.85062822
_cell_angle_alpha   93.69037164
_cell_angle_beta   114.29023930
_cell_angle_gamma   109.39973257
_symmetry_Int_Tables_number   1
_chemical_formula_structural   La3Nd6SmC4I15
_chemical_formula_sum   'La3 Nd6 Sm1 C4 I15'
_cell_volume   1042.77515885
_cell_formula_units_Z   1
loop_
 _symmetry_equiv_pos_site_id
 _symmetry_equiv_pos_as_xyz
  1  'x, y, z'
loop_
 _atom_site_type_symbol
 _atom_site_label
 _atom_site_symmetry_multiplicity
 _atom_site_fract_x
 _atom_site_fract_y
 _atom_site_fract_z
 _atom_site_occupancy
  La  La0  1  0.706573  0.568980  0.045305  1
  La  La1  1  0.293222  0.432138  0.955401  1
  La  La2  1  0.659430  0.252970  0.833737  1
  Nd  Nd3  1  0.346496  0.746760  0.164993  1
  Nd  Nd4  1  0.775170  0.882728  0.257268  1
  Nd  Nd5  1  0.526862  0.184899  0.100831  1
  Nd  Nd6  1  0.225929  0.116509  0.744453  1
  Nd  Nd7  1  0.402375  0.457679  0.658185  1
  Nd  Nd8  1  0.471986  0.814908  0.899553  1
  Sm  Sm9  1  0.595064  0.543792  0.339320  1
  C  C10  1  0.483317  0.299886  0.937384  1
  C  C11  1  0.518057  0.700035  0.062901  1
  C  C12  1  0.453941  0.361847  0.834047  1
  C  C13  1  0.546628  0.637490  0.166004  1
  I  I14  1  0.208177  0.906437  0.938005  1
  I  I15  1  0.105827  0.188156  0.471521  1
  I  I16  1  0.155414  0.558935  0.701658  1
  I  I17  1  0.401189  0.965691  0.647824  1
  I  I18  1  0.708234  0.735399  0.817898  1
  I  I19  1  0.294025  0.267842  0.184188  1
  I  I20  1  0.840658  0.442107  0.299837  1
  I  I21  1  0.889907  0.807070  0.528028  1
  I  I22  1  0.361774  0.629061  0.410599  1
  I  I23  1  0.054392  0.836665  0.222020  1
  I  I24  1  0.792000  0.092674  0.065196  1
  I  I25  1  0.639437  0.373346  0.584001  1
  I  I26  1  0.945560  0.162582  0.777911  1
  I  I27  1  0.594197  0.029738  0.349959  1
  I  I28  1  0.004159  0.503675  0.001974  1
