# generated using pymatgen
data_Sm2Y4ScCo17P12
_symmetry_space_group_name_H-M   'P 1'
_cell_length_a   3.72041800
_cell_length_b   10.60487100
_cell_length_c   12.29939900
_cell_angle_alpha   90.00000000
_cell_angle_beta   90.00000000
_cell_angle_gamma   90.00000000
_symmetry_Int_Tables_number   1
_chemical_formula_structural   Sm2Y4ScCo17P12
_chemical_formula_sum   'Sm2 Y4 Sc1 Co17 P12'
_cell_volume   485.26728917
_cell_formula_units_Z   1
loop_
 _symmetry_equiv_pos_site_id
 _symmetry_equiv_pos_as_xyz
  1  'x, y, z'
loop_
 _atom_site_type_symbol
 _atom_site_label
 _atom_site_symmetry_multiplicity
 _atom_site_fract_x
 _atom_site_fract_y
 _atom_site_fract_z
 _atom_site_occupancy
  Sm  Sm0  1  0.000000  0.500000  0.528366  1
  Sm  Sm1  1  0.500000  0.000000  0.477444  1
  Y  Y2  1  0.500000  0.821129  0.206811  1
  Y  Y3  1  0.500000  0.178871  0.206811  1
  Y  Y4  1  0.000000  0.682732  0.796056  1
  Y  Y5  1  0.000000  0.317268  0.796056  1
  Sc  Sc6  1  0.500000  0.500000  0.151291  1
  Co  Co7  1  0.000000  0.000000  0.838190  1
  Co  Co8  1  0.500000  0.500000  0.705390  1
  Co  Co9  1  0.000000  0.000000  0.294162  1
  Co  Co10  1  0.000000  0.500000  0.984586  1
  Co  Co11  1  0.500000  0.000000  0.012831  1
  Co  Co12  1  0.500000  0.326612  0.989997  1
  Co  Co13  1  0.500000  0.673388  0.989997  1
  Co  Co14  1  0.000000  0.162252  0.001451  1
  Co  Co15  1  0.000000  0.837748  0.001451  1
  Co  Co16  1  0.500000  0.294784  0.433548  1
  Co  Co17  1  0.500000  0.705216  0.433548  1
  Co  Co18  1  0.000000  0.202276  0.571327  1
  Co  Co19  1  0.000000  0.797724  0.571327  1
  Co  Co20  1  0.500000  0.880788  0.709234  1
  Co  Co21  1  0.500000  0.119212  0.709234  1
  Co  Co22  1  0.000000  0.622210  0.294940  1
  Co  Co23  1  0.000000  0.377790  0.294940  1
  P  P24  1  0.500000  0.500000  0.883907  1
  P  P25  1  0.000000  0.000000  0.115294  1
  P  P26  1  0.500000  0.500000  0.355620  1
  P  P27  1  0.000000  0.000000  0.657075  1
  P  P28  1  0.500000  0.307232  0.618486  1
  P  P29  1  0.500000  0.692768  0.618486  1
  P  P30  1  0.000000  0.190791  0.385625  1
  P  P31  1  0.000000  0.809209  0.385625  1
  P  P32  1  0.500000  0.851720  0.889461  1
  P  P33  1  0.500000  0.148280  0.889461  1
  P  P34  1  0.000000  0.663243  0.100986  1
  P  P35  1  0.000000  0.336757  0.100986  1
