# generated using pymatgen
data_Sr4YbSi12Ir19
_symmetry_space_group_name_H-M   'P 1'
_cell_length_a   12.92109300
_cell_length_b   12.92109394
_cell_length_c   4.05596800
_cell_angle_alpha   90.00000000
_cell_angle_beta   90.00000000
_cell_angle_gamma   120.00000528
_symmetry_Int_Tables_number   1
_chemical_formula_structural   Sr4YbSi12Ir19
_chemical_formula_sum   'Sr4 Yb1 Si12 Ir19'
_cell_volume   586.44010757
_cell_formula_units_Z   1
loop_
 _symmetry_equiv_pos_site_id
 _symmetry_equiv_pos_as_xyz
  1  'x, y, z'
loop_
 _atom_site_type_symbol
 _atom_site_label
 _atom_site_symmetry_multiplicity
 _atom_site_fract_x
 _atom_site_fract_y
 _atom_site_fract_z
 _atom_site_occupancy
  Sr  Sr0  1  0.999981  0.817942  0.500000  1
  Sr  Sr1  1  0.182058  0.182038  0.500000  1
  Sr  Sr2  1  0.817962  0.000019  0.500000  1
  Sr  Sr3  1  0.666667  0.333333  0.000000  1
  Yb  Yb4  1  0.333333  0.666667  0.000000  1
  Si  Si5  1  0.000949  0.187132  0.000000  1
  Si  Si6  1  0.812868  0.813817  0.000000  1
  Si  Si7  1  0.186183  0.999051  0.000000  1
  Si  Si8  1  0.518206  0.688392  0.500000  1
  Si  Si9  1  0.311608  0.829813  0.500000  1
  Si  Si10  1  0.170187  0.481794  0.500000  1
  Si  Si11  1  0.478598  0.166796  0.500000  1
  Si  Si12  1  0.688198  0.521402  0.500000  1
  Si  Si13  1  0.833204  0.311802  0.500000  1
  Si  Si14  1  0.000342  0.628577  0.000000  1
  Si  Si15  1  0.371423  0.371766  0.000000  1
  Si  Si16  1  0.628234  0.999658  0.000000  1
  Ir  Ir17  1  0.001388  0.287642  0.500000  1
  Ir  Ir18  1  0.712358  0.713746  0.500000  1
  Ir  Ir19  1  0.286254  0.998612  0.500000  1
  Ir  Ir20  1  0.616883  0.802225  0.000000  1
  Ir  Ir21  1  0.197775  0.814658  0.000000  1
  Ir  Ir22  1  0.185342  0.383117  0.000000  1
  Ir  Ir23  1  0.379944  0.183429  0.000000  1
  Ir  Ir24  1  0.803485  0.620056  0.000000  1
  Ir  Ir25  1  0.816571  0.196515  0.000000  1
  Ir  Ir26  1  0.511460  0.873397  0.500000  1
  Ir  Ir27  1  0.126603  0.638063  0.500000  1
  Ir  Ir28  1  0.361937  0.488540  0.500000  1
  Ir  Ir29  1  0.485283  0.361788  0.500000  1
  Ir  Ir30  1  0.876504  0.514717  0.500000  1
  Ir  Ir31  1  0.638212  0.123496  0.500000  1
  Ir  Ir32  1  0.000000  0.000000  0.000000  1
  Ir  Ir33  1  0.000576  0.447433  0.000000  1
  Ir  Ir34  1  0.552567  0.553144  0.000000  1
  Ir  Ir35  1  0.446856  0.999424  0.000000  1
