# generated using pymatgen
data_Nb3Ga2IrC
_symmetry_space_group_name_H-M   'P 1'
_cell_length_a   8.35466600
_cell_length_b   8.35466683
_cell_length_c   8.35466600
_cell_angle_alpha   60.00000327
_cell_angle_beta   60.00000001
_cell_angle_gamma   59.99999870
_symmetry_Int_Tables_number   1
_chemical_formula_structural   Nb3Ga2IrC
_chemical_formula_sum   'Nb12 Ga8 Ir4 C4'
_cell_volume   412.35601059
_cell_formula_units_Z   4
loop_
 _symmetry_equiv_pos_site_id
 _symmetry_equiv_pos_as_xyz
  1  'x, y, z'
loop_
 _atom_site_type_symbol
 _atom_site_label
 _atom_site_symmetry_multiplicity
 _atom_site_fract_x
 _atom_site_fract_y
 _atom_site_fract_z
 _atom_site_occupancy
  Nb  Nb0  1  0.562723  0.937277  0.562723  1
  Nb  Nb1  1  0.312723  0.687277  0.687277  1
  Nb  Nb2  1  0.687277  0.312723  0.312723  1
  Nb  Nb3  1  0.312723  0.687277  0.312723  1
  Nb  Nb4  1  0.687277  0.687277  0.312723  1
  Nb  Nb5  1  0.312723  0.312723  0.687277  1
  Nb  Nb6  1  0.562723  0.562723  0.937277  1
  Nb  Nb7  1  0.937277  0.562723  0.562723  1
  Nb  Nb8  1  0.562723  0.937277  0.937277  1
  Nb  Nb9  1  0.937277  0.937277  0.562723  1
  Nb  Nb10  1  0.687277  0.312723  0.687277  1
  Nb  Nb11  1  0.937277  0.562723  0.937277  1
  Ga  Ga12  1  0.914328  0.914328  0.914328  1
  Ga  Ga13  1  0.992983  0.335672  0.335672  1
  Ga  Ga14  1  0.335672  0.992983  0.335672  1
  Ga  Ga15  1  0.335672  0.335672  0.992983  1
  Ga  Ga16  1  0.914328  0.257017  0.914328  1
  Ga  Ga17  1  0.914328  0.914328  0.257017  1
  Ga  Ga18  1  0.257017  0.914328  0.914328  1
  Ga  Ga19  1  0.335672  0.335672  0.335672  1
  Ir  Ir20  1  0.125000  0.125000  0.125000  1
  Ir  Ir21  1  0.625000  0.125000  0.125000  1
  Ir  Ir22  1  0.125000  0.625000  0.125000  1
  Ir  Ir23  1  0.125000  0.125000  0.625000  1
  C  C24  1  0.625000  0.625000  0.625000  1
  C  C25  1  0.125000  0.625000  0.625000  1
  C  C26  1  0.625000  0.125000  0.625000  1
  C  C27  1  0.625000  0.625000  0.125000  1
