# generated using pymatgen
data_Tb4DySiSe4
_symmetry_space_group_name_H-M   'P 1'
_cell_length_a   7.12775067
_cell_length_b   7.12775127
_cell_length_c   7.12775163
_cell_angle_alpha   99.54834543
_cell_angle_beta   99.54834446
_cell_angle_gamma   131.93142050
_symmetry_Int_Tables_number   1
_chemical_formula_structural   Tb4DySiSe4
_chemical_formula_sum   'Tb4 Dy1 Si1 Se4'
_cell_volume   246.04404290
_cell_formula_units_Z   1
loop_
 _symmetry_equiv_pos_site_id
 _symmetry_equiv_pos_as_xyz
  1  'x, y, z'
loop_
 _atom_site_type_symbol
 _atom_site_label
 _atom_site_symmetry_multiplicity
 _atom_site_fract_x
 _atom_site_fract_y
 _atom_site_fract_z
 _atom_site_occupancy
  Tb  Tb0  1  0.404549  0.789634  0.194183  1
  Tb  Tb1  1  0.595451  0.210366  0.805817  1
  Tb  Tb2  1  0.210366  0.404549  0.614914  1
  Tb  Tb3  1  0.789634  0.595451  0.385086  1
  Dy  Dy4  1  0.000000  0.000000  0.000000  1
  Si  Si5  1  0.500000  0.500000  0.000000  1
  Se  Se6  1  0.097552  0.698632  0.796183  1
  Se  Se7  1  0.698632  0.902448  0.601080  1
  Se  Se8  1  0.301368  0.097552  0.398920  1
  Se  Se9  1  0.902448  0.301368  0.203817  1
