# generated using pymatgen
data_Dy17Ho(MgIr6)2
_symmetry_space_group_name_H-M   'P 1'
_cell_length_a   10.78909900
_cell_length_b   10.78909900
_cell_length_c   6.31672100
_cell_angle_alpha   90.00000000
_cell_angle_beta   90.00000000
_cell_angle_gamma   90.00000000
_symmetry_Int_Tables_number   1
_chemical_formula_structural   Dy17Ho(MgIr6)2
_chemical_formula_sum   'Dy17 Ho1 Mg2 Ir12'
_cell_volume   735.29574283
_cell_formula_units_Z   1
loop_
 _symmetry_equiv_pos_site_id
 _symmetry_equiv_pos_as_xyz
  1  'x, y, z'
loop_
 _atom_site_type_symbol
 _atom_site_label
 _atom_site_symmetry_multiplicity
 _atom_site_fract_x
 _atom_site_fract_y
 _atom_site_fract_z
 _atom_site_occupancy
  Dy  Dy0  1  0.290958  0.089101  0.381203  1
  Dy  Dy1  1  0.285020  0.915440  0.878598  1
  Dy  Dy2  1  0.714980  0.084560  0.878598  1
  Dy  Dy3  1  0.709042  0.910899  0.381203  1
  Dy  Dy4  1  0.584883  0.785011  0.878468  1
  Dy  Dy5  1  0.589124  0.207903  0.380904  1
  Dy  Dy6  1  0.410876  0.792097  0.380904  1
  Dy  Dy7  1  0.415117  0.214989  0.878468  1
  Dy  Dy8  1  0.207903  0.410876  0.619096  1
  Dy  Dy9  1  0.214989  0.584883  0.121532  1
  Dy  Dy10  1  0.785011  0.415117  0.121532  1
  Dy  Dy11  1  0.792097  0.589124  0.619096  1
  Dy  Dy12  1  0.915440  0.714980  0.121402  1
  Dy  Dy13  1  0.910899  0.290958  0.618797  1
  Dy  Dy14  1  0.089101  0.709042  0.618797  1
  Dy  Dy15  1  0.084560  0.285020  0.121402  1
  Dy  Dy16  1  0.500000  0.500000  0.500000  1
  Ho  Ho17  1  0.000000  0.000000  0.500000  1
  Mg  Mg18  1  0.000000  0.000000  0.000000  1
  Mg  Mg19  1  0.500000  0.500000  0.000000  1
  Ir  Ir20  1  0.846285  0.153140  0.250384  1
  Ir  Ir21  1  0.846860  0.846285  0.749616  1
  Ir  Ir22  1  0.153140  0.153715  0.749616  1
  Ir  Ir23  1  0.153715  0.846860  0.250384  1
  Ir  Ir24  1  0.655009  0.346466  0.748380  1
  Ir  Ir25  1  0.653534  0.655009  0.251620  1
  Ir  Ir26  1  0.346466  0.344991  0.251620  1
  Ir  Ir27  1  0.344991  0.653534  0.748380  1
  Ir  Ir28  1  0.500000  0.000000  0.119609  1
  Ir  Ir29  1  0.500000  0.000000  0.627975  1
  Ir  Ir30  1  0.000000  0.500000  0.880391  1
  Ir  Ir31  1  0.000000  0.500000  0.372025  1
