# generated using pymatgen
data_HoTh2(AlCu)3
_symmetry_space_group_name_H-M   'P 1'
_cell_length_a   7.02194809
_cell_length_b   6.98346243
_cell_length_c   4.20287600
_cell_angle_alpha   90.00000000
_cell_angle_beta   90.00000000
_cell_angle_gamma   119.81886429
_symmetry_Int_Tables_number   1
_chemical_formula_structural   HoTh2(AlCu)3
_chemical_formula_sum   'Ho1 Th2 Al3 Cu3'
_cell_volume   178.81149225
_cell_formula_units_Z   1
loop_
 _symmetry_equiv_pos_site_id
 _symmetry_equiv_pos_as_xyz
  1  'x, y, z'
loop_
 _atom_site_type_symbol
 _atom_site_label
 _atom_site_symmetry_multiplicity
 _atom_site_fract_x
 _atom_site_fract_y
 _atom_site_fract_z
 _atom_site_occupancy
  Ho  Ho0  1  0.000000  0.583132  0.500000  1
  Th  Th1  1  0.421123  0.419130  0.500000  1
  Th  Th2  1  0.578877  0.998007  0.500000  1
  Al  Al3  1  0.767559  0.765710  0.000000  1
  Al  Al4  1  0.232441  0.998152  0.000000  1
  Al  Al5  1  0.000000  0.237830  0.000000  1
  Cu  Cu6  1  0.000000  0.994487  0.500000  1
  Cu  Cu7  1  0.674350  0.338951  0.000000  1
  Cu  Cu8  1  0.325650  0.664602  0.000000  1
