# generated using pymatgen
data_DyHo(Cu2P)4
_symmetry_space_group_name_H-M   'P 1'
_cell_length_a   7.24892891
_cell_length_b   7.24892904
_cell_length_c   3.78793000
_cell_angle_alpha   90.00000000
_cell_angle_beta   90.00000000
_cell_angle_gamma   89.99074432
_symmetry_Int_Tables_number   1
_chemical_formula_structural   DyHo(Cu2P)4
_chemical_formula_sum   'Dy1 Ho1 Cu8 P4'
_cell_volume   199.04424637
_cell_formula_units_Z   1
loop_
 _symmetry_equiv_pos_site_id
 _symmetry_equiv_pos_as_xyz
  1  'x, y, z'
loop_
 _atom_site_type_symbol
 _atom_site_label
 _atom_site_symmetry_multiplicity
 _atom_site_fract_x
 _atom_site_fract_y
 _atom_site_fract_z
 _atom_site_occupancy
  Dy  Dy0  1  0.500000  0.500000  0.500000  1
  Ho  Ho1  1  0.000000  0.000000  0.000000  1
  Cu  Cu2  1  0.664878  0.915288  0.500000  1
  Cu  Cu3  1  0.164515  0.584841  0.000000  1
  Cu  Cu4  1  0.415159  0.835485  0.000000  1
  Cu  Cu5  1  0.915288  0.664878  0.500000  1
  Cu  Cu6  1  0.835485  0.415159  0.000000  1
  Cu  Cu7  1  0.584841  0.164515  0.000000  1
  Cu  Cu8  1  0.084712  0.335122  0.500000  1
  Cu  Cu9  1  0.335122  0.084712  0.500000  1
  P  P10  1  0.286895  0.286895  0.000000  1
  P  P11  1  0.713105  0.713105  0.000000  1
  P  P12  1  0.787709  0.212291  0.500000  1
  P  P13  1  0.212291  0.787709  0.500000  1
