# generated using pymatgen
data_Ba2Ti(IrO3)6
_symmetry_space_group_name_H-M   'P 1'
_cell_length_a   6.91260880
_cell_length_b   7.16451991
_cell_length_c   7.69192702
_cell_angle_alpha   92.67120416
_cell_angle_beta   95.12567936
_cell_angle_gamma   115.51083915
_symmetry_Int_Tables_number   1
_chemical_formula_structural   Ba2Ti(IrO3)6
_chemical_formula_sum   'Ba2 Ti1 Ir6 O18'
_cell_volume   340.89366827
_cell_formula_units_Z   1
loop_
 _symmetry_equiv_pos_site_id
 _symmetry_equiv_pos_as_xyz
  1  'x, y, z'
loop_
 _atom_site_type_symbol
 _atom_site_label
 _atom_site_symmetry_multiplicity
 _atom_site_fract_x
 _atom_site_fract_y
 _atom_site_fract_z
 _atom_site_occupancy
  Ba  Ba0  1  0.314399  0.685036  0.624943  1
  Ba  Ba1  1  0.684661  0.314862  0.375585  1
  Ti  Ti2  1  0.389873  0.264699  0.874873  1
  Ir  Ir3  1  0.812248  0.126034  0.813865  1
  Ir  Ir4  1  0.192860  0.874520  0.183018  1
  Ir  Ir5  1  0.604999  0.719578  0.116744  1
  Ir  Ir6  1  0.995782  0.996038  0.497257  1
  Ir  Ir7  1  0.821416  0.618569  0.806267  1
  Ir  Ir8  1  0.174764  0.378895  0.195384  1
  O  O9  1  0.922719  0.723694  0.582724  1
  O  O10  1  0.285516  0.170487  0.109568  1
  O  O11  1  0.323290  0.515435  0.987927  1
  O  O12  1  0.471069  0.551157  0.308412  1
  O  O13  1  0.490669  0.918739  0.166060  1
  O  O14  1  0.903163  0.399754  0.725425  1
  O  O15  1  0.722416  0.834210  0.888866  1
  O  O16  1  0.909575  0.233524  0.053036  1
  O  O17  1  0.683955  0.495743  0.022495  1
  O  O18  1  0.074826  0.272887  0.419517  1
  O  O19  1  0.099701  0.135139  0.748811  1
  O  O20  1  0.724262  0.995827  0.571866  1
  O  O21  1  0.097611  0.599432  0.276943  1
  O  O22  1  0.902245  0.870560  0.248184  1
  O  O23  1  0.091999  0.765745  0.944154  1
  O  O24  1  0.514329  0.093925  0.834854  1
  O  O25  1  0.268961  0.998300  0.426716  1
  O  O26  1  0.522692  0.447213  0.696508  1
