# generated using pymatgen
data_Rb4Lu3Bi(Sb2Se5)4
_symmetry_space_group_name_H-M   'P 1'
_cell_length_a   4.08976200
_cell_length_b   12.26423706
_cell_length_c   22.12833049
_cell_angle_alpha   90.11440884
_cell_angle_beta   90.00000000
_cell_angle_gamma   90.00000000
_symmetry_Int_Tables_number   1
_chemical_formula_structural   Rb4Lu3Bi(Sb2Se5)4
_chemical_formula_sum   'Rb4 Lu3 Bi1 Sb8 Se20'
_cell_volume   1109.90639867
_cell_formula_units_Z   1
loop_
 _symmetry_equiv_pos_site_id
 _symmetry_equiv_pos_as_xyz
  1  'x, y, z'
loop_
 _atom_site_type_symbol
 _atom_site_label
 _atom_site_symmetry_multiplicity
 _atom_site_fract_x
 _atom_site_fract_y
 _atom_site_fract_z
 _atom_site_occupancy
  Rb  Rb0  1  0.250000  0.488521  0.210126  1
  Rb  Rb1  1  0.750000  0.510922  0.790559  1
  Rb  Rb2  1  0.750000  0.988245  0.288526  1
  Rb  Rb3  1  0.250000  0.009178  0.709811  1
  Lu  Lu4  1  0.250000  0.365251  0.022773  1
  Lu  Lu5  1  0.750000  0.634277  0.976919  1
  Lu  Lu6  1  0.750000  0.862754  0.476577  1
  Bi  Bi7  1  0.250000  0.903409  0.925486  1
  Sb  Sb8  1  0.250000  0.132437  0.523283  1
  Sb  Sb9  1  0.250000  0.805887  0.125795  1
  Sb  Sb10  1  0.750000  0.194790  0.873990  1
  Sb  Sb11  1  0.750000  0.308675  0.374287  1
  Sb  Sb12  1  0.250000  0.691173  0.626430  1
  Sb  Sb13  1  0.250000  0.596057  0.426415  1
  Sb  Sb14  1  0.750000  0.403576  0.573025  1
  Sb  Sb15  1  0.750000  0.098512  0.074730  1
  Se  Se16  1  0.250000  0.808983  0.391448  1
  Se  Se17  1  0.750000  0.197367  0.612798  1
  Se  Se18  1  0.750000  0.309055  0.108490  1
  Se  Se19  1  0.250000  0.684958  0.891402  1
  Se  Se20  1  0.250000  0.250424  0.298176  1
  Se  Se21  1  0.750000  0.748710  0.702303  1
  Se  Se22  1  0.750000  0.749915  0.201967  1
  Se  Se23  1  0.250000  0.250449  0.797822  1
  Se  Se24  1  0.250000  0.362061  0.480878  1
  Se  Se25  1  0.750000  0.645477  0.517420  1
  Se  Se26  1  0.750000  0.852516  0.019811  1
  Se  Se27  1  0.250000  0.146081  0.982206  1
  Se  Se28  1  0.250000  0.025534  0.157564  1
  Se  Se29  1  0.750000  0.978655  0.839556  1
  Se  Se30  1  0.750000  0.525306  0.341918  1
  Se  Se31  1  0.250000  0.476470  0.658354  1
  Se  Se32  1  0.250000  0.582254  0.059764  1
  Se  Se33  1  0.750000  0.416466  0.940908  1
  Se  Se34  1  0.750000  0.079912  0.438303  1
  Se  Se35  1  0.250000  0.915742  0.560180  1
