# generated using pymatgen
data_Hf4CrSb2
_symmetry_space_group_name_H-M   'P 1'
_cell_length_a   8.13644337
_cell_length_b   8.13644386
_cell_length_c   8.13644423
_cell_angle_alpha   96.22025786
_cell_angle_beta   96.22024532
_cell_angle_gamma   141.56359119
_symmetry_Int_Tables_number   1
_chemical_formula_structural   Hf4CrSb2
_chemical_formula_sum   'Hf8 Cr2 Sb4'
_cell_volume   316.18685658
_cell_formula_units_Z   2
loop_
 _symmetry_equiv_pos_site_id
 _symmetry_equiv_pos_as_xyz
  1  'x, y, z'
loop_
 _atom_site_type_symbol
 _atom_site_label
 _atom_site_symmetry_multiplicity
 _atom_site_fract_x
 _atom_site_fract_y
 _atom_site_fract_z
 _atom_site_occupancy
  Hf  Hf0  1  0.081585  0.198155  0.279739  1
  Hf  Hf1  1  0.918415  0.801845  0.720261  1
  Hf  Hf2  1  0.801845  0.081585  0.883430  1
  Hf  Hf3  1  0.418415  0.698155  0.116570  1
  Hf  Hf4  1  0.198155  0.918415  0.116570  1
  Hf  Hf5  1  0.581585  0.301845  0.883430  1
  Hf  Hf6  1  0.698155  0.581585  0.279739  1
  Hf  Hf7  1  0.301845  0.418415  0.720261  1
  Cr  Cr8  1  0.250000  0.250000  0.000000  1
  Cr  Cr9  1  0.750000  0.750000  0.000000  1
  Sb  Sb10  1  0.142959  0.642959  0.785916  1
  Sb  Sb11  1  0.857041  0.357041  0.214084  1
  Sb  Sb12  1  0.357041  0.142959  0.500000  1
  Sb  Sb13  1  0.642959  0.857041  0.500000  1
