# generated using pymatgen
data_SmDy6FeBr12
_symmetry_space_group_name_H-M   'P 1'
_cell_length_a   9.16840050
_cell_length_b   9.24877521
_cell_length_c   9.25139012
_cell_angle_alpha   106.82006089
_cell_angle_beta   106.98220626
_cell_angle_gamma   106.61587536
_symmetry_Int_Tables_number   1
_chemical_formula_structural   SmDy6FeBr12
_chemical_formula_sum   'Sm1 Dy6 Fe1 Br12'
_cell_volume   656.74758179
_cell_formula_units_Z   1
loop_
 _symmetry_equiv_pos_site_id
 _symmetry_equiv_pos_as_xyz
  1  'x, y, z'
loop_
 _atom_site_type_symbol
 _atom_site_label
 _atom_site_symmetry_multiplicity
 _atom_site_fract_x
 _atom_site_fract_y
 _atom_site_fract_z
 _atom_site_occupancy
  Sm  Sm0  1  0.702099  0.979097  0.905083  1
  Dy  Dy1  1  0.977996  0.902268  0.694690  1
  Dy  Dy2  1  0.501152  0.498840  0.499939  1
  Dy  Dy3  1  0.098580  0.305674  0.022300  1
  Dy  Dy4  1  0.291147  0.021094  0.093260  1
  Dy  Dy5  1  0.903785  0.695803  0.978767  1
  Dy  Dy6  1  0.021029  0.098284  0.305889  1
  Fe  Fe7  1  0.997734  0.000131  0.999311  1
  Br  Br8  1  0.071620  0.223141  0.679687  1
  Br  Br9  1  0.384941  0.165827  0.458903  1
  Br  Br10  1  0.614122  0.829205  0.533934  1
  Br  Br11  1  0.224967  0.682512  0.072000  1
  Br  Br12  1  0.780538  0.325667  0.929870  1
  Br  Br13  1  0.681361  0.072494  0.228642  1
  Br  Br14  1  0.538635  0.609920  0.831676  1
  Br  Br15  1  0.835568  0.538265  0.614254  1
  Br  Br16  1  0.930272  0.777401  0.321062  1
  Br  Br17  1  0.316157  0.929055  0.777646  1
  Br  Br18  1  0.460971  0.383040  0.166724  1
  Br  Br19  1  0.167325  0.462282  0.386363  1
