# generated using pymatgen
data_Ho5Er3Ga3Fe
_symmetry_space_group_name_H-M   'P 1'
_cell_length_a   9.93209600
_cell_length_b   9.93209598
_cell_length_c   6.90757900
_cell_angle_alpha   90.00000000
_cell_angle_beta   90.00000000
_cell_angle_gamma   119.99999341
_symmetry_Int_Tables_number   1
_chemical_formula_structural   Ho5Er3Ga3Fe
_chemical_formula_sum   'Ho10 Er6 Ga6 Fe2'
_cell_volume   590.11728725
_cell_formula_units_Z   2
loop_
 _symmetry_equiv_pos_site_id
 _symmetry_equiv_pos_as_xyz
  1  'x, y, z'
loop_
 _atom_site_type_symbol
 _atom_site_label
 _atom_site_symmetry_multiplicity
 _atom_site_fract_x
 _atom_site_fract_y
 _atom_site_fract_z
 _atom_site_occupancy
  Ho  Ho0  1  0.333333  0.666667  0.828083  1
  Ho  Ho1  1  0.666667  0.333333  0.328083  1
  Ho  Ho2  1  0.463236  0.536764  0.207287  1
  Ho  Ho3  1  0.073528  0.536764  0.207287  1
  Ho  Ho4  1  0.463236  0.926472  0.207287  1
  Ho  Ho5  1  0.536764  0.463236  0.707287  1
  Ho  Ho6  1  0.926472  0.463236  0.707287  1
  Ho  Ho7  1  0.536764  0.073528  0.707287  1
  Ho  Ho8  1  0.000000  0.000000  0.231602  1
  Ho  Ho9  1  0.000000  0.000000  0.731602  1
  Er  Er10  1  0.172948  0.827052  0.510792  1
  Er  Er11  1  0.654103  0.827052  0.510792  1
  Er  Er12  1  0.172948  0.345897  0.510792  1
  Er  Er13  1  0.827052  0.172948  0.010792  1
  Er  Er14  1  0.345897  0.172948  0.010792  1
  Er  Er15  1  0.827052  0.654103  0.010792  1
  Ga  Ga16  1  0.163416  0.836584  0.959293  1
  Ga  Ga17  1  0.673170  0.836584  0.959293  1
  Ga  Ga18  1  0.163416  0.326830  0.959293  1
  Ga  Ga19  1  0.836584  0.163416  0.459293  1
  Ga  Ga20  1  0.326830  0.163416  0.459293  1
  Ga  Ga21  1  0.836584  0.673170  0.459293  1
  Fe  Fe22  1  0.333333  0.666667  0.445618  1
  Fe  Fe23  1  0.666667  0.333333  0.945618  1
