# generated using pymatgen
data_Pr6Y2Sc11Si16Au
_symmetry_space_group_name_H-M   'P 1'
_cell_length_a   7.15380960
_cell_length_b   7.53816037
_cell_length_c   14.25825527
_cell_angle_alpha   89.98161717
_cell_angle_beta   90.07589713
_cell_angle_gamma   90.26945247
_symmetry_Int_Tables_number   1
_chemical_formula_structural   Pr6Y2Sc11Si16Au
_chemical_formula_sum   'Pr6 Y2 Sc11 Si16 Au1'
_cell_volume   768.88949961
_cell_formula_units_Z   1
loop_
 _symmetry_equiv_pos_site_id
 _symmetry_equiv_pos_as_xyz
  1  'x, y, z'
loop_
 _atom_site_type_symbol
 _atom_site_label
 _atom_site_symmetry_multiplicity
 _atom_site_fract_x
 _atom_site_fract_y
 _atom_site_fract_z
 _atom_site_occupancy
  Pr  Pr0  1  0.493762  0.681530  0.898284  1
  Pr  Pr1  1  0.491482  0.682935  0.598620  1
  Pr  Pr2  1  0.978908  0.827689  0.599824  1
  Pr  Pr3  1  0.980562  0.828370  0.897069  1
  Pr  Pr4  1  0.510641  0.329908  0.098835  1
  Pr  Pr5  1  0.012306  0.173572  0.098794  1
  Y  Y6  1  0.010886  0.176449  0.400984  1
  Y  Y7  1  0.511604  0.326568  0.400441  1
  Sc  Sc8  1  0.334272  0.173463  0.623326  1
  Sc  Sc9  1  0.671526  0.821678  0.374357  1
  Sc  Sc10  1  0.171141  0.676880  0.376466  1
  Sc  Sc11  1  0.827258  0.313435  0.875030  1
  Sc  Sc12  1  0.828011  0.312426  0.624273  1
  Sc  Sc13  1  0.841344  0.500059  0.251994  1
  Sc  Sc14  1  0.340522  0.000475  0.251710  1
  Sc  Sc15  1  0.334790  0.171914  0.875448  1
  Sc  Sc16  1  0.172033  0.676460  0.126724  1
  Sc  Sc17  1  0.672654  0.821986  0.128841  1
  Sc  Sc18  1  0.159555  0.494170  0.749420  1
  Si  Si19  1  0.281198  0.882840  0.748550  1
  Si  Si20  1  0.468280  0.618863  0.252709  1
  Si  Si21  1  0.044077  0.123615  0.749183  1
  Si  Si22  1  0.531931  0.383634  0.748744  1
  Si  Si23  1  0.153019  0.461044  0.537936  1
  Si  Si24  1  0.968640  0.877947  0.252702  1
  Si  Si25  1  0.712352  0.122092  0.253581  1
  Si  Si26  1  0.850094  0.537786  0.037859  1
  Si  Si27  1  0.348890  0.961613  0.039998  1
  Si  Si28  1  0.153833  0.465783  0.960059  1
  Si  Si29  1  0.655055  0.047020  0.526353  1
  Si  Si30  1  0.344706  0.970225  0.457835  1
  Si  Si31  1  0.846265  0.529840  0.459746  1
  Si  Si32  1  0.792706  0.590838  0.748764  1
  Si  Si33  1  0.212171  0.380043  0.254171  1
  Si  Si34  1  0.654170  0.041055  0.971120  1
  Au  Au35  1  0.639354  0.015800  0.750250  1
