# generated using pymatgen
data_NaHo2CuS4
_symmetry_space_group_name_H-M   'P 1'
_cell_length_a   6.77503289
_cell_length_b   3.90443349
_cell_length_c   13.62061500
_cell_angle_alpha   90.00000000
_cell_angle_beta   90.00000000
_cell_angle_gamma   106.74715630
_symmetry_Int_Tables_number   1
_chemical_formula_structural   NaHo2CuS4
_chemical_formula_sum   'Na2 Ho4 Cu2 S8'
_cell_volume   345.01961748
_cell_formula_units_Z   2
loop_
 _symmetry_equiv_pos_site_id
 _symmetry_equiv_pos_as_xyz
  1  'x, y, z'
loop_
 _atom_site_type_symbol
 _atom_site_label
 _atom_site_symmetry_multiplicity
 _atom_site_fract_x
 _atom_site_fract_y
 _atom_site_fract_z
 _atom_site_occupancy
  Na  Na0  1  0.223585  0.111792  0.250000  1
  Na  Na1  1  0.776416  0.888209  0.750000  1
  Ho  Ho2  1  0.731234  0.365617  0.065868  1
  Ho  Ho3  1  0.731234  0.365617  0.434132  1
  Ho  Ho4  1  0.268766  0.634384  0.565868  1
  Ho  Ho5  1  0.268766  0.634384  0.934132  1
  Cu  Cu6  1  0.681020  0.840511  0.250000  1
  Cu  Cu7  1  0.318979  0.159490  0.750000  1
  S  S8  1  0.000000  0.000000  0.000000  1
  S  S9  1  0.462459  0.731230  0.114600  1
  S  S10  1  0.885826  0.442913  0.250000  1
  S  S11  1  0.462459  0.731230  0.385401  1
  S  S12  1  0.000000  0.000000  0.500000  1
  S  S13  1  0.537541  0.268771  0.614599  1
  S  S14  1  0.114175  0.557089  0.750000  1
  S  S15  1  0.537541  0.268771  0.885400  1
