# generated using pymatgen
data_Li4HgO4
_symmetry_space_group_name_H-M   'P 1'
_cell_length_a   5.69103628
_cell_length_b   5.69103554
_cell_length_c   5.69103581
_cell_angle_alpha   95.47082175
_cell_angle_beta   95.47081816
_cell_angle_gamma   144.02979320
_symmetry_Int_Tables_number   1
_chemical_formula_structural   Li4HgO4
_chemical_formula_sum   'Li4 Hg1 O4'
_cell_volume   102.97329933
_cell_formula_units_Z   1
loop_
 _symmetry_equiv_pos_site_id
 _symmetry_equiv_pos_as_xyz
  1  'x, y, z'
loop_
 _atom_site_type_symbol
 _atom_site_label
 _atom_site_symmetry_multiplicity
 _atom_site_fract_x
 _atom_site_fract_y
 _atom_site_fract_z
 _atom_site_occupancy
  Li  Li0  1  0.663636  0.162422  0.826058  1
  Li  Li1  1  0.162422  0.336364  0.498786  1
  Li  Li2  1  0.837578  0.663636  0.501214  1
  Li  Li3  1  0.336364  0.837578  0.173942  1
  Hg  Hg4  1  0.000000  0.000000  0.000000  1
  O  O5  1  0.254419  0.082525  0.336944  1
  O  O6  1  0.082525  0.745581  0.828106  1
  O  O7  1  0.917475  0.254419  0.171894  1
  O  O8  1  0.745581  0.917475  0.663056  1
