# generated using pymatgen
data_Sc8Ga3Ir
_symmetry_space_group_name_H-M   'P 1'
_cell_length_a   9.47355400
_cell_length_b   9.47355226
_cell_length_c   6.39766900
_cell_angle_alpha   90.00000000
_cell_angle_beta   90.00000000
_cell_angle_gamma   119.99999908
_symmetry_Int_Tables_number   1
_chemical_formula_structural   Sc8Ga3Ir
_chemical_formula_sum   'Sc16 Ga6 Ir2'
_cell_volume   497.25389428
_cell_formula_units_Z   2
loop_
 _symmetry_equiv_pos_site_id
 _symmetry_equiv_pos_as_xyz
  1  'x, y, z'
loop_
 _atom_site_type_symbol
 _atom_site_label
 _atom_site_symmetry_multiplicity
 _atom_site_fract_x
 _atom_site_fract_y
 _atom_site_fract_z
 _atom_site_occupancy
  Sc  Sc0  1  0.829009  0.658021  0.500444  1
  Sc  Sc1  1  0.341979  0.170991  0.500444  1
  Sc  Sc2  1  0.829009  0.170991  0.500444  1
  Sc  Sc3  1  0.170991  0.341979  0.000444  1
  Sc  Sc4  1  0.658021  0.829009  0.000444  1
  Sc  Sc5  1  0.170991  0.829009  0.000444  1
  Sc  Sc6  1  0.666667  0.333333  0.150053  1
  Sc  Sc7  1  0.333333  0.666667  0.650053  1
  Sc  Sc8  1  0.527619  0.055237  0.790154  1
  Sc  Sc9  1  0.944763  0.472381  0.790154  1
  Sc  Sc10  1  0.527619  0.472381  0.790154  1
  Sc  Sc11  1  0.472381  0.944763  0.290154  1
  Sc  Sc12  1  0.055237  0.527619  0.290154  1
  Sc  Sc13  1  0.472381  0.527619  0.290154  1
  Sc  Sc14  1  0.000000  0.000000  0.771059  1
  Sc  Sc15  1  0.000000  0.000000  0.271059  1
  Ga  Ga16  1  0.835829  0.671660  0.036770  1
  Ga  Ga17  1  0.328340  0.164171  0.036770  1
  Ga  Ga18  1  0.835829  0.164171  0.036770  1
  Ga  Ga19  1  0.164171  0.328340  0.536770  1
  Ga  Ga20  1  0.671660  0.835829  0.536770  1
  Ga  Ga21  1  0.164171  0.835829  0.536770  1
  Ir  Ir22  1  0.666667  0.333333  0.559816  1
  Ir  Ir23  1  0.333333  0.666667  0.059816  1
