# generated using pymatgen
data_Y8Sc12Si15As
_symmetry_space_group_name_H-M   'P 1'
_cell_length_a   7.14328581
_cell_length_b   7.38142398
_cell_length_c   13.99022246
_cell_angle_alpha   90.06707735
_cell_angle_beta   88.92984533
_cell_angle_gamma   90.15859236
_symmetry_Int_Tables_number   1
_chemical_formula_structural   Y8Sc12Si15As
_chemical_formula_sum   'Y8 Sc12 Si15 As1'
_cell_volume   737.53919519
_cell_formula_units_Z   1
loop_
 _symmetry_equiv_pos_site_id
 _symmetry_equiv_pos_as_xyz
  1  'x, y, z'
loop_
 _atom_site_type_symbol
 _atom_site_label
 _atom_site_symmetry_multiplicity
 _atom_site_fract_x
 _atom_site_fract_y
 _atom_site_fract_z
 _atom_site_occupancy
  Y  Y0  1  0.012510  0.175838  0.097278  1
  Y  Y1  1  0.988064  0.824697  0.902461  1
  Y  Y2  1  0.488085  0.675394  0.902657  1
  Y  Y3  1  0.992174  0.822323  0.595836  1
  Y  Y4  1  0.512381  0.325143  0.097397  1
  Y  Y5  1  0.006392  0.177682  0.403778  1
  Y  Y6  1  0.505337  0.322125  0.402203  1
  Y  Y7  1  0.499167  0.676729  0.597531  1
  Sc  Sc8  1  0.163862  0.500664  0.749908  1
  Sc  Sc9  1  0.836002  0.499223  0.252758  1
  Sc  Sc10  1  0.336295  0.000460  0.251117  1
  Sc  Sc11  1  0.663844  0.999349  0.749276  1
  Sc  Sc12  1  0.339019  0.171540  0.626735  1
  Sc  Sc13  1  0.662016  0.826916  0.373690  1
  Sc  Sc14  1  0.159439  0.672857  0.376939  1
  Sc  Sc15  1  0.668819  0.823399  0.125575  1
  Sc  Sc16  1  0.837571  0.328123  0.622825  1
  Sc  Sc17  1  0.330834  0.176149  0.874015  1
  Sc  Sc18  1  0.831872  0.323025  0.874504  1
  Sc  Sc19  1  0.168294  0.677015  0.125092  1
  Si  Si20  1  0.035268  0.117432  0.749249  1
  Si  Si21  1  0.964472  0.882899  0.249731  1
  Si  Si22  1  0.460795  0.617896  0.249004  1
  Si  Si23  1  0.538176  0.382489  0.750709  1
  Si  Si24  1  0.287773  0.871801  0.750043  1
  Si  Si25  1  0.713123  0.126697  0.249361  1
  Si  Si26  1  0.211317  0.374655  0.249926  1
  Si  Si27  1  0.790085  0.626080  0.750213  1
  Si  Si28  1  0.814470  0.539994  0.457075  1
  Si  Si29  1  0.334461  0.962561  0.460683  1
  Si  Si30  1  0.843953  0.535499  0.039521  1
  Si  Si31  1  0.665408  0.037397  0.540006  1
  Si  Si32  1  0.155757  0.465073  0.960151  1
  Si  Si33  1  0.655360  0.034951  0.959733  1
  Si  Si34  1  0.344641  0.965651  0.040144  1
  As  As35  1  0.182962  0.460276  0.542876  1
