# generated using pymatgen
data_BaSrBe6O8
_symmetry_space_group_name_H-M   'P 1'
_cell_length_a   4.65925800
_cell_length_b   4.65925818
_cell_length_c   9.14828100
_cell_angle_alpha   90.00000000
_cell_angle_beta   90.00000000
_cell_angle_gamma   119.99999871
_symmetry_Int_Tables_number   1
_chemical_formula_structural   BaSrBe6O8
_chemical_formula_sum   'Ba1 Sr1 Be6 O8'
_cell_volume   171.99018726
_cell_formula_units_Z   1
loop_
 _symmetry_equiv_pos_site_id
 _symmetry_equiv_pos_as_xyz
  1  'x, y, z'
loop_
 _atom_site_type_symbol
 _atom_site_label
 _atom_site_symmetry_multiplicity
 _atom_site_fract_x
 _atom_site_fract_y
 _atom_site_fract_z
 _atom_site_occupancy
  Ba  Ba0  1  0.666667  0.333333  0.750000  1
  Sr  Sr1  1  0.333333  0.666667  0.250000  1
  Be  Be2  1  0.000000  0.000000  0.006601  1
  Be  Be3  1  0.000000  0.000000  0.493399  1
  Be  Be4  1  0.333333  0.666667  0.566354  1
  Be  Be5  1  0.333333  0.666667  0.933646  1
  Be  Be6  1  0.666667  0.333333  0.424756  1
  Be  Be7  1  0.666667  0.333333  0.075244  1
  O  O8  1  0.665112  0.996259  0.493668  1
  O  O9  1  0.331147  0.334888  0.006332  1
  O  O10  1  0.666667  0.333333  0.250000  1
  O  O11  1  0.333333  0.666667  0.750000  1
  O  O12  1  0.665112  0.996259  0.006332  1
  O  O13  1  0.331147  0.334888  0.493668  1
  O  O14  1  0.003741  0.668853  0.493668  1
  O  O15  1  0.003741  0.668853  0.006332  1
