# generated using pymatgen
data_Tb2Al5Ga
_symmetry_space_group_name_H-M   'P 1'
_cell_length_a   6.37843600
_cell_length_b   6.39364717
_cell_length_c   4.47807600
_cell_angle_alpha   90.00000000
_cell_angle_beta   90.00000000
_cell_angle_gamma   119.92133093
_symmetry_Int_Tables_number   1
_chemical_formula_structural   Tb2Al5Ga
_chemical_formula_sum   'Tb2 Al5 Ga1'
_cell_volume   158.28096499
_cell_formula_units_Z   1
loop_
 _symmetry_equiv_pos_site_id
 _symmetry_equiv_pos_as_xyz
  1  'x, y, z'
loop_
 _atom_site_type_symbol
 _atom_site_label
 _atom_site_symmetry_multiplicity
 _atom_site_fract_x
 _atom_site_fract_y
 _atom_site_fract_z
 _atom_site_occupancy
  Tb  Tb0  1  0.667233  0.334464  0.250000  1
  Tb  Tb1  1  0.332522  0.665045  0.750000  1
  Al  Al2  1  0.851998  0.143939  0.750000  1
  Al  Al3  1  0.291941  0.143939  0.750000  1
  Al  Al4  1  0.853251  0.706501  0.750000  1
  Al  Al5  1  0.146829  0.855304  0.250000  1
  Al  Al6  1  0.708474  0.855304  0.250000  1
  Ga  Ga7  1  0.147752  0.295504  0.250000  1
