# generated using pymatgen
data_TbCeScAlIr2
_symmetry_space_group_name_H-M   'P 1'
_cell_length_a   6.97420800
_cell_length_b   4.35339000
_cell_length_c   8.24575300
_cell_angle_alpha   90.00000000
_cell_angle_beta   90.00000000
_cell_angle_gamma   90.00000000
_symmetry_Int_Tables_number   1
_chemical_formula_structural   TbCeScAlIr2
_chemical_formula_sum   'Tb2 Ce2 Sc2 Al2 Ir4'
_cell_volume   250.35299570
_cell_formula_units_Z   2
loop_
 _symmetry_equiv_pos_site_id
 _symmetry_equiv_pos_as_xyz
  1  'x, y, z'
loop_
 _atom_site_type_symbol
 _atom_site_label
 _atom_site_symmetry_multiplicity
 _atom_site_fract_x
 _atom_site_fract_y
 _atom_site_fract_z
 _atom_site_occupancy
  Tb  Tb0  1  0.030165  0.750000  0.821805  1
  Tb  Tb1  1  0.530165  0.750000  0.678195  1
  Ce  Ce2  1  0.962221  0.250000  0.180382  1
  Ce  Ce3  1  0.462221  0.250000  0.319618  1
  Sc  Sc4  1  0.868538  0.250000  0.563932  1
  Sc  Sc5  1  0.368538  0.250000  0.936068  1
  Al  Al6  1  0.137681  0.750000  0.441200  1
  Al  Al7  1  0.637681  0.750000  0.058800  1
  Ir  Ir8  1  0.745370  0.250000  0.893494  1
  Ir  Ir9  1  0.245370  0.250000  0.606506  1
  Ir  Ir10  1  0.256025  0.750000  0.123606  1
  Ir  Ir11  1  0.756025  0.750000  0.376394  1
