# generated using pymatgen
data_Ba6La(IrO6)2
_symmetry_space_group_name_H-M   'P 1'
_cell_length_a   9.44338328
_cell_length_b   9.44338208
_cell_length_c   7.44268971
_cell_angle_alpha   67.78560603
_cell_angle_beta   67.78560852
_cell_angle_gamma   36.70470302
_symmetry_Int_Tables_number   1
_chemical_formula_structural   Ba6La(IrO6)2
_chemical_formula_sum   'Ba6 La1 Ir2 O12'
_cell_volume   363.86904691
_cell_formula_units_Z   1
loop_
 _symmetry_equiv_pos_site_id
 _symmetry_equiv_pos_as_xyz
  1  'x, y, z'
loop_
 _atom_site_type_symbol
 _atom_site_label
 _atom_site_symmetry_multiplicity
 _atom_site_fract_x
 _atom_site_fract_y
 _atom_site_fract_z
 _atom_site_occupancy
  Ba  Ba0  1  0.877434  0.877434  0.715651  1
  Ba  Ba1  1  0.217780  0.217780  0.705837  1
  Ba  Ba2  1  0.550505  0.550505  0.700585  1
  Ba  Ba3  1  0.449495  0.449495  0.299415  1
  Ba  Ba4  1  0.782220  0.782220  0.294163  1
  Ba  Ba5  1  0.122566  0.122566  0.284349  1
  La  La6  1  0.000000  0.000000  0.000000  1
  Ir  Ir7  1  0.672463  0.672463  0.999551  1
  Ir  Ir8  1  0.327537  0.327537  0.000449  1
  O  O9  1  0.938288  0.938288  0.344382  1
  O  O10  1  0.280661  0.280661  0.305919  1
  O  O11  1  0.619353  0.619353  0.304689  1
  O  O12  1  0.380647  0.380647  0.695311  1
  O  O13  1  0.719339  0.719339  0.694081  1
  O  O14  1  0.061712  0.061712  0.655618  1
  O  O15  1  0.500000  0.000000  0.000000  1
  O  O16  1  0.820703  0.365992  0.998628  1
  O  O17  1  0.179297  0.634008  0.001372  1
  O  O18  1  0.000000  0.500000  0.000000  1
  O  O19  1  0.365992  0.820703  0.998628  1
  O  O20  1  0.634008  0.179297  0.001372  1
