# generated using pymatgen
data_Hf3GaPd2N
_symmetry_space_group_name_H-M   'P 1'
_cell_length_a   8.56163576
_cell_length_b   8.56163574
_cell_length_c   8.56163600
_cell_angle_alpha   59.99999900
_cell_angle_beta   59.99999908
_cell_angle_gamma   59.99999484
_symmetry_Int_Tables_number   1
_chemical_formula_structural   Hf3GaPd2N
_chemical_formula_sum   'Hf12 Ga4 Pd8 N4'
_cell_volume   443.76723452
_cell_formula_units_Z   4
loop_
 _symmetry_equiv_pos_site_id
 _symmetry_equiv_pos_as_xyz
  1  'x, y, z'
loop_
 _atom_site_type_symbol
 _atom_site_label
 _atom_site_symmetry_multiplicity
 _atom_site_fract_x
 _atom_site_fract_y
 _atom_site_fract_z
 _atom_site_occupancy
  Hf  Hf0  1  0.811947  0.811947  0.188053  1
  Hf  Hf1  1  0.188053  0.188053  0.811947  1
  Hf  Hf2  1  0.811947  0.188053  0.811947  1
  Hf  Hf3  1  0.188053  0.811947  0.188053  1
  Hf  Hf4  1  0.188053  0.811947  0.811947  1
  Hf  Hf5  1  0.811947  0.188053  0.188053  1
  Hf  Hf6  1  0.438053  0.438053  0.061947  1
  Hf  Hf7  1  0.061947  0.061947  0.438053  1
  Hf  Hf8  1  0.438053  0.061947  0.438053  1
  Hf  Hf9  1  0.061947  0.438053  0.061947  1
  Hf  Hf10  1  0.061947  0.438053  0.438053  1
  Hf  Hf11  1  0.438053  0.061947  0.061947  1
  Ga  Ga12  1  0.125000  0.625000  0.625000  1
  Ga  Ga13  1  0.625000  0.125000  0.625000  1
  Ga  Ga14  1  0.625000  0.625000  0.125000  1
  Ga  Ga15  1  0.625000  0.625000  0.625000  1
  Pd  Pd16  1  0.765803  0.411399  0.411399  1
  Pd  Pd17  1  0.411399  0.765803  0.411399  1
  Pd  Pd18  1  0.411399  0.411399  0.765803  1
  Pd  Pd19  1  0.411399  0.411399  0.411399  1
  Pd  Pd20  1  0.484197  0.838601  0.838601  1
  Pd  Pd21  1  0.838601  0.484197  0.838601  1
  Pd  Pd22  1  0.838601  0.838601  0.484197  1
  Pd  Pd23  1  0.838601  0.838601  0.838601  1
  N  N24  1  0.625000  0.125000  0.125000  1
  N  N25  1  0.125000  0.625000  0.125000  1
  N  N26  1  0.125000  0.125000  0.625000  1
  N  N27  1  0.125000  0.125000  0.125000  1
