# generated using pymatgen
data_Ba3TaP3O
_symmetry_space_group_name_H-M   'P 1'
_cell_length_a   6.68044000
_cell_length_b   11.00954900
_cell_length_c   13.42200700
_cell_angle_alpha   90.00000000
_cell_angle_beta   90.00000000
_cell_angle_gamma   90.00000000
_symmetry_Int_Tables_number   1
_chemical_formula_structural   Ba3TaP3O
_chemical_formula_sum   'Ba12 Ta4 P12 O4'
_cell_volume   987.17024712
_cell_formula_units_Z   4
loop_
 _symmetry_equiv_pos_site_id
 _symmetry_equiv_pos_as_xyz
  1  'x, y, z'
loop_
 _atom_site_type_symbol
 _atom_site_label
 _atom_site_symmetry_multiplicity
 _atom_site_fract_x
 _atom_site_fract_y
 _atom_site_fract_z
 _atom_site_occupancy
  Ba  Ba0  1  0.245861  0.043310  0.132183  1
  Ba  Ba1  1  0.254139  0.543310  0.632183  1
  Ba  Ba2  1  0.245861  0.456690  0.132183  1
  Ba  Ba3  1  0.745861  0.043310  0.367817  1
  Ba  Ba4  1  0.754139  0.956690  0.867817  1
  Ba  Ba5  1  0.745861  0.456690  0.367817  1
  Ba  Ba6  1  0.754139  0.543310  0.867817  1
  Ba  Ba7  1  0.254139  0.956690  0.632183  1
  Ba  Ba8  1  0.275367  0.250000  0.870151  1
  Ba  Ba9  1  0.775367  0.250000  0.629849  1
  Ba  Ba10  1  0.724633  0.750000  0.129849  1
  Ba  Ba11  1  0.224633  0.750000  0.370150  1
  Ta  Ta12  1  0.666110  0.750000  0.545351  1
  Ta  Ta13  1  0.333890  0.250000  0.454649  1
  Ta  Ta14  1  0.166110  0.750000  0.954649  1
  Ta  Ta15  1  0.833890  0.250000  0.045351  1
  P  P16  1  0.273801  0.250000  0.630786  1
  P  P17  1  0.773801  0.250000  0.869214  1
  P  P18  1  0.726199  0.750000  0.369214  1
  P  P19  1  0.226199  0.750000  0.130786  1
  P  P20  1  0.737294  0.441451  0.116290  1
  P  P21  1  0.237294  0.441451  0.383710  1
  P  P22  1  0.262706  0.941451  0.883710  1
  P  P23  1  0.762706  0.558549  0.616290  1
  P  P24  1  0.262706  0.558549  0.883710  1
  P  P25  1  0.762706  0.941451  0.616290  1
  P  P26  1  0.737294  0.058549  0.116290  1
  P  P27  1  0.237294  0.058549  0.383710  1
  O  O28  1  0.115988  0.250000  0.053388  1
  O  O29  1  0.615988  0.250000  0.446612  1
  O  O30  1  0.884012  0.750000  0.946612  1
  O  O31  1  0.384012  0.750000  0.553388  1
