# generated using pymatgen
data_Er5In2PbS
_symmetry_space_group_name_H-M   'P 1'
_cell_length_a   9.03037600
_cell_length_b   9.03037590
_cell_length_c   6.67282100
_cell_angle_alpha   90.00000000
_cell_angle_beta   90.00000000
_cell_angle_gamma   119.93530799
_symmetry_Int_Tables_number   1
_chemical_formula_structural   Er5In2PbS
_chemical_formula_sum   'Er10 In4 Pb2 S2'
_cell_volume   471.55733850
_cell_formula_units_Z   2
loop_
 _symmetry_equiv_pos_site_id
 _symmetry_equiv_pos_as_xyz
  1  'x, y, z'
loop_
 _atom_site_type_symbol
 _atom_site_label
 _atom_site_symmetry_multiplicity
 _atom_site_fract_x
 _atom_site_fract_y
 _atom_site_fract_z
 _atom_site_occupancy
  Er  Er0  1  0.756134  0.760099  0.250000  1
  Er  Er1  1  0.997460  0.755208  0.750000  1
  Er  Er2  1  0.757690  0.001123  0.750000  1
  Er  Er3  1  0.335252  0.664748  0.500000  1
  Er  Er4  1  0.239901  0.243866  0.750000  1
  Er  Er5  1  0.998877  0.242310  0.250000  1
  Er  Er6  1  0.667156  0.332844  0.500000  1
  Er  Er7  1  0.244792  0.002540  0.250000  1
  Er  Er8  1  0.335252  0.664748  0.000000  1
  Er  Er9  1  0.667156  0.332844  0.000000  1
  In  In10  1  0.599249  0.000526  0.250000  1
  In  In11  1  0.999474  0.400751  0.750000  1
  In  In12  1  0.402526  0.401915  0.250000  1
  In  In13  1  0.598085  0.597474  0.750000  1
  Pb  Pb14  1  0.398536  0.999037  0.750000  1
  Pb  Pb15  1  0.000963  0.601464  0.250000  1
  S  S16  1  0.000748  0.999252  0.500000  1
  S  S17  1  0.000748  0.999252  0.000000  1
