# generated using pymatgen
data_CaGd3H10
_symmetry_space_group_name_H-M   'P 1'
_cell_length_a   6.46008211
_cell_length_b   6.46008315
_cell_length_c   6.46008276
_cell_angle_alpha   132.16509457
_cell_angle_beta   131.46622880
_cell_angle_gamma   70.52183519
_symmetry_Int_Tables_number   1
_chemical_formula_structural   CaGd3H10
_chemical_formula_sum   'Ca1 Gd3 H10'
_cell_volume   146.71721757
_cell_formula_units_Z   1
loop_
 _symmetry_equiv_pos_site_id
 _symmetry_equiv_pos_as_xyz
  1  'x, y, z'
loop_
 _atom_site_type_symbol
 _atom_site_label
 _atom_site_symmetry_multiplicity
 _atom_site_fract_x
 _atom_site_fract_y
 _atom_site_fract_z
 _atom_site_occupancy
  Ca  Ca0  1  0.506937  0.006937  0.500000  1
  Gd  Gd1  1  0.239514  0.239514  0.000000  1
  Gd  Gd2  1  0.990744  0.490744  0.500000  1
  Gd  Gd3  1  0.758529  0.758529  0.000000  1
  H  H4  1  0.602502  0.617476  0.474717  1
  H  H5  1  0.142758  0.127785  0.525283  1
  H  H6  1  0.602502  0.127785  0.985027  1
  H  H7  1  0.142758  0.617476  0.014973  1
  H  H8  1  0.372575  0.405893  0.523966  1
  H  H9  1  0.881929  0.848609  0.476034  1
  H  H10  1  0.881929  0.405893  0.033319  1
  H  H11  1  0.372575  0.848609  0.966681  1
  H  H12  1  0.754619  0.254619  0.500000  1
  H  H13  1  0.000133  0.000133  0.000000  1
