# generated using pymatgen
data_ErTmMn5(PIr)7
_symmetry_space_group_name_H-M   'P 1'
_cell_length_a   9.35745439
_cell_length_b   9.39621300
_cell_length_c   3.85839800
_cell_angle_alpha   90.00000000
_cell_angle_beta   90.00000000
_cell_angle_gamma   119.90337659
_symmetry_Int_Tables_number   1
_chemical_formula_structural   ErTmMn5(PIr)7
_chemical_formula_sum   'Er1 Tm1 Mn5 P7 Ir7'
_cell_volume   294.08322463
_cell_formula_units_Z   1
loop_
 _symmetry_equiv_pos_site_id
 _symmetry_equiv_pos_as_xyz
  1  'x, y, z'
loop_
 _atom_site_type_symbol
 _atom_site_label
 _atom_site_symmetry_multiplicity
 _atom_site_fract_x
 _atom_site_fract_y
 _atom_site_fract_z
 _atom_site_occupancy
  Er  Er0  1  0.001047  0.999827  0.000000  1
  Tm  Tm1  1  0.666976  0.332202  0.500000  1
  Mn  Mn2  1  0.226014  0.400272  0.000000  1
  Mn  Mn3  1  0.604373  0.825721  0.000000  1
  Mn  Mn4  1  0.171430  0.774688  0.000000  1
  Mn  Mn5  1  0.430913  0.888463  0.500000  1
  Mn  Mn6  1  0.110716  0.542917  0.500000  1
  P  P7  1  0.442232  0.361872  0.000000  1
  P  P8  1  0.631982  0.074665  0.000000  1
  P  P9  1  0.921337  0.553910  0.000000  1
  P  P10  1  0.055091  0.269824  0.500000  1
  P  P11  1  0.733289  0.791540  0.500000  1
  P  P12  1  0.215167  0.941428  0.500000  1
  P  P13  1  0.335741  0.670863  0.000000  1
  Ir  Ir14  1  0.693213  0.596858  0.000000  1
  Ir  Ir15  1  0.398886  0.093440  0.000000  1
  Ir  Ir16  1  0.905307  0.304145  0.000000  1
  Ir  Ir17  1  0.275880  0.221383  0.500000  1
  Ir  Ir18  1  0.777460  0.055210  0.500000  1
  Ir  Ir19  1  0.942958  0.722606  0.500000  1
  Ir  Ir20  1  0.459982  0.578163  0.500000  1
