# generated using pymatgen
data_TbY3(Lu4Bi3)4
_symmetry_space_group_name_H-M   'P 1'
_cell_length_a   8.17315201
_cell_length_b   9.39179700
_cell_length_c   11.87492701
_cell_angle_alpha   90.00000000
_cell_angle_beta   89.99584542
_cell_angle_gamma   90.00000000
_symmetry_Int_Tables_number   1
_chemical_formula_structural   TbY3(Lu4Bi3)4
_chemical_formula_sum   'Tb1 Y3 Lu16 Bi12'
_cell_volume   911.52633543
_cell_formula_units_Z   1
loop_
 _symmetry_equiv_pos_site_id
 _symmetry_equiv_pos_as_xyz
  1  'x, y, z'
loop_
 _atom_site_type_symbol
 _atom_site_label
 _atom_site_symmetry_multiplicity
 _atom_site_fract_x
 _atom_site_fract_y
 _atom_site_fract_z
 _atom_site_occupancy
  Tb  Tb0  1  0.186704  0.750000  0.717827  1
  Y  Y1  1  0.313251  0.250000  0.217829  1
  Y  Y2  1  0.813319  0.250000  0.282178  1
  Y  Y3  1  0.686670  0.750000  0.782110  1
  Lu  Lu4  1  0.352574  0.750000  0.218511  1
  Lu  Lu5  1  0.852564  0.750000  0.281488  1
  Lu  Lu6  1  0.647390  0.250000  0.781449  1
  Lu  Lu7  1  0.147423  0.250000  0.718557  1
  Lu  Lu8  1  0.692731  0.567397  0.060214  1
  Lu  Lu9  1  0.192653  0.932586  0.439816  1
  Lu  Lu10  1  0.307293  0.067382  0.939784  1
  Lu  Lu11  1  0.807402  0.432630  0.560248  1
  Lu  Lu12  1  0.307293  0.432618  0.939784  1
  Lu  Lu13  1  0.807402  0.067370  0.560248  1
  Lu  Lu14  1  0.692731  0.932603  0.060214  1
  Lu  Lu15  1  0.192653  0.567414  0.439816  1
  Lu  Lu16  1  0.476772  0.250000  0.489267  1
  Lu  Lu17  1  0.976700  0.250000  0.010769  1
  Lu  Lu18  1  0.523217  0.750000  0.510770  1
  Lu  Lu19  1  0.023377  0.750000  0.989137  1
  Bi  Bi20  1  0.403662  0.750000  0.959838  1
  Bi  Bi21  1  0.903124  0.750000  0.540106  1
  Bi  Bi22  1  0.596486  0.250000  0.040252  1
  Bi  Bi23  1  0.096518  0.250000  0.459771  1
  Bi  Bi24  1  0.565810  0.994220  0.326147  1
  Bi  Bi25  1  0.065845  0.505836  0.173791  1
  Bi  Bi26  1  0.434378  0.494050  0.673852  1
  Bi  Bi27  1  0.934013  0.005942  0.826220  1
  Bi  Bi28  1  0.434378  0.005950  0.673852  1
  Bi  Bi29  1  0.934013  0.494058  0.826220  1
  Bi  Bi30  1  0.565810  0.505780  0.326147  1
  Bi  Bi31  1  0.065845  0.994164  0.173791  1
