# generated using pymatgen
data_Tb4Ho8TlNi5
_symmetry_space_group_name_H-M   'P 1'
_cell_length_a   8.29287007
_cell_length_b   8.29286884
_cell_length_c   8.29286900
_cell_angle_alpha   107.16998706
_cell_angle_beta   109.73127135
_cell_angle_gamma   111.54201837
_symmetry_Int_Tables_number   1
_chemical_formula_structural   Tb4Ho8TlNi5
_chemical_formula_sum   'Tb4 Ho8 Tl1 Ni5'
_cell_volume   438.38548840
_cell_formula_units_Z   1
loop_
 _symmetry_equiv_pos_site_id
 _symmetry_equiv_pos_as_xyz
  1  'x, y, z'
loop_
 _atom_site_type_symbol
 _atom_site_label
 _atom_site_symmetry_multiplicity
 _atom_site_fract_x
 _atom_site_fract_y
 _atom_site_fract_z
 _atom_site_occupancy
  Tb  Tb0  1  0.478314  0.295692  0.182622  1
  Tb  Tb1  1  0.113069  0.295692  0.817378  1
  Tb  Tb2  1  0.886931  0.704308  0.182622  1
  Tb  Tb3  1  0.521686  0.704308  0.817378  1
  Ho  Ho4  1  0.305630  0.627383  0.321753  1
  Ho  Ho5  1  0.305630  0.983878  0.678247  1
  Ho  Ho6  1  0.694370  0.372617  0.678247  1
  Ho  Ho7  1  0.694370  0.016122  0.321753  1
  Ho  Ho8  1  0.190376  0.210369  0.400747  1
  Ho  Ho9  1  0.809624  0.789631  0.599253  1
  Ho  Ho10  1  0.190376  0.789631  0.980006  1
  Ho  Ho11  1  0.809624  0.210369  0.019994  1
  Tl  Tl12  1  0.000000  0.500000  0.500000  1
  Ni  Ni13  1  0.500000  0.625824  0.125824  1
  Ni  Ni14  1  0.500000  0.374176  0.874176  1
  Ni  Ni15  1  0.366145  0.000000  0.366145  1
  Ni  Ni16  1  0.633855  0.000000  0.633855  1
  Ni  Ni17  1  0.000000  0.000000  0.000000  1
