# generated using pymatgen
data_DyEr2Tm(Si3Rh)2
_symmetry_space_group_name_H-M   'P 1'
_cell_length_a   8.14058707
_cell_length_b   8.13878426
_cell_length_c   7.82477700
_cell_angle_alpha   90.00000000
_cell_angle_beta   90.00000000
_cell_angle_gamma   119.99267209
_symmetry_Int_Tables_number   1
_chemical_formula_structural   DyEr2Tm(Si3Rh)2
_chemical_formula_sum   'Dy2 Er4 Tm2 Si12 Rh4'
_cell_volume   449.00370754
_cell_formula_units_Z   2
loop_
 _symmetry_equiv_pos_site_id
 _symmetry_equiv_pos_as_xyz
  1  'x, y, z'
loop_
 _atom_site_type_symbol
 _atom_site_label
 _atom_site_symmetry_multiplicity
 _atom_site_fract_x
 _atom_site_fract_y
 _atom_site_fract_z
 _atom_site_occupancy
  Dy  Dy0  1  0.999905  0.999953  0.250000  1
  Dy  Dy1  1  0.000075  0.000037  0.750000  1
  Er  Er2  1  0.016794  0.508396  0.250000  1
  Er  Er3  1  0.508237  0.491761  0.750000  1
  Er  Er4  1  0.983473  0.491737  0.750000  1
  Er  Er5  1  0.508237  0.016477  0.750000  1
  Tm  Tm6  1  0.491861  0.508269  0.250000  1
  Tm  Tm7  1  0.491861  0.983591  0.250000  1
  Si  Si8  1  0.832798  0.167119  0.500778  1
  Si  Si9  1  0.832798  0.665680  0.500778  1
  Si  Si10  1  0.334267  0.167134  0.500703  1
  Si  Si11  1  0.832798  0.167119  0.999222  1
  Si  Si12  1  0.832798  0.665680  0.999222  1
  Si  Si13  1  0.334267  0.167134  0.999297  1
  Si  Si14  1  0.167175  0.832981  0.001279  1
  Si  Si15  1  0.665741  0.832870  0.001550  1
  Si  Si16  1  0.167175  0.334193  0.001279  1
  Si  Si17  1  0.167175  0.832981  0.498721  1
  Si  Si18  1  0.665741  0.832870  0.498450  1
  Si  Si19  1  0.167175  0.334193  0.498721  1
  Rh  Rh20  1  0.666328  0.333164  0.465836  1
  Rh  Rh21  1  0.666328  0.333164  0.034164  1
  Rh  Rh22  1  0.333496  0.666749  0.967830  1
  Rh  Rh23  1  0.333496  0.666749  0.532170  1
