# generated using pymatgen
data_Ca3Pr9(SnRh)8
_symmetry_space_group_name_H-M   'P 1'
_cell_length_a   5.84464093
_cell_length_b   8.55517089
_cell_length_c   14.14178700
_cell_angle_alpha   90.00000000
_cell_angle_beta   90.00000000
_cell_angle_gamma   90.09364006
_symmetry_Int_Tables_number   1
_chemical_formula_structural   Ca3Pr9(SnRh)8
_chemical_formula_sum   'Ca3 Pr9 Sn8 Rh8'
_cell_volume   707.11530239
_cell_formula_units_Z   1
loop_
 _symmetry_equiv_pos_site_id
 _symmetry_equiv_pos_as_xyz
  1  'x, y, z'
loop_
 _atom_site_type_symbol
 _atom_site_label
 _atom_site_symmetry_multiplicity
 _atom_site_fract_x
 _atom_site_fract_y
 _atom_site_fract_z
 _atom_site_occupancy
  Ca  Ca0  1  0.638231  0.255284  0.250000  1
  Ca  Ca1  1  0.365963  0.743734  0.750000  1
  Ca  Ca2  1  0.361255  0.756316  0.250000  1
  Pr  Pr3  1  0.635246  0.243222  0.750000  1
  Pr  Pr4  1  0.167359  0.398189  0.096674  1
  Pr  Pr5  1  0.835360  0.605069  0.904407  1
  Pr  Pr6  1  0.835360  0.605069  0.595593  1
  Pr  Pr7  1  0.832804  0.897849  0.402686  1
  Pr  Pr8  1  0.167359  0.398189  0.403326  1
  Pr  Pr9  1  0.163596  0.100521  0.594845  1
  Pr  Pr10  1  0.163596  0.100521  0.905155  1
  Pr  Pr11  1  0.832804  0.897849  0.097314  1
  Sn  Sn12  1  0.139705  0.103873  0.250000  1
  Sn  Sn13  1  0.864765  0.893692  0.750000  1
  Sn  Sn14  1  0.859449  0.602058  0.250000  1
  Sn  Sn15  1  0.132696  0.398697  0.750000  1
  Sn  Sn16  1  0.656310  0.250301  0.000187  1
  Sn  Sn17  1  0.344556  0.749457  0.999543  1
  Sn  Sn18  1  0.344556  0.749457  0.500457  1
  Sn  Sn19  1  0.656310  0.250301  0.499813  1
  Rh  Rh20  1  0.367739  0.038740  0.088898  1
  Rh  Rh21  1  0.630722  0.963330  0.909540  1
  Rh  Rh22  1  0.630722  0.963330  0.590460  1
  Rh  Rh23  1  0.630775  0.539151  0.411161  1
  Rh  Rh24  1  0.367739  0.038740  0.411102  1
  Rh  Rh25  1  0.372125  0.458955  0.590862  1
  Rh  Rh26  1  0.372125  0.458955  0.909138  1
  Rh  Rh27  1  0.630775  0.539151  0.088839  1
