# generated using pymatgen
data_Sr4ErNp2ScO12
_symmetry_space_group_name_H-M   'P 1'
_cell_length_a   6.02605863
_cell_length_b   5.90630350
_cell_length_c   10.27723752
_cell_angle_alpha   55.16541214
_cell_angle_beta   90.24889755
_cell_angle_gamma   90.06465724
_symmetry_Int_Tables_number   1
_chemical_formula_structural   Sr4ErNp2ScO12
_chemical_formula_sum   'Sr4 Er1 Np2 Sc1 O12'
_cell_volume   300.23447980
_cell_formula_units_Z   1
loop_
 _symmetry_equiv_pos_site_id
 _symmetry_equiv_pos_as_xyz
  1  'x, y, z'
loop_
 _atom_site_type_symbol
 _atom_site_label
 _atom_site_symmetry_multiplicity
 _atom_site_fract_x
 _atom_site_fract_y
 _atom_site_fract_z
 _atom_site_occupancy
  Sr  Sr0  1  0.461799  0.266206  0.742533  1
  Sr  Sr1  1  0.955458  0.747234  0.743359  1
  Sr  Sr2  1  0.044542  0.252766  0.256641  1
  Sr  Sr3  1  0.538201  0.733794  0.257467  1
  Er  Er4  1  0.000000  0.000000  0.000000  1
  Np  Np5  1  0.000000  0.500000  0.500000  1
  Np  Np6  1  0.500000  0.500000  0.000000  1
  Sc  Sc7  1  0.500000  0.000000  0.500000  1
  O  O8  1  0.210700  0.741215  0.542350  1
  O  O9  1  0.695647  0.260537  0.950698  1
  O  O10  1  0.789300  0.258785  0.457650  1
  O  O11  1  0.304353  0.739463  0.049302  1
  O  O12  1  0.711708  0.669960  0.545772  1
  O  O13  1  0.208423  0.354299  0.948894  1
  O  O14  1  0.288292  0.330040  0.454228  1
  O  O15  1  0.791577  0.645701  0.051106  1
  O  O16  1  0.030453  0.164252  0.745089  1
  O  O17  1  0.528988  0.840983  0.746375  1
  O  O18  1  0.969547  0.835748  0.254911  1
  O  O19  1  0.471012  0.159017  0.253625  1
