# generated using pymatgen
data_Ac3Ag2Te7
_symmetry_space_group_name_H-M   'P 1'
_cell_length_a   6.33336500
_cell_length_b   12.19345402
_cell_length_c   12.19345894
_cell_angle_alpha   117.81344097
_cell_angle_beta   90.00000000
_cell_angle_gamma   90.00000000
_symmetry_Int_Tables_number   1
_chemical_formula_structural   Ac3Ag2Te7
_chemical_formula_sum   'Ac6 Ag4 Te14'
_cell_volume   832.86008020
_cell_formula_units_Z   2
loop_
 _symmetry_equiv_pos_site_id
 _symmetry_equiv_pos_as_xyz
  1  'x, y, z'
loop_
 _atom_site_type_symbol
 _atom_site_label
 _atom_site_symmetry_multiplicity
 _atom_site_fract_x
 _atom_site_fract_y
 _atom_site_fract_z
 _atom_site_occupancy
  Ac  Ac0  1  0.750000  0.414566  0.589438  1
  Ac  Ac1  1  0.250000  0.589454  0.414542  1
  Ac  Ac2  1  0.750000  0.907501  0.620539  1
  Ac  Ac3  1  0.250000  0.620487  0.907485  1
  Ac  Ac4  1  0.250000  0.090631  0.379020  1
  Ac  Ac5  1  0.750000  0.378971  0.090636  1
  Ag  Ag6  1  0.750000  0.240484  0.764861  1
  Ag  Ag7  1  0.250000  0.764858  0.240467  1
  Ag  Ag8  1  0.750000  0.838327  0.286818  1
  Ag  Ag9  1  0.250000  0.286832  0.838317  1
  Te  Te10  1  0.750000  0.648794  0.352311  1
  Te  Te11  1  0.250000  0.352290  0.648778  1
  Te  Te12  1  0.750000  0.105445  0.497011  1
  Te  Te13  1  0.250000  0.497043  0.105452  1
  Te  Te14  1  0.250000  0.893638  0.504201  1
  Te  Te15  1  0.750000  0.504210  0.893635  1
  Te  Te16  1  0.500311  0.884157  0.115410  1
  Te  Te17  1  0.499519  0.115372  0.884148  1
  Te  Te18  1  0.999689  0.884157  0.115410  1
  Te  Te19  1  0.000481  0.115372  0.884148  1
  Te  Te20  1  0.499980  0.306632  0.306629  1
  Te  Te21  1  0.000020  0.306632  0.306629  1
  Te  Te22  1  0.499973  0.696673  0.696659  1
  Te  Te23  1  0.000027  0.696673  0.696659  1
