# generated using pymatgen
data_Mg(AlBr4)2
_symmetry_space_group_name_H-M   'P 1'
_cell_length_a   10.53615926
_cell_length_b   10.53615881
_cell_length_c   12.45607758
_cell_angle_alpha   56.30507231
_cell_angle_beta   56.30507398
_cell_angle_gamma   49.77104439
_symmetry_Int_Tables_number   1
_chemical_formula_structural   Mg(AlBr4)2
_chemical_formula_sum   'Mg2 Al4 Br16'
_cell_volume   835.26799481
_cell_formula_units_Z   2
loop_
 _symmetry_equiv_pos_site_id
 _symmetry_equiv_pos_as_xyz
  1  'x, y, z'
loop_
 _atom_site_type_symbol
 _atom_site_label
 _atom_site_symmetry_multiplicity
 _atom_site_fract_x
 _atom_site_fract_y
 _atom_site_fract_z
 _atom_site_occupancy
  Mg  Mg0  1  0.994165  0.005835  0.750000  1
  Mg  Mg1  1  0.005835  0.994165  0.250000  1
  Al  Al2  1  0.157454  0.675716  0.529302  1
  Al  Al3  1  0.324284  0.842546  0.970698  1
  Al  Al4  1  0.842546  0.324284  0.470698  1
  Al  Al5  1  0.675716  0.157454  0.029302  1
  Br  Br6  1  0.302817  0.389253  0.549113  1
  Br  Br7  1  0.610747  0.697183  0.950887  1
  Br  Br8  1  0.697183  0.610747  0.450887  1
  Br  Br9  1  0.389253  0.302817  0.049113  1
  Br  Br10  1  0.876691  0.827396  0.510537  1
  Br  Br11  1  0.172604  0.123309  0.989463  1
  Br  Br12  1  0.123309  0.172604  0.489463  1
  Br  Br13  1  0.827396  0.876691  0.010537  1
  Br  Br14  1  0.140908  0.691506  0.718893  1
  Br  Br15  1  0.308494  0.859092  0.781107  1
  Br  Br16  1  0.859092  0.308494  0.281107  1
  Br  Br17  1  0.691506  0.140908  0.218893  1
  Br  Br18  1  0.284240  0.840086  0.326875  1
  Br  Br19  1  0.159914  0.715760  0.173125  1
  Br  Br20  1  0.715760  0.159914  0.673125  1
  Br  Br21  1  0.840086  0.284240  0.826875  1
