# generated using pymatgen
data_Tm4Fe5Si10Rh
_symmetry_space_group_name_H-M   'P 1'
_cell_length_a   7.98780135
_cell_length_b   7.98780063
_cell_length_c   7.98780029
_cell_angle_alpha   140.58622436
_cell_angle_beta   108.38841041
_cell_angle_gamma   84.94925631
_symmetry_Int_Tables_number   1
_chemical_formula_structural   Tm4Fe5Si10Rh
_chemical_formula_sum   'Tm4 Fe5 Si10 Rh1'
_cell_volume   296.64187727
_cell_formula_units_Z   1
loop_
 _symmetry_equiv_pos_site_id
 _symmetry_equiv_pos_as_xyz
  1  'x, y, z'
loop_
 _atom_site_type_symbol
 _atom_site_label
 _atom_site_symmetry_multiplicity
 _atom_site_fract_x
 _atom_site_fract_y
 _atom_site_fract_z
 _atom_site_occupancy
  Tm  Tm0  1  0.631000  0.867109  0.777447  1
  Tm  Tm1  1  0.369000  0.146446  0.236110  1
  Tm  Tm2  1  0.089663  0.353554  0.722553  1
  Tm  Tm3  1  0.910337  0.632891  0.263890  1
  Fe  Fe4  1  0.233555  0.643988  0.588635  1
  Fe  Fe5  1  0.766445  0.355080  0.410432  1
  Fe  Fe6  1  0.055351  0.144920  0.911365  1
  Fe  Fe7  1  0.944649  0.856012  0.089568  1
  Fe  Fe8  1  0.500000  0.750000  0.250000  1
  Si  Si9  1  0.286213  0.036213  0.750000  1
  Si  Si10  1  0.710764  0.960764  0.250000  1
  Si  Si11  1  0.713787  0.463787  0.750000  1
  Si  Si12  1  0.289236  0.539236  0.250000  1
  Si  Si13  1  0.420758  0.609654  0.837676  1
  Si  Si14  1  0.579242  0.416916  0.188895  1
  Si  Si15  1  0.771979  0.083084  0.662324  1
  Si  Si16  1  0.228021  0.890346  0.311105  1
  Si  Si17  1  0.000000  0.750000  0.750000  1
  Si  Si18  1  0.000000  0.250000  0.250000  1
  Rh  Rh19  1  0.500000  0.250000  0.750000  1
