# generated using pymatgen
data_SrCe2(TlSe2)3
_symmetry_space_group_name_H-M   'P 1'
_cell_length_a   7.48984224
_cell_length_b   7.48984208
_cell_length_c   8.06361800
_cell_angle_alpha   98.86525589
_cell_angle_beta   98.86524796
_cell_angle_gamma   120.07713849
_symmetry_Int_Tables_number   1
_chemical_formula_structural   SrCe2(TlSe2)3
_chemical_formula_sum   'Sr1 Ce2 Tl3 Se6'
_cell_volume   372.33904685
_cell_formula_units_Z   1
loop_
 _symmetry_equiv_pos_site_id
 _symmetry_equiv_pos_as_xyz
  1  'x, y, z'
loop_
 _atom_site_type_symbol
 _atom_site_label
 _atom_site_symmetry_multiplicity
 _atom_site_fract_x
 _atom_site_fract_y
 _atom_site_fract_z
 _atom_site_occupancy
  Sr  Sr0  1  0.000000  0.000000  0.000000  1
  Ce  Ce1  1  0.666873  0.333127  0.000000  1
  Ce  Ce2  1  0.333127  0.666873  0.000000  1
  Tl  Tl3  1  0.836828  0.163172  0.500000  1
  Tl  Tl4  1  0.500000  0.500000  0.500000  1
  Tl  Tl5  1  0.163172  0.836828  0.500000  1
  Se  Se6  1  0.717582  0.717582  0.208978  1
  Se  Se7  1  0.422712  0.070932  0.212796  1
  Se  Se8  1  0.070932  0.422712  0.212796  1
  Se  Se9  1  0.929069  0.577289  0.787205  1
  Se  Se10  1  0.577289  0.929069  0.787205  1
  Se  Se11  1  0.282419  0.282419  0.791022  1
