# generated using pymatgen
data_Th3Cu2Hg3Ir
_symmetry_space_group_name_H-M   'P 1'
_cell_length_a   7.79875700
_cell_length_b   7.79875753
_cell_length_c   3.89234400
_cell_angle_alpha   90.00000000
_cell_angle_beta   90.00000000
_cell_angle_gamma   120.00000201
_symmetry_Int_Tables_number   1
_chemical_formula_structural   Th3Cu2Hg3Ir
_chemical_formula_sum   'Th3 Cu2 Hg3 Ir1'
_cell_volume   205.01830792
_cell_formula_units_Z   1
loop_
 _symmetry_equiv_pos_site_id
 _symmetry_equiv_pos_as_xyz
  1  'x, y, z'
loop_
 _atom_site_type_symbol
 _atom_site_label
 _atom_site_symmetry_multiplicity
 _atom_site_fract_x
 _atom_site_fract_y
 _atom_site_fract_z
 _atom_site_occupancy
  Th  Th0  1  0.420676  0.014554  0.500000  1
  Th  Th1  1  0.985446  0.406122  0.500000  1
  Th  Th2  1  0.593878  0.579324  0.500000  1
  Cu  Cu3  1  0.333333  0.666667  0.000000  1
  Cu  Cu4  1  0.000000  0.000000  0.500000  1
  Hg  Hg5  1  0.740194  0.984074  0.000000  1
  Hg  Hg6  1  0.015926  0.756121  0.000000  1
  Hg  Hg7  1  0.243879  0.259806  0.000000  1
  Ir  Ir8  1  0.666667  0.333333  0.000000  1
