# generated using pymatgen
data_Sc20SiBi8Se3
_symmetry_space_group_name_H-M   'P 1'
_cell_length_a   11.30351706
_cell_length_b   8.66545300
_cell_length_c   7.54754999
_cell_angle_alpha   90.00000000
_cell_angle_beta   89.56564696
_cell_angle_gamma   90.00000000
_symmetry_Int_Tables_number   1
_chemical_formula_structural   Sc20SiBi8Se3
_chemical_formula_sum   'Sc20 Si1 Bi8 Se3'
_cell_volume   739.26200126
_cell_formula_units_Z   1
loop_
 _symmetry_equiv_pos_site_id
 _symmetry_equiv_pos_as_xyz
  1  'x, y, z'
loop_
 _atom_site_type_symbol
 _atom_site_label
 _atom_site_symmetry_multiplicity
 _atom_site_fract_x
 _atom_site_fract_y
 _atom_site_fract_z
 _atom_site_occupancy
  Sc  Sc0  1  0.060429  0.554776  0.814761  1
  Sc  Sc1  1  0.560139  0.939856  0.682623  1
  Sc  Sc2  1  0.941459  0.063676  0.180150  1
  Sc  Sc3  1  0.439376  0.440364  0.317189  1
  Sc  Sc4  1  0.941459  0.436324  0.180150  1
  Sc  Sc5  1  0.439376  0.059636  0.317189  1
  Sc  Sc6  1  0.060429  0.945224  0.814761  1
  Sc  Sc7  1  0.560139  0.560144  0.682623  1
  Sc  Sc8  1  0.001169  0.750000  0.469073  1
  Sc  Sc9  1  0.502819  0.750000  0.028552  1
  Sc  Sc10  1  0.998559  0.250000  0.536207  1
  Sc  Sc11  1  0.497854  0.250000  0.969696  1
  Sc  Sc12  1  0.208797  0.750000  0.156297  1
  Sc  Sc13  1  0.708189  0.750000  0.344121  1
  Sc  Sc14  1  0.797221  0.250000  0.847318  1
  Sc  Sc15  1  0.281977  0.250000  0.665103  1
  Sc  Sc16  1  0.292996  0.750000  0.643134  1
  Sc  Sc17  1  0.791750  0.750000  0.857422  1
  Sc  Sc18  1  0.705595  0.250000  0.359756  1
  Sc  Sc19  1  0.207861  0.250000  0.139852  1
  Si  Si20  1  0.029217  0.250000  0.908295  1
  Bi  Bi21  1  0.326273  0.510525  0.930539  1
  Bi  Bi22  1  0.824486  0.991070  0.568729  1
  Bi  Bi23  1  0.675043  0.009595  0.070537  1
  Bi  Bi24  1  0.175215  0.491509  0.429072  1
  Bi  Bi25  1  0.675043  0.490405  0.070537  1
  Bi  Bi26  1  0.175215  0.008491  0.429072  1
  Bi  Bi27  1  0.326273  0.989475  0.930539  1
  Bi  Bi28  1  0.824486  0.508930  0.568729  1
  Se  Se29  1  0.476306  0.750000  0.409392  1
  Se  Se30  1  0.976892  0.750000  0.087386  1
  Se  Se31  1  0.517954  0.250000  0.591196  1
