# generated using pymatgen
data_P2RuCl15
_symmetry_space_group_name_H-M   'P 1'
_cell_length_a   8.78205447
_cell_length_b   8.78205471
_cell_length_c   10.45704501
_cell_angle_alpha   62.48818085
_cell_angle_beta   62.48818222
_cell_angle_gamma   55.28861174
_symmetry_Int_Tables_number   1
_chemical_formula_structural   P2RuCl15
_chemical_formula_sum   'P2 Ru1 Cl15'
_cell_volume   565.69088624
_cell_formula_units_Z   1
loop_
 _symmetry_equiv_pos_site_id
 _symmetry_equiv_pos_as_xyz
  1  'x, y, z'
loop_
 _atom_site_type_symbol
 _atom_site_label
 _atom_site_symmetry_multiplicity
 _atom_site_fract_x
 _atom_site_fract_y
 _atom_site_fract_z
 _atom_site_occupancy
  P  P0  1  0.280505  0.280505  0.182460  1
  P  P1  1  0.719495  0.719495  0.817540  1
  Ru  Ru2  1  0.500000  0.500000  0.500000  1
  Cl  Cl3  1  0.328581  0.328581  0.589012  1
  Cl  Cl4  1  0.677438  0.274738  0.673108  1
  Cl  Cl5  1  0.181616  0.181616  0.398897  1
  Cl  Cl6  1  0.564878  0.165857  0.125653  1
  Cl  Cl7  1  0.671419  0.671419  0.410988  1
  Cl  Cl8  1  0.725262  0.322562  0.326892  1
  Cl  Cl9  1  0.274738  0.677438  0.673108  1
  Cl  Cl10  1  0.792634  0.792634  0.925316  1
  Cl  Cl11  1  0.435122  0.834143  0.874347  1
  Cl  Cl12  1  0.207366  0.207366  0.074684  1
  Cl  Cl13  1  0.818384  0.818384  0.601103  1
  Cl  Cl14  1  0.322562  0.725262  0.326892  1
  Cl  Cl15  1  0.165857  0.564878  0.125653  1
  Cl  Cl16  1  0.000000  0.000000  0.000000  1
  Cl  Cl17  1  0.834143  0.435122  0.874347  1
