# generated using pymatgen
data_Tb16Er4IrRh11
_symmetry_space_group_name_H-M   'P 1'
_cell_length_a   10.92423422
_cell_length_b   10.92423422
_cell_length_c   6.36467402
_cell_angle_alpha   90.00658792
_cell_angle_beta   90.00658792
_cell_angle_gamma   90.02179733
_symmetry_Int_Tables_number   1
_chemical_formula_structural   Tb16Er4IrRh11
_chemical_formula_sum   'Tb16 Er4 Ir1 Rh11'
_cell_volume   759.55308823
_cell_formula_units_Z   1
loop_
 _symmetry_equiv_pos_site_id
 _symmetry_equiv_pos_as_xyz
  1  'x, y, z'
loop_
 _atom_site_type_symbol
 _atom_site_label
 _atom_site_symmetry_multiplicity
 _atom_site_fract_x
 _atom_site_fract_y
 _atom_site_fract_z
 _atom_site_occupancy
  Tb  Tb0  1  0.290108  0.088173  0.378327  1
  Tb  Tb1  1  0.290374  0.910667  0.878167  1
  Tb  Tb2  1  0.709842  0.088037  0.878315  1
  Tb  Tb3  1  0.709795  0.911797  0.378242  1
  Tb  Tb4  1  0.586999  0.789688  0.878033  1
  Tb  Tb5  1  0.588143  0.209826  0.378631  1
  Tb  Tb6  1  0.411543  0.789575  0.379145  1
  Tb  Tb7  1  0.411816  0.209730  0.878279  1
  Tb  Tb8  1  0.210312  0.413001  0.621967  1
  Tb  Tb9  1  0.210425  0.588457  0.120855  1
  Tb  Tb10  1  0.790174  0.411857  0.121369  1
  Tb  Tb11  1  0.790270  0.588184  0.621721  1
  Tb  Tb12  1  0.911827  0.709892  0.121673  1
  Tb  Tb13  1  0.911963  0.290158  0.621685  1
  Tb  Tb14  1  0.089333  0.709626  0.621833  1
  Tb  Tb15  1  0.088203  0.290205  0.121758  1
  Er  Er16  1  0.999914  0.999892  0.500042  1
  Er  Er17  1  0.000108  0.000086  0.999958  1
  Er  Er18  1  0.499685  0.500231  0.999933  1
  Er  Er19  1  0.499769  0.500315  0.500067  1
  Ir  Ir20  1  0.347467  0.652533  0.750000  1
  Rh  Rh21  1  0.847381  0.152619  0.250000  1
  Rh  Rh22  1  0.847334  0.847452  0.750076  1
  Rh  Rh23  1  0.152548  0.152666  0.749924  1
  Rh  Rh24  1  0.152211  0.847789  0.250000  1
  Rh  Rh25  1  0.652612  0.347388  0.750000  1
  Rh  Rh26  1  0.653012  0.652669  0.250065  1
  Rh  Rh27  1  0.347331  0.346988  0.249935  1
  Rh  Rh28  1  0.500117  0.000293  0.121863  1
  Rh  Rh29  1  0.500181  0.000505  0.621490  1
  Rh  Rh30  1  0.999495  0.499819  0.878510  1
  Rh  Rh31  1  0.999707  0.499883  0.378137  1
