# generated using pymatgen
data_Pa2Co6H
_symmetry_space_group_name_H-M   'P 1'
_cell_length_a   5.42151190
_cell_length_b   5.42151150
_cell_length_c   5.42151300
_cell_angle_alpha   59.99999694
_cell_angle_beta   59.99999937
_cell_angle_gamma   60.00001476
_symmetry_Int_Tables_number   1
_chemical_formula_structural   Pa2Co6H
_chemical_formula_sum   'Pa2 Co6 H1'
_cell_volume   112.67987079
_cell_formula_units_Z   1
loop_
 _symmetry_equiv_pos_site_id
 _symmetry_equiv_pos_as_xyz
  1  'x, y, z'
loop_
 _atom_site_type_symbol
 _atom_site_label
 _atom_site_symmetry_multiplicity
 _atom_site_fract_x
 _atom_site_fract_y
 _atom_site_fract_z
 _atom_site_occupancy
  Pa  Pa0  1  0.249999  0.249999  0.249999  1
  Pa  Pa1  1  0.750000  0.750000  0.750000  1
  Co  Co2  1  0.749878  0.250122  0.250122  1
  Co  Co3  1  0.749878  0.749878  0.250122  1
  Co  Co4  1  0.250122  0.749878  0.250122  1
  Co  Co5  1  0.250122  0.749878  0.749878  1
  Co  Co6  1  0.250122  0.250122  0.749878  1
  Co  Co7  1  0.749878  0.250122  0.749878  1
  H  H8  1  0.000000  0.000000  0.000000  1
