# generated using pymatgen
data_TbY3Ga4Ir3Rh
_symmetry_space_group_name_H-M   'P 1'
_cell_length_a   4.36672700
_cell_length_b   6.84292588
_cell_length_c   7.77840500
_cell_angle_alpha   90.14415186
_cell_angle_beta   90.00000000
_cell_angle_gamma   90.00000000
_symmetry_Int_Tables_number   1
_chemical_formula_structural   TbY3Ga4Ir3Rh
_chemical_formula_sum   'Tb1 Y3 Ga4 Ir3 Rh1'
_cell_volume   232.42725600
_cell_formula_units_Z   1
loop_
 _symmetry_equiv_pos_site_id
 _symmetry_equiv_pos_as_xyz
  1  'x, y, z'
loop_
 _atom_site_type_symbol
 _atom_site_label
 _atom_site_symmetry_multiplicity
 _atom_site_fract_x
 _atom_site_fract_y
 _atom_site_fract_z
 _atom_site_occupancy
  Tb  Tb0  1  0.750000  0.019941  0.692222  1
  Y  Y1  1  0.250000  0.976745  0.308654  1
  Y  Y2  1  0.250000  0.480348  0.189910  1
  Y  Y3  1  0.750000  0.521238  0.809297  1
  Ga  Ga4  1  0.250000  0.339621  0.571237  1
  Ga  Ga5  1  0.250000  0.840628  0.927090  1
  Ga  Ga6  1  0.750000  0.659882  0.427587  1
  Ga  Ga7  1  0.750000  0.160318  0.072473  1
  Ir  Ir8  1  0.250000  0.228770  0.893443  1
  Ir  Ir9  1  0.250000  0.726858  0.605149  1
  Ir  Ir10  1  0.750000  0.773382  0.106986  1
  Rh  Rh11  1  0.750000  0.272269  0.395948  1
