# generated using pymatgen
data_Er5As9P3Rh19
_symmetry_space_group_name_H-M   'P 1'
_cell_length_a   13.05200100
_cell_length_b   13.05200137
_cell_length_c   3.96492000
_cell_angle_alpha   90.00000000
_cell_angle_beta   90.00000000
_cell_angle_gamma   120.00000666
_symmetry_Int_Tables_number   1
_chemical_formula_structural   Er5As9P3Rh19
_chemical_formula_sum   'Er5 As9 P3 Rh19'
_cell_volume   584.95066727
_cell_formula_units_Z   1
loop_
 _symmetry_equiv_pos_site_id
 _symmetry_equiv_pos_as_xyz
  1  'x, y, z'
loop_
 _atom_site_type_symbol
 _atom_site_label
 _atom_site_symmetry_multiplicity
 _atom_site_fract_x
 _atom_site_fract_y
 _atom_site_fract_z
 _atom_site_occupancy
  Er  Er0  1  0.333333  0.666667  0.000000  1
  Er  Er1  1  0.666667  0.333333  0.000000  1
  Er  Er2  1  0.000000  0.182641  0.500000  1
  Er  Er3  1  0.817359  0.817359  0.500000  1
  Er  Er4  1  0.182641  0.000000  0.500000  1
  As  As5  1  0.000000  0.359684  0.000000  1
  As  As6  1  0.640316  0.640316  0.000000  1
  As  As7  1  0.359684  0.000000  0.000000  1
  As  As8  1  0.517997  0.839580  0.500000  1
  As  As9  1  0.160420  0.678417  0.500000  1
  As  As10  1  0.321583  0.482003  0.500000  1
  As  As11  1  0.482003  0.321583  0.500000  1
  As  As12  1  0.839580  0.517997  0.500000  1
  As  As13  1  0.678417  0.160420  0.500000  1
  P  P14  1  0.000000  0.825243  0.000000  1
  P  P15  1  0.174757  0.174757  0.000000  1
  P  P16  1  0.825243  0.000000  0.000000  1
  Rh  Rh17  1  0.634635  0.828497  0.000000  1
  Rh  Rh18  1  0.171503  0.806137  0.000000  1
  Rh  Rh19  1  0.193863  0.365365  0.000000  1
  Rh  Rh20  1  0.365365  0.193863  0.000000  1
  Rh  Rh21  1  0.828497  0.634635  0.000000  1
  Rh  Rh22  1  0.806137  0.171503  0.000000  1
  Rh  Rh23  1  0.000000  0.547359  0.000000  1
  Rh  Rh24  1  0.452641  0.452641  0.000000  1
  Rh  Rh25  1  0.547359  0.000000  0.000000  1
  Rh  Rh26  1  0.516743  0.649331  0.500000  1
  Rh  Rh27  1  0.350669  0.867412  0.500000  1
  Rh  Rh28  1  0.132588  0.483257  0.500000  1
  Rh  Rh29  1  0.483257  0.132588  0.500000  1
  Rh  Rh30  1  0.649331  0.516743  0.500000  1
  Rh  Rh31  1  0.867412  0.350669  0.500000  1
  Rh  Rh32  1  0.000000  0.732000  0.500000  1
  Rh  Rh33  1  0.268000  0.268000  0.500000  1
  Rh  Rh34  1  0.732000  0.000000  0.500000  1
  Rh  Rh35  1  0.000000  0.000000  0.000000  1
