# generated using pymatgen
data_YHo7Sc12Si15Ag
_symmetry_space_group_name_H-M   'P 1'
_cell_length_a   7.11954038
_cell_length_b   7.36252257
_cell_length_c   14.05214515
_cell_angle_alpha   89.89335287
_cell_angle_beta   89.61244487
_cell_angle_gamma   90.18297820
_symmetry_Int_Tables_number   1
_chemical_formula_structural   YHo7Sc12Si15Ag
_chemical_formula_sum   'Y1 Ho7 Sc12 Si15 Ag1'
_cell_volume   736.56029489
_cell_formula_units_Z   1
loop_
 _symmetry_equiv_pos_site_id
 _symmetry_equiv_pos_as_xyz
  1  'x, y, z'
loop_
 _atom_site_type_symbol
 _atom_site_label
 _atom_site_symmetry_multiplicity
 _atom_site_fract_x
 _atom_site_fract_y
 _atom_site_fract_z
 _atom_site_occupancy
  Y  Y0  1  0.012229  0.175273  0.097569  1
  Ho  Ho1  1  0.987461  0.825490  0.903685  1
  Ho  Ho2  1  0.487177  0.676809  0.903518  1
  Ho  Ho3  1  0.988225  0.830561  0.597760  1
  Ho  Ho4  1  0.512217  0.323721  0.096779  1
  Ho  Ho5  1  0.009234  0.171977  0.398976  1
  Ho  Ho6  1  0.512250  0.322993  0.400152  1
  Ho  Ho7  1  0.493612  0.678178  0.599785  1
  Sc  Sc8  1  0.163105  0.501917  0.752990  1
  Sc  Sc9  1  0.837694  0.498427  0.250954  1
  Sc  Sc10  1  0.337973  0.000516  0.249050  1
  Sc  Sc11  1  0.664576  0.995923  0.751159  1
  Sc  Sc12  1  0.340889  0.173151  0.626708  1
  Sc  Sc13  1  0.665426  0.823183  0.373904  1
  Sc  Sc14  1  0.167584  0.675267  0.372216  1
  Sc  Sc15  1  0.669860  0.824183  0.124794  1
  Sc  Sc16  1  0.826207  0.325243  0.625300  1
  Sc  Sc17  1  0.328880  0.175313  0.876078  1
  Sc  Sc18  1  0.830213  0.322747  0.875859  1
  Sc  Sc19  1  0.169145  0.676497  0.125130  1
  Si  Si20  1  0.035728  0.120331  0.750092  1
  Si  Si21  1  0.965566  0.883533  0.249023  1
  Si  Si22  1  0.466768  0.615099  0.248298  1
  Si  Si23  1  0.534193  0.386042  0.751996  1
  Si  Si24  1  0.284901  0.873150  0.750850  1
  Si  Si25  1  0.712753  0.127939  0.248702  1
  Si  Si26  1  0.214865  0.370854  0.248808  1
  Si  Si27  1  0.787986  0.628052  0.752312  1
  Si  Si28  1  0.834751  0.537311  0.459308  1
  Si  Si29  1  0.337839  0.962420  0.460776  1
  Si  Si30  1  0.843003  0.535577  0.038977  1
  Si  Si31  1  0.659297  0.035881  0.537898  1
  Si  Si32  1  0.156000  0.465020  0.961646  1
  Si  Si33  1  0.657381  0.034742  0.960657  1
  Si  Si34  1  0.342884  0.964408  0.039659  1
  Ag  Ag35  1  0.162129  0.462274  0.538631  1
