# generated using pymatgen
data_PrZnCdPd3
_symmetry_space_group_name_H-M   'P 1'
_cell_length_a   5.52609584
_cell_length_b   5.52609587
_cell_length_c   5.28614400
_cell_angle_alpha   58.48670999
_cell_angle_beta   58.48672194
_cell_angle_gamma   59.99999917
_symmetry_Int_Tables_number   1
_chemical_formula_structural   PrZnCdPd3
_chemical_formula_sum   'Pr1 Zn1 Cd1 Pd3'
_cell_volume   111.46506327
_cell_formula_units_Z   1
loop_
 _symmetry_equiv_pos_site_id
 _symmetry_equiv_pos_as_xyz
  1  'x, y, z'
loop_
 _atom_site_type_symbol
 _atom_site_label
 _atom_site_symmetry_multiplicity
 _atom_site_fract_x
 _atom_site_fract_y
 _atom_site_fract_z
 _atom_site_occupancy
  Pr  Pr0  1  0.751467  0.751467  0.745599  1
  Zn  Zn1  1  0.373885  0.373885  0.878345  1
  Cd  Cd2  1  0.003698  0.003698  0.988905  1
  Pd  Pd3  1  0.372300  0.876350  0.379051  1
  Pd  Pd4  1  0.372300  0.372300  0.379051  1
  Pd  Pd5  1  0.876350  0.372300  0.379051  1
