# generated using pymatgen
data_Cs8SrSnBr12
_symmetry_space_group_name_H-M   'P 1'
_cell_length_a   10.01346436
_cell_length_b   10.01346517
_cell_length_c   10.01346606
_cell_angle_alpha   89.11860922
_cell_angle_beta   89.11860703
_cell_angle_gamma   89.11861092
_symmetry_Int_Tables_number   1
_chemical_formula_structural   Cs8SrSnBr12
_chemical_formula_sum   'Cs8 Sr1 Sn1 Br12'
_cell_volume   1003.69222274
_cell_formula_units_Z   1
loop_
 _symmetry_equiv_pos_site_id
 _symmetry_equiv_pos_as_xyz
  1  'x, y, z'
loop_
 _atom_site_type_symbol
 _atom_site_label
 _atom_site_symmetry_multiplicity
 _atom_site_fract_x
 _atom_site_fract_y
 _atom_site_fract_z
 _atom_site_occupancy
  Cs  Cs0  1  0.250316  0.250316  0.250316  1
  Cs  Cs1  1  0.749684  0.749684  0.749684  1
  Cs  Cs2  1  0.250117  0.625647  0.873899  1
  Cs  Cs3  1  0.873899  0.250117  0.625647  1
  Cs  Cs4  1  0.625647  0.873899  0.250117  1
  Cs  Cs5  1  0.749883  0.374353  0.126101  1
  Cs  Cs6  1  0.126101  0.749883  0.374353  1
  Cs  Cs7  1  0.374353  0.126101  0.749883  1
  Sr  Sr8  1  0.000000  0.000000  0.000000  1
  Sn  Sn9  1  0.500000  0.500000  0.500000  1
  Br  Br10  1  0.560519  0.210494  0.428434  1
  Br  Br11  1  0.428434  0.560519  0.210494  1
  Br  Br12  1  0.210494  0.428434  0.560519  1
  Br  Br13  1  0.939206  0.071955  0.290944  1
  Br  Br14  1  0.290944  0.939206  0.071955  1
  Br  Br15  1  0.071955  0.290944  0.939206  1
  Br  Br16  1  0.439481  0.789506  0.571566  1
  Br  Br17  1  0.571566  0.439481  0.789506  1
  Br  Br18  1  0.789506  0.571566  0.439481  1
  Br  Br19  1  0.060794  0.928045  0.709056  1
  Br  Br20  1  0.928045  0.709056  0.060794  1
  Br  Br21  1  0.709056  0.060794  0.928045  1
