# generated using pymatgen
data_Tb8Hf3Zr(Si2Mo)8
_symmetry_space_group_name_H-M   'P 1'
_cell_length_a   7.02928700
_cell_length_b   7.02928659
_cell_length_c   12.99485344
_cell_angle_alpha   90.00362743
_cell_angle_beta   89.99637313
_cell_angle_gamma   89.98531929
_symmetry_Int_Tables_number   1
_chemical_formula_structural   Tb8Hf3Zr(Si2Mo)8
_chemical_formula_sum   'Tb8 Hf3 Zr1 Si16 Mo8'
_cell_volume   642.08702716
_cell_formula_units_Z   1
loop_
 _symmetry_equiv_pos_site_id
 _symmetry_equiv_pos_as_xyz
  1  'x, y, z'
loop_
 _atom_site_type_symbol
 _atom_site_label
 _atom_site_symmetry_multiplicity
 _atom_site_fract_x
 _atom_site_fract_y
 _atom_site_fract_z
 _atom_site_occupancy
  Tb  Tb0  1  0.996998  0.339288  0.218348  1
  Tb  Tb1  1  0.003297  0.660967  0.718726  1
  Tb  Tb2  1  0.160797  0.496480  0.468744  1
  Tb  Tb3  1  0.503099  0.839491  0.031242  1
  Tb  Tb4  1  0.839491  0.503099  0.968758  1
  Tb  Tb5  1  0.496480  0.160797  0.531256  1
  Tb  Tb6  1  0.339288  0.996998  0.781652  1
  Tb  Tb7  1  0.660967  0.003297  0.281274  1
  Hf  Hf8  1  0.831333  0.831333  0.500000  1
  Hf  Hf9  1  0.331446  0.668368  0.250024  1
  Hf  Hf10  1  0.668368  0.331446  0.749976  1
  Zr  Zr11  1  0.168039  0.168039  0.000000  1
  Si  Si12  1  0.373395  0.295692  0.317127  1
  Si  Si13  1  0.626571  0.705021  0.817723  1
  Si  Si14  1  0.204287  0.873272  0.567387  1
  Si  Si15  1  0.125769  0.794171  0.932074  1
  Si  Si16  1  0.794171  0.125769  0.067926  1
  Si  Si17  1  0.873272  0.204287  0.432613  1
  Si  Si18  1  0.295692  0.373395  0.682873  1
  Si  Si19  1  0.705021  0.626571  0.182277  1
  Si  Si20  1  0.289566  0.042428  0.189117  1
  Si  Si21  1  0.710399  0.956901  0.688864  1
  Si  Si22  1  0.457106  0.789290  0.438581  1
  Si  Si23  1  0.211784  0.543509  0.061064  1
  Si  Si24  1  0.543509  0.211784  0.938936  1
  Si  Si25  1  0.789290  0.457106  0.561419  1
  Si  Si26  1  0.042428  0.289566  0.810883  1
  Si  Si27  1  0.956901  0.710399  0.311136  1
  Mo  Mo28  1  0.160711  0.992837  0.376424  1
  Mo  Mo29  1  0.837922  0.006925  0.876200  1
  Mo  Mo30  1  0.507218  0.660793  0.626307  1
  Mo  Mo31  1  0.340303  0.494528  0.872869  1
  Mo  Mo32  1  0.494528  0.340303  0.127131  1
  Mo  Mo33  1  0.660793  0.507218  0.373693  1
  Mo  Mo34  1  0.992837  0.160711  0.623576  1
  Mo  Mo35  1  0.006925  0.837922  0.123800  1
