# generated using pymatgen
data_Y5Ho3(ReB6)4
_symmetry_space_group_name_H-M   'P 1'
_cell_length_a   3.68165700
_cell_length_b   9.17750901
_cell_length_c   11.56415001
_cell_angle_alpha   90.00453049
_cell_angle_beta   90.00000000
_cell_angle_gamma   90.00000000
_symmetry_Int_Tables_number   1
_chemical_formula_structural   Y5Ho3(ReB6)4
_chemical_formula_sum   'Y5 Ho3 Re4 B24'
_cell_volume   390.73459073
_cell_formula_units_Z   1
loop_
 _symmetry_equiv_pos_site_id
 _symmetry_equiv_pos_as_xyz
  1  'x, y, z'
loop_
 _atom_site_type_symbol
 _atom_site_label
 _atom_site_symmetry_multiplicity
 _atom_site_fract_x
 _atom_site_fract_y
 _atom_site_fract_z
 _atom_site_occupancy
  Y  Y0  1  0.000000  0.323690  0.413889  1
  Y  Y1  1  0.000000  0.676313  0.586227  1
  Y  Y2  1  0.000000  0.823531  0.086020  1
  Y  Y3  1  0.000000  0.176463  0.913847  1
  Y  Y4  1  0.000000  0.943464  0.370317  1
  Ho  Ho5  1  0.000000  0.056745  0.630177  1
  Ho  Ho6  1  0.000000  0.443344  0.129872  1
  Ho  Ho7  1  0.000000  0.556651  0.870042  1
  Re  Re8  1  0.000000  0.638593  0.320553  1
  Re  Re9  1  0.000000  0.360817  0.679462  1
  Re  Re10  1  0.000000  0.139556  0.178994  1
  Re  Re11  1  0.000000  0.860798  0.820620  1
  B  B12  1  0.500000  0.553418  0.432735  1
  B  B13  1  0.500000  0.446412  0.567335  1
  B  B14  1  0.500000  0.053594  0.067189  1
  B  B15  1  0.500000  0.946443  0.932675  1
  B  B16  1  0.500000  0.748924  0.418558  1
  B  B17  1  0.500000  0.250641  0.581597  1
  B  B18  1  0.500000  0.249480  0.081493  1
  B  B19  1  0.500000  0.750592  0.918459  1
  B  B20  1  0.500000  0.791972  0.265590  1
  B  B21  1  0.500000  0.207697  0.734208  1
  B  B22  1  0.500000  0.292482  0.234129  1
  B  B23  1  0.500000  0.707656  0.765842  1
  B  B24  1  0.500000  0.630795  0.185688  1
  B  B25  1  0.500000  0.369102  0.814241  1
  B  B26  1  0.500000  0.131353  0.314085  1
  B  B27  1  0.500000  0.869076  0.685845  1
  B  B28  1  0.500000  0.982847  0.211807  1
  B  B29  1  0.500000  0.017274  0.787853  1
  B  B30  1  0.500000  0.482626  0.287785  1
  B  B31  1  0.500000  0.517283  0.712185  1
  B  B32  1  0.500000  0.599751  0.027900  1
  B  B33  1  0.500000  0.400256  0.972053  1
  B  B34  1  0.500000  0.100368  0.472347  1
  B  B35  1  0.500000  0.899993  0.528384  1
