# generated using pymatgen
data_Ce6Ni6Bi5Sb3
_symmetry_space_group_name_H-M   'P 1'
_cell_length_a   8.36302854
_cell_length_b   8.36302878
_cell_length_c   8.34730400
_cell_angle_alpha   109.43313862
_cell_angle_beta   109.43313919
_cell_angle_gamma   109.50928150
_symmetry_Int_Tables_number   1
_chemical_formula_structural   Ce6Ni6Bi5Sb3
_chemical_formula_sum   'Ce6 Ni6 Bi5 Sb3'
_cell_volume   449.63009404
_cell_formula_units_Z   1
loop_
 _symmetry_equiv_pos_site_id
 _symmetry_equiv_pos_as_xyz
  1  'x, y, z'
loop_
 _atom_site_type_symbol
 _atom_site_label
 _atom_site_symmetry_multiplicity
 _atom_site_fract_x
 _atom_site_fract_y
 _atom_site_fract_z
 _atom_site_occupancy
  Ce  Ce0  1  0.883150  0.251297  0.130997  1
  Ce  Ce1  1  0.620852  0.747657  0.370832  1
  Ce  Ce2  1  0.248703  0.131853  0.879700  1
  Ce  Ce3  1  0.752343  0.373195  0.623176  1
  Ce  Ce4  1  0.126805  0.879148  0.249980  1
  Ce  Ce5  1  0.368147  0.616850  0.747846  1
  Ni  Ni6  1  0.366306  0.249663  0.616495  1
  Ni  Ni7  1  0.122643  0.741639  0.875556  1
  Ni  Ni8  1  0.250337  0.616643  0.366832  1
  Ni  Ni9  1  0.758361  0.881003  0.133916  1
  Ni  Ni10  1  0.618997  0.377357  0.252913  1
  Ni  Ni11  1  0.883357  0.133694  0.750188  1
  Bi  Bi12  1  0.663324  0.498050  0.998596  1
  Bi  Bi13  1  0.500000  0.000000  0.664667  1
  Bi  Bi14  1  0.001950  0.665274  0.500545  1
  Bi  Bi15  1  0.834726  0.836676  0.835271  1
  Bi  Bi16  1  0.500000  0.000000  0.160924  1
  Sb  Sb17  1  0.159148  0.501588  0.000767  1
  Sb  Sb18  1  0.998412  0.157560  0.499180  1
  Sb  Sb19  1  0.342440  0.340852  0.341620  1
