# generated using pymatgen
data_Er2Nb3Si7Pt9
_symmetry_space_group_name_H-M   'P 1'
_cell_length_a   9.89032200
_cell_length_b   9.89032191
_cell_length_c   4.01160500
_cell_angle_alpha   90.00000000
_cell_angle_beta   90.00000000
_cell_angle_gamma   120.00000030
_symmetry_Int_Tables_number   1
_chemical_formula_structural   Er2Nb3Si7Pt9
_chemical_formula_sum   'Er2 Nb3 Si7 Pt9'
_cell_volume   339.83621086
_cell_formula_units_Z   1
loop_
 _symmetry_equiv_pos_site_id
 _symmetry_equiv_pos_as_xyz
  1  'x, y, z'
loop_
 _atom_site_type_symbol
 _atom_site_label
 _atom_site_symmetry_multiplicity
 _atom_site_fract_x
 _atom_site_fract_y
 _atom_site_fract_z
 _atom_site_occupancy
  Er  Er0  1  0.000000  0.000000  0.000000  1
  Er  Er1  1  0.333333  0.666667  0.500000  1
  Nb  Nb2  1  0.883196  0.455970  0.500000  1
  Nb  Nb3  1  0.572775  0.116804  0.500000  1
  Nb  Nb4  1  0.544030  0.427225  0.500000  1
  Si  Si5  1  0.256522  0.211166  0.500000  1
  Si  Si6  1  0.788834  0.045358  0.500000  1
  Si  Si7  1  0.954642  0.743478  0.500000  1
  Si  Si8  1  0.553238  0.635113  0.000000  1
  Si  Si9  1  0.364887  0.918124  0.000000  1
  Si  Si10  1  0.081876  0.446762  0.000000  1
  Si  Si11  1  0.666667  0.333333  0.000000  1
  Pt  Pt12  1  0.223147  0.942889  0.500000  1
  Pt  Pt13  1  0.057111  0.280258  0.500000  1
  Pt  Pt14  1  0.719742  0.776853  0.500000  1
  Pt  Pt15  1  0.304300  0.409010  0.000000  1
  Pt  Pt16  1  0.590990  0.895290  0.000000  1
  Pt  Pt17  1  0.104710  0.695700  0.000000  1
  Pt  Pt18  1  0.385797  0.173911  0.000000  1
  Pt  Pt19  1  0.826089  0.211887  0.000000  1
  Pt  Pt20  1  0.788113  0.614203  0.000000  1
