# generated using pymatgen
data_Pa8Si15Ir
_symmetry_space_group_name_H-M   'P 1'
_cell_length_a   8.12910800
_cell_length_b   8.12910847
_cell_length_c   7.85692800
_cell_angle_alpha   90.00000000
_cell_angle_beta   90.00000000
_cell_angle_gamma   120.00000624
_symmetry_Int_Tables_number   1
_chemical_formula_structural   Pa8Si15Ir
_chemical_formula_sum   'Pa8 Si15 Ir1'
_cell_volume   449.64440065
_cell_formula_units_Z   1
loop_
 _symmetry_equiv_pos_site_id
 _symmetry_equiv_pos_as_xyz
  1  'x, y, z'
loop_
 _atom_site_type_symbol
 _atom_site_label
 _atom_site_symmetry_multiplicity
 _atom_site_fract_x
 _atom_site_fract_y
 _atom_site_fract_z
 _atom_site_occupancy
  Pa  Pa0  1  0.498766  0.501234  0.748535  1
  Pa  Pa1  1  0.499072  0.500928  0.251529  1
  Pa  Pa2  1  0.002471  0.501234  0.748535  1
  Pa  Pa3  1  0.001859  0.500928  0.251529  1
  Pa  Pa4  1  0.498766  0.997529  0.748535  1
  Pa  Pa5  1  0.499072  0.998141  0.251529  1
  Pa  Pa6  1  0.000000  0.000000  0.747371  1
  Pa  Pa7  1  0.000000  0.000000  0.252498  1
  Si  Si8  1  0.836566  0.163434  0.000017  1
  Si  Si9  1  0.168206  0.831794  0.999922  1
  Si  Si10  1  0.326869  0.163434  0.000017  1
  Si  Si11  1  0.167192  0.832808  0.500042  1
  Si  Si12  1  0.663586  0.831794  0.999922  1
  Si  Si13  1  0.833202  0.166798  0.499893  1
  Si  Si14  1  0.836566  0.673131  0.000017  1
  Si  Si15  1  0.665615  0.832808  0.500042  1
  Si  Si16  1  0.168206  0.336414  0.999922  1
  Si  Si17  1  0.333596  0.166798  0.499893  1
  Si  Si18  1  0.167192  0.334385  0.500042  1
  Si  Si19  1  0.833202  0.666404  0.499893  1
  Si  Si20  1  0.333333  0.666667  0.000585  1
  Si  Si21  1  0.333333  0.666667  0.499520  1
  Si  Si22  1  0.666667  0.333333  0.500633  1
  Ir  Ir23  1  0.666667  0.333333  0.999583  1
