# generated using pymatgen
data_Nd2FeNiO6
_symmetry_space_group_name_H-M   'P 1'
_cell_length_a   5.43798069
_cell_length_b   5.68558700
_cell_length_c   7.75750526
_cell_angle_alpha   89.99997601
_cell_angle_beta   89.83346767
_cell_angle_gamma   89.99999243
_symmetry_Int_Tables_number   1
_chemical_formula_structural   Nd2FeNiO6
_chemical_formula_sum   'Nd4 Fe2 Ni2 O12'
_cell_volume   239.84640580
_cell_formula_units_Z   2
loop_
 _symmetry_equiv_pos_site_id
 _symmetry_equiv_pos_as_xyz
  1  'x, y, z'
loop_
 _atom_site_type_symbol
 _atom_site_label
 _atom_site_symmetry_multiplicity
 _atom_site_fract_x
 _atom_site_fract_y
 _atom_site_fract_z
 _atom_site_occupancy
  Nd  Nd0  1  0.485173  0.438316  0.749790  1
  Nd  Nd1  1  0.014827  0.938316  0.750210  1
  Nd  Nd2  1  0.514827  0.561684  0.250210  1
  Nd  Nd3  1  0.985173  0.061684  0.249790  1
  Fe  Fe4  1  0.500000  0.000000  0.000000  1
  Fe  Fe5  1  0.000000  0.500000  0.500000  1
  Ni  Ni6  1  0.500000  0.000000  0.500000  1
  Ni  Ni7  1  0.000000  0.500000  0.000000  1
  O  O8  1  0.207753  0.197827  0.955199  1
  O  O9  1  0.292247  0.697827  0.544801  1
  O  O10  1  0.792247  0.802173  0.044801  1
  O  O11  1  0.707752  0.302173  0.455199  1
  O  O12  1  0.200688  0.206004  0.546890  1
  O  O13  1  0.299312  0.706004  0.953110  1
  O  O14  1  0.799312  0.793996  0.453110  1
  O  O15  1  0.700688  0.293996  0.046890  1
  O  O16  1  0.087020  0.477620  0.253102  1
  O  O17  1  0.412980  0.977621  0.246898  1
  O  O18  1  0.912980  0.522380  0.746899  1
  O  O19  1  0.587020  0.022379  0.753102  1
