# generated using pymatgen
data_Y4MnRuC8
_symmetry_space_group_name_H-M   'P 1'
_cell_length_a   6.63689790
_cell_length_b   6.63689663
_cell_length_c   6.63689694
_cell_angle_alpha   134.05654481
_cell_angle_beta   109.87506214
_cell_angle_gamma   87.97484301
_symmetry_Int_Tables_number   1
_chemical_formula_structural   Y4MnRuC8
_chemical_formula_sum   'Y4 Mn1 Ru1 C8'
_cell_volume   188.63442610
_cell_formula_units_Z   1
loop_
 _symmetry_equiv_pos_site_id
 _symmetry_equiv_pos_as_xyz
  1  'x, y, z'
loop_
 _atom_site_type_symbol
 _atom_site_label
 _atom_site_symmetry_multiplicity
 _atom_site_fract_x
 _atom_site_fract_y
 _atom_site_fract_z
 _atom_site_occupancy
  Y  Y0  1  0.504313  0.355524  0.154231  1
  Y  Y1  1  0.495687  0.649917  0.851210  1
  Y  Y2  1  0.201293  0.850083  0.345769  1
  Y  Y3  1  0.798707  0.144476  0.648790  1
  Mn  Mn4  1  0.000000  0.750000  0.750000  1
  Ru  Ru5  1  0.000000  0.250000  0.250000  1
  C  C6  1  0.251129  0.054552  0.149318  1
  C  C7  1  0.748871  0.898188  0.803422  1
  C  C8  1  0.905234  0.601812  0.350682  1
  C  C9  1  0.094766  0.445448  0.696578  1
  C  C10  1  0.468344  0.128058  0.339943  1
  C  C11  1  0.531656  0.871600  0.659716  1
  C  C12  1  0.788116  0.628400  0.160057  1
  C  C13  1  0.211884  0.371942  0.840284  1
