# generated using pymatgen
data_Ba4SiGe3Pd4
_symmetry_space_group_name_H-M   'P 1'
_cell_length_a   6.84759523
_cell_length_b   6.84759523
_cell_length_c   6.84759523
_cell_angle_alpha   89.97916357
_cell_angle_beta   89.97916357
_cell_angle_gamma   89.97916357
_symmetry_Int_Tables_number   1
_chemical_formula_structural   Ba4SiGe3Pd4
_chemical_formula_sum   'Ba4 Si1 Ge3 Pd4'
_cell_volume   321.08066617
_cell_formula_units_Z   1
loop_
 _symmetry_equiv_pos_site_id
 _symmetry_equiv_pos_as_xyz
  1  'x, y, z'
loop_
 _atom_site_type_symbol
 _atom_site_label
 _atom_site_symmetry_multiplicity
 _atom_site_fract_x
 _atom_site_fract_y
 _atom_site_fract_z
 _atom_site_occupancy
  Ba  Ba0  1  0.366368  0.866142  0.634327  1
  Ba  Ba1  1  0.866142  0.634327  0.366368  1
  Ba  Ba2  1  0.634327  0.366368  0.866142  1
  Ba  Ba3  1  0.134151  0.134151  0.134151  1
  Si  Si4  1  0.842694  0.842694  0.842694  1
  Ge  Ge5  1  0.661373  0.156917  0.340371  1
  Ge  Ge6  1  0.156917  0.340371  0.661373  1
  Ge  Ge7  1  0.340371  0.661373  0.156917  1
  Pd  Pd8  1  0.084438  0.600659  0.905618  1
  Pd  Pd9  1  0.600659  0.905618  0.084438  1
  Pd  Pd10  1  0.905618  0.084438  0.600659  1
  Pd  Pd11  1  0.406941  0.406941  0.406941  1
