# generated using pymatgen
data_Rb2Ga3AgF12
_symmetry_space_group_name_H-M   'P 1'
_cell_length_a   7.77366018
_cell_length_b   7.77366027
_cell_length_c   7.77366100
_cell_angle_alpha   56.23134940
_cell_angle_beta   56.23134895
_cell_angle_gamma   56.23134691
_symmetry_Int_Tables_number   1
_chemical_formula_structural   Rb2Ga3AgF12
_chemical_formula_sum   'Rb2 Ga3 Ag1 F12'
_cell_volume   303.20023226
_cell_formula_units_Z   1
loop_
 _symmetry_equiv_pos_site_id
 _symmetry_equiv_pos_as_xyz
  1  'x, y, z'
loop_
 _atom_site_type_symbol
 _atom_site_label
 _atom_site_symmetry_multiplicity
 _atom_site_fract_x
 _atom_site_fract_y
 _atom_site_fract_z
 _atom_site_occupancy
  Rb  Rb0  1  0.627225  0.627225  0.627225  1
  Rb  Rb1  1  0.372775  0.372775  0.372775  1
  Ga  Ga2  1  0.500000  0.000000  0.000000  1
  Ga  Ga3  1  0.000000  0.000000  0.500000  1
  Ga  Ga4  1  0.000000  0.500000  0.000000  1
  Ag  Ag5  1  0.000000  0.000000  0.000000  1
  F  F6  1  0.097796  0.097796  0.593507  1
  F  F7  1  0.593507  0.097796  0.097796  1
  F  F8  1  0.097796  0.593507  0.097796  1
  F  F9  1  0.902204  0.406493  0.902204  1
  F  F10  1  0.902204  0.902204  0.406493  1
  F  F11  1  0.406493  0.902204  0.902204  1
  F  F12  1  0.904572  0.297169  0.297169  1
  F  F13  1  0.297169  0.297169  0.904572  1
  F  F14  1  0.297169  0.904572  0.297169  1
  F  F15  1  0.702831  0.095428  0.702831  1
  F  F16  1  0.095428  0.702831  0.702831  1
  F  F17  1  0.702831  0.702831  0.095428  1
