# generated using pymatgen
data_Rb2NaPu3O12
_symmetry_space_group_name_H-M   'P 1'
_cell_length_a   7.49096451
_cell_length_b   8.01094084
_cell_length_c   10.75597627
_cell_angle_alpha   89.90989086
_cell_angle_beta   85.20658667
_cell_angle_gamma   89.49783920
_symmetry_Int_Tables_number   1
_chemical_formula_structural   Rb2NaPu3O12
_chemical_formula_sum   'Rb4 Na2 Pu6 O24'
_cell_volume   643.18016945
_cell_formula_units_Z   2
loop_
 _symmetry_equiv_pos_site_id
 _symmetry_equiv_pos_as_xyz
  1  'x, y, z'
loop_
 _atom_site_type_symbol
 _atom_site_label
 _atom_site_symmetry_multiplicity
 _atom_site_fract_x
 _atom_site_fract_y
 _atom_site_fract_z
 _atom_site_occupancy
  Rb  Rb0  1  0.520746  0.748413  0.606991  1
  Rb  Rb1  1  0.479254  0.251587  0.393009  1
  Rb  Rb2  1  0.021438  0.261391  0.142329  1
  Rb  Rb3  1  0.978562  0.738609  0.857671  1
  Na  Na4  1  0.709128  0.236011  0.745952  1
  Na  Na5  1  0.290872  0.763989  0.254048  1
  Pu  Pu6  1  0.814252  0.748111  0.214243  1
  Pu  Pu7  1  0.185748  0.251889  0.785757  1
  Pu  Pu8  1  0.000000  0.500000  0.500000  1
  Pu  Pu9  1  0.000000  0.000000  0.500000  1
  Pu  Pu10  1  0.500000  0.000000  0.000000  1
  Pu  Pu11  1  0.500000  0.500000  0.000000  1
  O  O12  1  0.034172  0.729986  0.126475  1
  O  O13  1  0.965828  0.270014  0.873525  1
  O  O14  1  0.596737  0.765641  0.306688  1
  O  O15  1  0.403263  0.234359  0.693312  1
  O  O16  1  0.776351  0.433773  0.566368  1
  O  O17  1  0.223649  0.566227  0.433632  1
  O  O18  1  0.761400  0.049385  0.543906  1
  O  O19  1  0.238600  0.950615  0.456094  1
  O  O20  1  0.625942  0.951435  0.849044  1
  O  O21  1  0.374058  0.048565  0.150956  1
  O  O22  1  0.617768  0.535856  0.845064  1
  O  O23  1  0.382232  0.464144  0.154936  1
  O  O24  1  0.588538  0.229410  0.985659  1
  O  O25  1  0.411462  0.770590  0.014341  1
  O  O26  1  0.279611  0.444163  0.920367  1
  O  O27  1  0.720389  0.555837  0.079633  1
  O  O28  1  0.252711  0.070826  0.898009  1
  O  O29  1  0.747289  0.929174  0.101991  1
  O  O30  1  0.056348  0.053626  0.670881  1
  O  O31  1  0.943652  0.946374  0.329119  1
  O  O32  1  0.946204  0.730640  0.562452  1
  O  O33  1  0.053796  0.269360  0.437548  1
  O  O34  1  0.116947  0.441779  0.680014  1
  O  O35  1  0.883053  0.558221  0.319986  1
