# generated using pymatgen
data_Tb2Dy4TaCo17P12
_symmetry_space_group_name_H-M   'P 1'
_cell_length_a   3.70464500
_cell_length_b   10.58679100
_cell_length_c   12.28327000
_cell_angle_alpha   90.00000000
_cell_angle_beta   90.00000000
_cell_angle_gamma   90.00000000
_symmetry_Int_Tables_number   1
_chemical_formula_structural   Tb2Dy4TaCo17P12
_chemical_formula_sum   'Tb2 Dy4 Ta1 Co17 P12'
_cell_volume   481.75356318
_cell_formula_units_Z   1
loop_
 _symmetry_equiv_pos_site_id
 _symmetry_equiv_pos_as_xyz
  1  'x, y, z'
loop_
 _atom_site_type_symbol
 _atom_site_label
 _atom_site_symmetry_multiplicity
 _atom_site_fract_x
 _atom_site_fract_y
 _atom_site_fract_z
 _atom_site_occupancy
  Tb  Tb0  1  0.000000  0.500000  0.527095  1
  Tb  Tb1  1  0.500000  0.000000  0.477633  1
  Dy  Dy2  1  0.500000  0.819856  0.207170  1
  Dy  Dy3  1  0.500000  0.180144  0.207170  1
  Dy  Dy4  1  0.000000  0.682831  0.796221  1
  Dy  Dy5  1  0.000000  0.317169  0.796221  1
  Ta  Ta6  1  0.500000  0.500000  0.153945  1
  Co  Co7  1  0.000000  0.000000  0.838827  1
  Co  Co8  1  0.500000  0.500000  0.702489  1
  Co  Co9  1  0.000000  0.000000  0.296357  1
  Co  Co10  1  0.000000  0.500000  0.985292  1
  Co  Co11  1  0.500000  0.000000  0.014172  1
  Co  Co12  1  0.500000  0.330333  0.990137  1
  Co  Co13  1  0.500000  0.669667  0.990137  1
  Co  Co14  1  0.000000  0.163957  0.003988  1
  Co  Co15  1  0.000000  0.836043  0.003988  1
  Co  Co16  1  0.500000  0.295135  0.432330  1
  Co  Co17  1  0.500000  0.704865  0.432330  1
  Co  Co18  1  0.000000  0.202799  0.569701  1
  Co  Co19  1  0.000000  0.797201  0.569701  1
  Co  Co20  1  0.500000  0.879753  0.708507  1
  Co  Co21  1  0.500000  0.120247  0.708507  1
  Co  Co22  1  0.000000  0.622145  0.293037  1
  Co  Co23  1  0.000000  0.377855  0.293037  1
  P  P24  1  0.500000  0.500000  0.880997  1
  P  P25  1  0.000000  0.000000  0.116787  1
  P  P26  1  0.500000  0.500000  0.355617  1
  P  P27  1  0.000000  0.000000  0.656201  1
  P  P28  1  0.500000  0.309321  0.617269  1
  P  P29  1  0.500000  0.690679  0.617269  1
  P  P30  1  0.000000  0.188798  0.385549  1
  P  P31  1  0.000000  0.811202  0.385549  1
  P  P32  1  0.500000  0.851311  0.890211  1
  P  P33  1  0.500000  0.148689  0.890211  1
  P  P34  1  0.000000  0.661142  0.103176  1
  P  P35  1  0.000000  0.338858  0.103176  1
