# generated using pymatgen
data_Zr4TiCuSb3
_symmetry_space_group_name_H-M   'P 1'
_cell_length_a   8.58732000
_cell_length_b   8.58731927
_cell_length_c   5.77020600
_cell_angle_alpha   90.00000000
_cell_angle_beta   90.00000000
_cell_angle_gamma   119.99999512
_symmetry_Int_Tables_number   1
_chemical_formula_structural   Zr4TiCuSb3
_chemical_formula_sum   'Zr8 Ti2 Cu2 Sb6'
_cell_volume   368.49977552
_cell_formula_units_Z   2
loop_
 _symmetry_equiv_pos_site_id
 _symmetry_equiv_pos_as_xyz
  1  'x, y, z'
loop_
 _atom_site_type_symbol
 _atom_site_label
 _atom_site_symmetry_multiplicity
 _atom_site_fract_x
 _atom_site_fract_y
 _atom_site_fract_z
 _atom_site_occupancy
  Zr  Zr0  1  0.333333  0.666667  0.500000  1
  Zr  Zr1  1  0.666667  0.333333  0.500000  1
  Zr  Zr2  1  0.734742  0.734742  0.747545  1
  Zr  Zr3  1  0.265258  0.000000  0.747545  1
  Zr  Zr4  1  0.000000  0.265258  0.747545  1
  Zr  Zr5  1  0.265258  0.265258  0.252455  1
  Zr  Zr6  1  0.734742  0.000000  0.252455  1
  Zr  Zr7  1  0.000000  0.734742  0.252455  1
  Ti  Ti8  1  0.666667  0.333333  0.000000  1
  Ti  Ti9  1  0.333333  0.666667  0.000000  1
  Cu  Cu10  1  0.000000  0.000000  0.500000  1
  Cu  Cu11  1  0.000000  0.000000  0.000000  1
  Sb  Sb12  1  0.386865  0.386865  0.756905  1
  Sb  Sb13  1  0.613135  0.000000  0.756905  1
  Sb  Sb14  1  0.000000  0.613135  0.756905  1
  Sb  Sb15  1  0.613135  0.613135  0.243095  1
  Sb  Sb16  1  0.386865  0.000000  0.243095  1
  Sb  Sb17  1  0.000000  0.386865  0.243095  1
