# generated using pymatgen
data_Tb2Dy10Co4NiSn
_symmetry_space_group_name_H-M   'P 1'
_cell_length_a   8.29501459
_cell_length_b   8.29501445
_cell_length_c   8.29501413
_cell_angle_alpha   107.10155127
_cell_angle_beta   110.54498652
_cell_angle_gamma   110.79289924
_symmetry_Int_Tables_number   1
_chemical_formula_structural   Tb2Dy10Co4NiSn
_chemical_formula_sum   'Tb2 Dy10 Co4 Ni1 Sn1'
_cell_volume   438.80622827
_cell_formula_units_Z   1
loop_
 _symmetry_equiv_pos_site_id
 _symmetry_equiv_pos_as_xyz
  1  'x, y, z'
loop_
 _atom_site_type_symbol
 _atom_site_label
 _atom_site_symmetry_multiplicity
 _atom_site_fract_x
 _atom_site_fract_y
 _atom_site_fract_z
 _atom_site_occupancy
  Tb  Tb0  1  0.477983  0.292248  0.185736  1
  Tb  Tb1  1  0.106511  0.292248  0.814264  1
  Dy  Dy2  1  0.893141  0.707752  0.185390  1
  Dy  Dy3  1  0.522363  0.707752  0.814610  1
  Dy  Dy4  1  0.305412  0.620421  0.315009  1
  Dy  Dy5  1  0.305412  0.990403  0.684991  1
  Dy  Dy6  1  0.694520  0.379857  0.685336  1
  Dy  Dy7  1  0.694520  0.009183  0.314664  1
  Dy  Dy8  1  0.196037  0.210442  0.406557  1
  Dy  Dy9  1  0.803885  0.789479  0.593443  1
  Dy  Dy10  1  0.196037  0.789479  0.985594  1
  Dy  Dy11  1  0.803885  0.210442  0.014406  1
  Co  Co12  1  0.500348  0.613155  0.112808  1
  Co  Co13  1  0.500348  0.387540  0.887192  1
  Co  Co14  1  0.376479  0.999865  0.376614  1
  Co  Co15  1  0.623251  0.999865  0.623386  1
  Ni  Ni16  1  0.999819  0.999819  0.000000  1
  Sn  Sn17  1  0.000049  0.500049  0.500000  1
