# generated using pymatgen
data_La4PrYIrI10
_symmetry_space_group_name_H-M   'P 1'
_cell_length_a   8.06218430
_cell_length_b   10.06487249
_cell_length_c   10.17656604
_cell_angle_alpha   107.73374091
_cell_angle_beta   96.12163325
_cell_angle_gamma   104.62962424
_symmetry_Int_Tables_number   1
_chemical_formula_structural   La4PrYIrI10
_chemical_formula_sum   'La4 Pr1 Y1 Ir1 I10'
_cell_volume   745.78648314
_cell_formula_units_Z   1
loop_
 _symmetry_equiv_pos_site_id
 _symmetry_equiv_pos_as_xyz
  1  'x, y, z'
loop_
 _atom_site_type_symbol
 _atom_site_label
 _atom_site_symmetry_multiplicity
 _atom_site_fract_x
 _atom_site_fract_y
 _atom_site_fract_z
 _atom_site_occupancy
  La  La0  1  0.117810  0.042017  0.752211  1
  La  La1  1  0.875526  0.955122  0.245546  1
  La  La2  1  0.965564  0.280298  0.085186  1
  La  La3  1  0.029752  0.718277  0.912470  1
  Pr  Pr4  1  0.354554  0.126398  0.167871  1
  Y  Y5  1  0.653798  0.876763  0.836173  1
  Ir  Ir6  1  0.997282  0.998967  0.999242  1
  I  I7  1  0.352074  0.451324  0.270601  1
  I  I8  1  0.642497  0.558268  0.729940  1
  I  I9  1  0.258320  0.085242  0.456838  1
  I  I10  1  0.735111  0.912100  0.548286  1
  I  I11  1  0.086005  0.371925  0.819472  1
  I  I12  1  0.913978  0.628124  0.180194  1
  I  I13  1  0.454709  0.814639  0.081864  1
  I  I14  1  0.548388  0.175671  0.906725  1
  I  I15  1  0.773143  0.257231  0.349503  1
  I  I16  1  0.241488  0.747634  0.657877  1
