# generated using pymatgen
data_Eu2Ga7Au
_symmetry_space_group_name_H-M   'P 1'
_cell_length_a   4.41789500
_cell_length_b   4.41789800
_cell_length_c   10.69534100
_cell_angle_alpha   90.00000000
_cell_angle_beta   90.00000000
_cell_angle_gamma   90.00000000
_symmetry_Int_Tables_number   1
_chemical_formula_structural   Eu2Ga7Au
_chemical_formula_sum   'Eu2 Ga7 Au1'
_cell_volume   208.74962801
_cell_formula_units_Z   1
loop_
 _symmetry_equiv_pos_site_id
 _symmetry_equiv_pos_as_xyz
  1  'x, y, z'
loop_
 _atom_site_type_symbol
 _atom_site_label
 _atom_site_symmetry_multiplicity
 _atom_site_fract_x
 _atom_site_fract_y
 _atom_site_fract_z
 _atom_site_occupancy
  Eu  Eu0  1  0.000000  0.000000  0.995714  1
  Eu  Eu1  1  0.500000  0.500000  0.496361  1
  Ga  Ga2  1  0.000000  0.500000  0.250902  1
  Ga  Ga3  1  0.500000  0.000000  0.749190  1
  Ga  Ga4  1  0.500000  0.000000  0.250902  1
  Ga  Ga5  1  0.000000  0.500000  0.749190  1
  Ga  Ga6  1  0.000000  0.000000  0.617965  1
  Ga  Ga7  1  0.000000  0.000000  0.385038  1
  Ga  Ga8  1  0.500000  0.500000  0.884474  1
  Au  Au9  1  0.500000  0.500000  0.120264  1
