# generated using pymatgen
data_NaCa4Bi2As
_symmetry_space_group_name_H-M   'P 1'
_cell_length_a   8.10447200
_cell_length_b   9.55317300
_cell_length_c   12.70929700
_cell_angle_alpha   90.00000000
_cell_angle_beta   90.00000000
_cell_angle_gamma   90.00000000
_symmetry_Int_Tables_number   1
_chemical_formula_structural   NaCa4Bi2As
_chemical_formula_sum   'Na4 Ca16 Bi8 As4'
_cell_volume   983.99727880
_cell_formula_units_Z   4
loop_
 _symmetry_equiv_pos_site_id
 _symmetry_equiv_pos_as_xyz
  1  'x, y, z'
loop_
 _atom_site_type_symbol
 _atom_site_label
 _atom_site_symmetry_multiplicity
 _atom_site_fract_x
 _atom_site_fract_y
 _atom_site_fract_z
 _atom_site_occupancy
  Na  Na0  1  0.027715  0.750000  0.501133  1
  Na  Na1  1  0.972285  0.250000  0.498867  1
  Na  Na2  1  0.527715  0.250000  0.998867  1
  Na  Na3  1  0.472285  0.750000  0.001133  1
  Ca  Ca4  1  0.854767  0.750000  0.796493  1
  Ca  Ca5  1  0.145233  0.250000  0.203507  1
  Ca  Ca6  1  0.354767  0.250000  0.703507  1
  Ca  Ca7  1  0.645233  0.750000  0.296493  1
  Ca  Ca8  1  0.697097  0.510807  0.562105  1
  Ca  Ca9  1  0.302903  0.489193  0.437895  1
  Ca  Ca10  1  0.197097  0.489193  0.937895  1
  Ca  Ca11  1  0.302903  0.010807  0.437895  1
  Ca  Ca12  1  0.802903  0.510807  0.062105  1
  Ca  Ca13  1  0.697097  0.989193  0.562105  1
  Ca  Ca14  1  0.802903  0.989193  0.062105  1
  Ca  Ca15  1  0.197097  0.010807  0.937895  1
  Ca  Ca16  1  0.344479  0.750000  0.709151  1
  Ca  Ca17  1  0.655521  0.250000  0.290849  1
  Ca  Ca18  1  0.844479  0.250000  0.790849  1
  Ca  Ca19  1  0.155521  0.750000  0.209151  1
  Bi  Bi20  1  0.567993  0.504353  0.826440  1
  Bi  Bi21  1  0.432007  0.495647  0.173560  1
  Bi  Bi22  1  0.067993  0.495647  0.673560  1
  Bi  Bi23  1  0.432007  0.004353  0.173560  1
  Bi  Bi24  1  0.932007  0.504353  0.326440  1
  Bi  Bi25  1  0.567993  0.995647  0.826440  1
  Bi  Bi26  1  0.932007  0.995647  0.326440  1
  Bi  Bi27  1  0.067993  0.004353  0.673560  1
  As  As28  1  0.021666  0.750000  0.997019  1
  As  As29  1  0.978334  0.250000  0.002981  1
  As  As30  1  0.521666  0.250000  0.502981  1
  As  As31  1  0.478334  0.750000  0.497019  1
