# generated using pymatgen
data_Tb20(RuRh3)3
_symmetry_space_group_name_H-M   'P 1'
_cell_length_a   10.91085300
_cell_length_b   10.91085300
_cell_length_c   6.43391400
_cell_angle_alpha   90.00000000
_cell_angle_beta   90.00000000
_cell_angle_gamma   90.00000000
_symmetry_Int_Tables_number   1
_chemical_formula_structural   Tb20(RuRh3)3
_chemical_formula_sum   'Tb20 Ru3 Rh9'
_cell_volume   765.93631463
_cell_formula_units_Z   1
loop_
 _symmetry_equiv_pos_site_id
 _symmetry_equiv_pos_as_xyz
  1  'x, y, z'
loop_
 _atom_site_type_symbol
 _atom_site_label
 _atom_site_symmetry_multiplicity
 _atom_site_fract_x
 _atom_site_fract_y
 _atom_site_fract_z
 _atom_site_occupancy
  Tb  Tb0  1  0.294314  0.086830  0.378493  1
  Tb  Tb1  1  0.294356  0.913494  0.878680  1
  Tb  Tb2  1  0.705644  0.086506  0.878680  1
  Tb  Tb3  1  0.705686  0.913170  0.378493  1
  Tb  Tb4  1  0.586506  0.794356  0.878680  1
  Tb  Tb5  1  0.586830  0.205686  0.378493  1
  Tb  Tb6  1  0.413170  0.794314  0.378493  1
  Tb  Tb7  1  0.413494  0.205644  0.878680  1
  Tb  Tb8  1  0.207770  0.412287  0.623654  1
  Tb  Tb9  1  0.207522  0.587717  0.119057  1
  Tb  Tb10  1  0.792478  0.412283  0.119057  1
  Tb  Tb11  1  0.792230  0.587713  0.623654  1
  Tb  Tb12  1  0.912283  0.707522  0.119057  1
  Tb  Tb13  1  0.912287  0.292230  0.623654  1
  Tb  Tb14  1  0.087713  0.707770  0.623654  1
  Tb  Tb15  1  0.087717  0.292478  0.119057  1
  Tb  Tb16  1  0.000000  0.000000  0.499147  1
  Tb  Tb17  1  0.000000  0.000000  0.999408  1
  Tb  Tb18  1  0.500000  0.500000  0.999408  1
  Tb  Tb19  1  0.500000  0.500000  0.499147  1
  Ru  Ru20  1  0.500000  0.000000  0.122513  1
  Ru  Ru21  1  0.500000  0.000000  0.622382  1
  Ru  Ru22  1  0.000000  0.500000  0.878780  1
  Rh  Rh23  1  0.848061  0.153167  0.250331  1
  Rh  Rh24  1  0.847698  0.846865  0.749856  1
  Rh  Rh25  1  0.152302  0.153135  0.749856  1
  Rh  Rh26  1  0.151939  0.846833  0.250331  1
  Rh  Rh27  1  0.653135  0.347698  0.749856  1
  Rh  Rh28  1  0.653167  0.651939  0.250331  1
  Rh  Rh29  1  0.346833  0.348061  0.250331  1
  Rh  Rh30  1  0.346865  0.652302  0.749856  1
  Rh  Rh31  1  0.000000  0.500000  0.378925  1
