# generated using pymatgen
data_AcCu9Si4
_symmetry_space_group_name_H-M   'P 1'
_cell_length_a   8.24023425
_cell_length_b   8.24023477
_cell_length_c   8.24017575
_cell_angle_alpha   120.40286789
_cell_angle_beta   120.40287384
_cell_angle_gamma   89.30542793
_symmetry_Int_Tables_number   1
_chemical_formula_structural   AcCu9Si4
_chemical_formula_sum   'Ac2 Cu18 Si8'
_cell_volume   393.19353903
_cell_formula_units_Z   2
loop_
 _symmetry_equiv_pos_site_id
 _symmetry_equiv_pos_as_xyz
  1  'x, y, z'
loop_
 _atom_site_type_symbol
 _atom_site_label
 _atom_site_symmetry_multiplicity
 _atom_site_fract_x
 _atom_site_fract_y
 _atom_site_fract_z
 _atom_site_occupancy
  Ac  Ac0  1  0.750002  0.749998  0.000000  1
  Ac  Ac1  1  0.249998  0.250002  0.000000  1
  Cu  Cu2  1  0.441649  0.695049  0.499915  1
  Cu  Cu3  1  0.064388  0.796808  0.861191  1
  Cu  Cu4  1  0.935612  0.203192  0.138809  1
  Cu  Cu5  1  0.304897  0.804897  0.746575  1
  Cu  Cu6  1  0.558351  0.304951  0.500085  1
  Cu  Cu7  1  0.796827  0.935584  0.732478  1
  Cu  Cu8  1  0.435584  0.296827  0.732478  1
  Cu  Cu9  1  0.195049  0.941649  0.499915  1
  Cu  Cu10  1  0.296808  0.564388  0.861191  1
  Cu  Cu11  1  0.695103  0.195103  0.253425  1
  Cu  Cu12  1  0.000000  0.500000  0.500000  1
  Cu  Cu13  1  0.203173  0.064416  0.267522  1
  Cu  Cu14  1  0.941680  0.441680  0.746571  1
  Cu  Cu15  1  0.703192  0.435612  0.138809  1
  Cu  Cu16  1  0.058320  0.558320  0.253429  1
  Cu  Cu17  1  0.564416  0.703173  0.267522  1
  Cu  Cu18  1  0.500000  0.000000  0.500000  1
  Cu  Cu19  1  0.804951  0.058351  0.500085  1
  Si  Si20  1  0.707878  0.557640  0.500002  1
  Si  Si21  1  0.942360  0.792122  0.499998  1
  Si  Si22  1  0.207869  0.707869  0.150234  1
  Si  Si23  1  0.557628  0.057628  0.849760  1
  Si  Si24  1  0.442372  0.942372  0.150240  1
  Si  Si25  1  0.792131  0.292131  0.849766  1
  Si  Si26  1  0.292122  0.442360  0.499998  1
  Si  Si27  1  0.057640  0.207878  0.500002  1
