# generated using pymatgen
data_Tb5Pr4Sm(Sn5Rh2)4
_symmetry_space_group_name_H-M   'P 1'
_cell_length_a   14.17326600
_cell_length_b   14.17326600
_cell_length_c   4.58205300
_cell_angle_alpha   90.00000000
_cell_angle_beta   90.00000000
_cell_angle_gamma   90.00000000
_symmetry_Int_Tables_number   1
_chemical_formula_structural   Tb5Pr4Sm(Sn5Rh2)4
_chemical_formula_sum   'Tb5 Pr4 Sm1 Sn20 Rh8'
_cell_volume   920.44953817
_cell_formula_units_Z   1
loop_
 _symmetry_equiv_pos_site_id
 _symmetry_equiv_pos_as_xyz
  1  'x, y, z'
loop_
 _atom_site_type_symbol
 _atom_site_label
 _atom_site_symmetry_multiplicity
 _atom_site_fract_x
 _atom_site_fract_y
 _atom_site_fract_z
 _atom_site_occupancy
  Tb  Tb0  1  0.500000  0.500000  0.000000  1
  Tb  Tb1  1  0.677244  0.177513  0.500000  1
  Tb  Tb2  1  0.322756  0.822487  0.500000  1
  Tb  Tb3  1  0.177513  0.322756  0.500000  1
  Tb  Tb4  1  0.822487  0.677244  0.500000  1
  Pr  Pr5  1  0.888000  0.388193  0.500000  1
  Pr  Pr6  1  0.112000  0.611807  0.500000  1
  Pr  Pr7  1  0.388193  0.112000  0.500000  1
  Pr  Pr8  1  0.611807  0.888000  0.500000  1
  Sm  Sm9  1  0.000000  0.000000  0.000000  1
  Sn  Sn10  1  0.570066  0.070378  0.000000  1
  Sn  Sn11  1  0.429934  0.929622  0.000000  1
  Sn  Sn12  1  0.070378  0.429934  0.000000  1
  Sn  Sn13  1  0.929622  0.570066  0.000000  1
  Sn  Sn14  1  0.654302  0.697902  0.000000  1
  Sn  Sn15  1  0.345698  0.302098  0.000000  1
  Sn  Sn16  1  0.154427  0.801910  0.000000  1
  Sn  Sn17  1  0.845573  0.198090  0.000000  1
  Sn  Sn18  1  0.302098  0.654302  0.000000  1
  Sn  Sn19  1  0.697902  0.345698  0.000000  1
  Sn  Sn20  1  0.198090  0.154427  0.000000  1
  Sn  Sn21  1  0.801910  0.845573  0.000000  1
  Sn  Sn22  1  0.661897  0.505415  0.500000  1
  Sn  Sn23  1  0.338103  0.494585  0.500000  1
  Sn  Sn24  1  0.163254  0.994650  0.500000  1
  Sn  Sn25  1  0.836746  0.005350  0.500000  1
  Sn  Sn26  1  0.494585  0.661897  0.500000  1
  Sn  Sn27  1  0.505415  0.338103  0.500000  1
  Sn  Sn28  1  0.005350  0.163254  0.500000  1
  Sn  Sn29  1  0.994650  0.836746  0.500000  1
  Rh  Rh30  1  0.746012  0.529049  0.000000  1
  Rh  Rh31  1  0.253988  0.470951  0.000000  1
  Rh  Rh32  1  0.246832  0.970815  0.000000  1
  Rh  Rh33  1  0.753168  0.029185  0.000000  1
  Rh  Rh34  1  0.470951  0.746012  0.000000  1
  Rh  Rh35  1  0.529049  0.253988  0.000000  1
  Rh  Rh36  1  0.029185  0.246832  0.000000  1
  Rh  Rh37  1  0.970815  0.753168  0.000000  1
