# generated using pymatgen
data_Y4Fe3Co5(PRh)12
_symmetry_space_group_name_H-M   'P 1'
_cell_length_a   3.79412700
_cell_length_b   10.63285529
_cell_length_c   12.25591167
_cell_angle_alpha   89.89854136
_cell_angle_beta   90.00000000
_cell_angle_gamma   90.00000000
_symmetry_Int_Tables_number   1
_chemical_formula_structural   Y4Fe3Co5(PRh)12
_chemical_formula_sum   'Y4 Fe3 Co5 P12 Rh12'
_cell_volume   494.43215652
_cell_formula_units_Z   1
loop_
 _symmetry_equiv_pos_site_id
 _symmetry_equiv_pos_as_xyz
  1  'x, y, z'
loop_
 _atom_site_type_symbol
 _atom_site_label
 _atom_site_symmetry_multiplicity
 _atom_site_fract_x
 _atom_site_fract_y
 _atom_site_fract_z
 _atom_site_occupancy
  Y  Y0  1  0.250000  0.918779  0.209615  1
  Y  Y1  1  0.750000  0.082763  0.791271  1
  Y  Y2  1  0.750000  0.418360  0.290479  1
  Y  Y3  1  0.250000  0.580766  0.708869  1
  Fe  Fe4  1  0.250000  0.619395  0.194787  1
  Fe  Fe5  1  0.750000  0.381399  0.805166  1
  Fe  Fe6  1  0.750000  0.118657  0.305213  1
  Co  Co7  1  0.250000  0.883225  0.696560  1
  Co  Co8  1  0.250000  0.036831  0.433952  1
  Co  Co9  1  0.750000  0.962220  0.567245  1
  Co  Co10  1  0.750000  0.538042  0.065922  1
  Co  Co11  1  0.250000  0.463045  0.933759  1
  P  P12  1  0.250000  0.068197  0.610528  1
  P  P13  1  0.750000  0.933678  0.389273  1
  P  P14  1  0.750000  0.567028  0.888260  1
  P  P15  1  0.250000  0.434030  0.111287  1
  P  P16  1  0.250000  0.224991  0.368496  1
  P  P17  1  0.750000  0.772644  0.628559  1
  P  P18  1  0.750000  0.725856  0.131645  1
  P  P19  1  0.250000  0.275241  0.868893  1
  P  P20  1  0.250000  0.899080  0.881609  1
  P  P21  1  0.750000  0.100562  0.120776  1
  P  P22  1  0.750000  0.398888  0.620695  1
  P  P23  1  0.250000  0.600137  0.379064  1
  Rh  Rh24  1  0.250000  0.782110  0.492068  1
  Rh  Rh25  1  0.750000  0.214740  0.511197  1
  Rh  Rh26  1  0.750000  0.284252  0.010414  1
  Rh  Rh27  1  0.250000  0.715170  0.988886  1
  Rh  Rh28  1  0.250000  0.092061  0.978281  1
  Rh  Rh29  1  0.750000  0.908341  0.020889  1
  Rh  Rh30  1  0.750000  0.589692  0.520446  1
  Rh  Rh31  1  0.250000  0.407238  0.477907  1
  Rh  Rh32  1  0.250000  0.273358  0.678359  1
  Rh  Rh33  1  0.750000  0.727951  0.322538  1
  Rh  Rh34  1  0.750000  0.773859  0.819199  1
  Rh  Rh35  1  0.250000  0.227412  0.177891  1
