# generated using pymatgen
data_Ho2AlRuRh
_symmetry_space_group_name_H-M   'P 1'
_cell_length_a   5.52818710
_cell_length_b   5.52818645
_cell_length_c   5.52818545
_cell_angle_alpha   137.46433669
_cell_angle_beta   115.37417224
_cell_angle_gamma   80.48042612
_symmetry_Int_Tables_number   1
_chemical_formula_structural   Ho2AlRuRh
_chemical_formula_sum   'Ho2 Al1 Ru1 Rh1'
_cell_volume   100.02103439
_cell_formula_units_Z   1
loop_
 _symmetry_equiv_pos_site_id
 _symmetry_equiv_pos_as_xyz
  1  'x, y, z'
loop_
 _atom_site_type_symbol
 _atom_site_label
 _atom_site_symmetry_multiplicity
 _atom_site_fract_x
 _atom_site_fract_y
 _atom_site_fract_z
 _atom_site_occupancy
  Ho  Ho0  1  0.697602  0.201668  0.495933  1
  Ho  Ho1  1  0.294266  0.798332  0.495933  1
  Al  Al2  1  0.005323  0.000000  0.005323  1
  Ru  Ru3  1  0.261554  0.500000  0.761554  1
  Rh  Rh4  1  0.741256  0.500000  0.241256  1
