# generated using pymatgen
data_Ho3Co8P6Ru
_symmetry_space_group_name_H-M   'P 1'
_cell_length_a   3.70960100
_cell_length_b   10.52949000
_cell_length_c   12.26170600
_cell_angle_alpha   90.00000000
_cell_angle_beta   90.00000000
_cell_angle_gamma   90.00000000
_symmetry_Int_Tables_number   1
_chemical_formula_structural   Ho3Co8P6Ru
_chemical_formula_sum   'Ho6 Co16 P12 Ru2'
_cell_volume   478.94477004
_cell_formula_units_Z   2
loop_
 _symmetry_equiv_pos_site_id
 _symmetry_equiv_pos_as_xyz
  1  'x, y, z'
loop_
 _atom_site_type_symbol
 _atom_site_label
 _atom_site_symmetry_multiplicity
 _atom_site_fract_x
 _atom_site_fract_y
 _atom_site_fract_z
 _atom_site_occupancy
  Ho  Ho0  1  0.000000  0.500000  0.524558  1
  Ho  Ho1  1  0.500000  0.000000  0.475442  1
  Ho  Ho2  1  0.500000  0.817161  0.207027  1
  Ho  Ho3  1  0.500000  0.182839  0.207027  1
  Ho  Ho4  1  0.000000  0.682839  0.792973  1
  Ho  Ho5  1  0.000000  0.317161  0.792973  1
  Co  Co6  1  0.000000  0.500000  0.986130  1
  Co  Co7  1  0.500000  0.000000  0.013870  1
  Co  Co8  1  0.500000  0.297342  0.431283  1
  Co  Co9  1  0.500000  0.702658  0.431283  1
  Co  Co10  1  0.000000  0.202658  0.568717  1
  Co  Co11  1  0.000000  0.797342  0.568717  1
  Co  Co12  1  0.500000  0.878928  0.707523  1
  Co  Co13  1  0.500000  0.121072  0.707523  1
  Co  Co14  1  0.000000  0.621072  0.292477  1
  Co  Co15  1  0.000000  0.378928  0.292477  1
  Co  Co16  1  0.500000  0.332430  0.990413  1
  Co  Co17  1  0.500000  0.667570  0.990413  1
  Co  Co18  1  0.000000  0.167570  0.009587  1
  Co  Co19  1  0.000000  0.832430  0.009587  1
  Co  Co20  1  0.500000  0.500000  0.703985  1
  Co  Co21  1  0.000000  0.000000  0.296015  1
  P  P22  1  0.500000  0.311716  0.616295  1
  P  P23  1  0.500000  0.688284  0.616295  1
  P  P24  1  0.000000  0.188284  0.383705  1
  P  P25  1  0.000000  0.811716  0.383705  1
  P  P26  1  0.500000  0.500000  0.881772  1
  P  P27  1  0.000000  0.000000  0.118228  1
  P  P28  1  0.500000  0.846490  0.893149  1
  P  P29  1  0.500000  0.153510  0.893149  1
  P  P30  1  0.000000  0.653510  0.106851  1
  P  P31  1  0.000000  0.346490  0.106851  1
  P  P32  1  0.500000  0.500000  0.350417  1
  P  P33  1  0.000000  0.000000  0.649583  1
  Ru  Ru34  1  0.500000  0.500000  0.159703  1
  Ru  Ru35  1  0.000000  0.000000  0.840297  1
