# generated using pymatgen
data_Sc8Ti8VSi16W3
_symmetry_space_group_name_H-M   'P 1'
_cell_length_a   6.61275705
_cell_length_b   6.76330617
_cell_length_c   12.95362800
_cell_angle_alpha   90.00000000
_cell_angle_beta   90.00000000
_cell_angle_gamma   90.06353435
_symmetry_Int_Tables_number   1
_chemical_formula_structural   Sc8Ti8VSi16W3
_chemical_formula_sum   'Sc8 Ti8 V1 Si16 W3'
_cell_volume   579.33900580
_cell_formula_units_Z   1
loop_
 _symmetry_equiv_pos_site_id
 _symmetry_equiv_pos_as_xyz
  1  'x, y, z'
loop_
 _atom_site_type_symbol
 _atom_site_label
 _atom_site_symmetry_multiplicity
 _atom_site_fract_x
 _atom_site_fract_y
 _atom_site_fract_z
 _atom_site_occupancy
  Sc  Sc0  1  0.500386  0.674626  0.595493  1
  Sc  Sc1  1  0.001223  0.826220  0.904480  1
  Sc  Sc2  1  0.499207  0.325632  0.095839  1
  Sc  Sc3  1  0.999342  0.174255  0.404025  1
  Sc  Sc4  1  0.499207  0.325632  0.404161  1
  Sc  Sc5  1  0.999342  0.174255  0.095975  1
  Sc  Sc6  1  0.500386  0.674626  0.904507  1
  Sc  Sc7  1  0.001223  0.826220  0.595520  1
  Ti  Ti8  1  0.664484  0.173071  0.627151  1
  Ti  Ti9  1  0.164215  0.326820  0.872808  1
  Ti  Ti10  1  0.334750  0.827429  0.126458  1
  Ti  Ti11  1  0.834980  0.672642  0.373608  1
  Ti  Ti12  1  0.334750  0.827429  0.373542  1
  Ti  Ti13  1  0.834980  0.672642  0.126392  1
  Ti  Ti14  1  0.664484  0.173071  0.872849  1
  Ti  Ti15  1  0.164215  0.326820  0.627192  1
  V  V16  1  0.839512  0.488662  0.750000  1
  Si  Si17  1  0.666433  0.964473  0.459508  1
  Si  Si18  1  0.165645  0.535227  0.040547  1
  Si  Si19  1  0.334214  0.036258  0.959122  1
  Si  Si20  1  0.834489  0.464890  0.541435  1
  Si  Si21  1  0.334214  0.036258  0.540878  1
  Si  Si22  1  0.834489  0.464890  0.958565  1
  Si  Si23  1  0.666433  0.964473  0.040492  1
  Si  Si24  1  0.165645  0.535227  0.459453  1
  Si  Si25  1  0.466385  0.386433  0.750000  1
  Si  Si26  1  0.962099  0.117513  0.750000  1
  Si  Si27  1  0.536381  0.615595  0.250000  1
  Si  Si28  1  0.036357  0.884670  0.250000  1
  Si  Si29  1  0.705837  0.858206  0.750000  1
  Si  Si30  1  0.200990  0.636832  0.750000  1
  Si  Si31  1  0.296479  0.138844  0.250000  1
  Si  Si32  1  0.795924  0.361396  0.250000  1
  W  W33  1  0.338865  0.008643  0.750000  1
  W  W34  1  0.161304  0.508854  0.250000  1
  W  W35  1  0.661125  0.991268  0.250000  1
