# generated using pymatgen
data_Dy12Tc2Ni3Sn
_symmetry_space_group_name_H-M   'P 1'
_cell_length_a   8.40038714
_cell_length_b   8.40193138
_cell_length_c   8.40038800
_cell_angle_alpha   111.01061443
_cell_angle_beta   111.72410270
_cell_angle_gamma   105.73602271
_symmetry_Int_Tables_number   1
_chemical_formula_structural   Dy12Tc2Ni3Sn
_chemical_formula_sum   'Dy12 Tc2 Ni3 Sn1'
_cell_volume   454.99078664
_cell_formula_units_Z   1
loop_
 _symmetry_equiv_pos_site_id
 _symmetry_equiv_pos_as_xyz
  1  'x, y, z'
loop_
 _atom_site_type_symbol
 _atom_site_label
 _atom_site_symmetry_multiplicity
 _atom_site_fract_x
 _atom_site_fract_y
 _atom_site_fract_z
 _atom_site_occupancy
  Dy  Dy0  1  0.273054  0.184369  0.457437  1
  Dy  Dy1  1  0.722061  0.819043  0.541078  1
  Dy  Dy2  1  0.277964  0.819043  0.096982  1
  Dy  Dy3  1  0.726933  0.184369  0.911315  1
  Dy  Dy4  1  0.622358  0.310690  0.300693  1
  Dy  Dy5  1  0.377663  0.678282  0.688424  1
  Dy  Dy6  1  0.009997  0.310690  0.688331  1
  Dy  Dy7  1  0.989857  0.678282  0.300620  1
  Dy  Dy8  1  0.224396  0.413100  0.188705  1
  Dy  Dy9  1  0.778645  0.583784  0.805138  1
  Dy  Dy10  1  0.221478  0.026662  0.805185  1
  Dy  Dy11  1  0.775613  0.964289  0.188676  1
  Tc  Tc12  1  0.999993  0.376245  0.376252  1
  Tc  Tc13  1  0.000028  0.000495  0.000467  1
  Ni  Ni14  1  0.000167  0.649104  0.648939  1
  Ni  Ni15  1  0.386318  0.887962  0.501644  1
  Ni  Ni16  1  0.613469  0.115276  0.501807  1
  Sn  Sn17  1  0.500006  0.498314  0.998308  1
