# generated using pymatgen
data_Tb(VSn)6
_symmetry_space_group_name_H-M   'P 1'
_cell_length_a   5.52018000
_cell_length_b   5.52017940
_cell_length_c   9.23676600
_cell_angle_alpha   90.00000000
_cell_angle_beta   90.00000000
_cell_angle_gamma   119.99999160
_symmetry_Int_Tables_number   1
_chemical_formula_structural   Tb(VSn)6
_chemical_formula_sum   'Tb1 V6 Sn6'
_cell_volume   243.75696927
_cell_formula_units_Z   1
loop_
 _symmetry_equiv_pos_site_id
 _symmetry_equiv_pos_as_xyz
  1  'x, y, z'
loop_
 _atom_site_type_symbol
 _atom_site_label
 _atom_site_symmetry_multiplicity
 _atom_site_fract_x
 _atom_site_fract_y
 _atom_site_fract_z
 _atom_site_occupancy
  Tb  Tb0  1  0.000000  0.000000  0.000000  1
  V  V1  1  0.500000  0.500000  0.751250  1
  V  V2  1  0.500000  0.500000  0.248750  1
  V  V3  1  0.500000  0.000000  0.248750  1
  V  V4  1  0.000000  0.500000  0.751250  1
  V  V5  1  0.500000  0.000000  0.751250  1
  V  V6  1  0.000000  0.500000  0.248750  1
  Sn  Sn7  1  0.000000  0.000000  0.667660  1
  Sn  Sn8  1  0.000000  0.000000  0.332340  1
  Sn  Sn9  1  0.333333  0.666667  0.000000  1
  Sn  Sn10  1  0.666667  0.333333  0.500000  1
  Sn  Sn11  1  0.333333  0.666667  0.500000  1
  Sn  Sn12  1  0.666667  0.333333  0.000000  1
