# generated using pymatgen
data_HoSc7(MnC2)4
_symmetry_space_group_name_H-M   'P 1'
_cell_length_a   4.73511500
_cell_length_b   6.09881349
_cell_length_c   9.24120438
_cell_angle_alpha   90.34034257
_cell_angle_beta   90.00000000
_cell_angle_gamma   90.00000000
_symmetry_Int_Tables_number   1
_chemical_formula_structural   HoSc7(MnC2)4
_chemical_formula_sum   'Ho1 Sc7 Mn4 C8'
_cell_volume   266.86818177
_cell_formula_units_Z   1
loop_
 _symmetry_equiv_pos_site_id
 _symmetry_equiv_pos_as_xyz
  1  'x, y, z'
loop_
 _atom_site_type_symbol
 _atom_site_label
 _atom_site_symmetry_multiplicity
 _atom_site_fract_x
 _atom_site_fract_y
 _atom_site_fract_z
 _atom_site_occupancy
  Ho  Ho0  1  0.750000  0.186683  0.946078  1
  Sc  Sc1  1  0.250000  0.474349  0.774910  1
  Sc  Sc2  1  0.750000  0.029673  0.289323  1
  Sc  Sc3  1  0.250000  0.967426  0.713580  1
  Sc  Sc4  1  0.750000  0.531997  0.225558  1
  Sc  Sc5  1  0.250000  0.819983  0.061536  1
  Sc  Sc6  1  0.750000  0.675311  0.557202  1
  Sc  Sc7  1  0.250000  0.326213  0.440913  1
  Mn  Mn8  1  0.250000  0.275336  0.140262  1
  Mn  Mn9  1  0.750000  0.222082  0.630960  1
  Mn  Mn10  1  0.250000  0.777157  0.366563  1
  Mn  Mn11  1  0.750000  0.722877  0.859969  1
  C  C12  1  0.250000  0.186076  0.956704  1
  C  C13  1  0.750000  0.804691  0.045898  1
  C  C14  1  0.250000  0.678627  0.549934  1
  C  C15  1  0.750000  0.321285  0.448346  1
  C  C16  1  0.250000  0.042495  0.263740  1
  C  C17  1  0.750000  0.457990  0.754475  1
  C  C18  1  0.250000  0.544561  0.240099  1
  C  C19  1  0.750000  0.955189  0.733950  1
