# generated using pymatgen
data_Yb2Th(ZnPd)4
_symmetry_space_group_name_H-M   'P 1'
_cell_length_a   8.14681503
_cell_length_b   8.14681499
_cell_length_c   8.14681500
_cell_angle_alpha   149.97033806
_cell_angle_beta   126.81581600
_cell_angle_gamma   62.28906102
_symmetry_Int_Tables_number   1
_chemical_formula_structural   Yb2Th(ZnPd)4
_chemical_formula_sum   'Yb2 Th1 Zn4 Pd4'
_cell_volume   214.66896311
_cell_formula_units_Z   1
loop_
 _symmetry_equiv_pos_site_id
 _symmetry_equiv_pos_as_xyz
  1  'x, y, z'
loop_
 _atom_site_type_symbol
 _atom_site_label
 _atom_site_symmetry_multiplicity
 _atom_site_fract_x
 _atom_site_fract_y
 _atom_site_fract_z
 _atom_site_occupancy
  Yb  Yb0  1  0.872409  0.872409  0.000000  1
  Yb  Yb1  1  0.127591  0.127591  0.000000  1
  Th  Th2  1  0.500000  0.000000  0.500000  1
  Zn  Zn3  1  0.481587  0.676570  0.805017  1
  Zn  Zn4  1  0.871553  0.676570  0.194983  1
  Zn  Zn5  1  0.128447  0.323430  0.805017  1
  Zn  Zn6  1  0.518413  0.323430  0.194983  1
  Pd  Pd7  1  0.284209  0.784209  0.500000  1
  Pd  Pd8  1  0.715791  0.215791  0.500000  1
  Pd  Pd9  1  0.803791  0.500000  0.303791  1
  Pd  Pd10  1  0.196209  0.500000  0.696209  1
