# generated using pymatgen
data_InS8I3
_symmetry_space_group_name_H-M   'P 1'
_cell_length_a   8.93389496
_cell_length_b   10.93347558
_cell_length_c   12.76733012
_cell_angle_alpha   97.35133669
_cell_angle_beta   115.47308709
_cell_angle_gamma   102.93548079
_symmetry_Int_Tables_number   1
_chemical_formula_structural   InS8I3
_chemical_formula_sum   'In2 S16 I6'
_cell_volume   1061.05986089
_cell_formula_units_Z   2
loop_
 _symmetry_equiv_pos_site_id
 _symmetry_equiv_pos_as_xyz
  1  'x, y, z'
loop_
 _atom_site_type_symbol
 _atom_site_label
 _atom_site_symmetry_multiplicity
 _atom_site_fract_x
 _atom_site_fract_y
 _atom_site_fract_z
 _atom_site_occupancy
  In  In0  1  0.799788  0.977142  0.840896  1
  In  In1  1  0.200212  0.022858  0.159104  1
  S  S2  1  0.868482  0.491581  0.809909  1
  S  S3  1  0.131518  0.508419  0.190091  1
  S  S4  1  0.715682  0.401463  0.629299  1
  S  S5  1  0.284318  0.598537  0.370701  1
  S  S6  1  0.760753  0.227693  0.593216  1
  S  S7  1  0.239247  0.772307  0.406784  1
  S  S8  1  0.941586  0.253711  0.531989  1
  S  S9  1  0.058414  0.746289  0.468011  1
  S  S10  1  0.907201  0.374973  0.163834  1
  S  S11  1  0.092799  0.625027  0.836166  1
  S  S12  1  0.707547  0.456428  0.110121  1
  S  S13  1  0.292453  0.543572  0.889879  1
  S  S14  1  0.679025  0.525189  0.256560  1
  S  S15  1  0.320975  0.474811  0.743440  1
  S  S16  1  0.814976  0.720731  0.327530  1
  S  S17  1  0.185024  0.279269  0.672470  1
  I  I18  1  0.559772  0.096469  0.821049  1
  I  I19  1  0.440228  0.903531  0.178951  1
  I  I20  1  0.851982  0.837025  0.023650  1
  I  I21  1  0.148018  0.162975  0.976350  1
  I  I22  1  0.781674  0.829796  0.647442  1
  I  I23  1  0.218326  0.170204  0.352558  1
