# generated using pymatgen
data_NaAc2(SmSn2)2
_symmetry_space_group_name_H-M   'P 1'
_cell_length_a   8.22921000
_cell_length_b   8.55389800
_cell_length_c   16.07792500
_cell_angle_alpha   90.00000000
_cell_angle_beta   90.00000000
_cell_angle_gamma   90.00000000
_symmetry_Int_Tables_number   1
_chemical_formula_structural   NaAc2(SmSn2)2
_chemical_formula_sum   'Na4 Ac8 Sm8 Sn16'
_cell_volume   1131.75445017
_cell_formula_units_Z   4
loop_
 _symmetry_equiv_pos_site_id
 _symmetry_equiv_pos_as_xyz
  1  'x, y, z'
loop_
 _atom_site_type_symbol
 _atom_site_label
 _atom_site_symmetry_multiplicity
 _atom_site_fract_x
 _atom_site_fract_y
 _atom_site_fract_z
 _atom_site_occupancy
  Na  Na0  1  0.829900  0.502248  0.750000  1
  Na  Na1  1  0.329900  0.997752  0.750000  1
  Na  Na2  1  0.170100  0.497752  0.250000  1
  Na  Na3  1  0.670100  0.002248  0.250000  1
  Ac  Ac4  1  0.505807  0.680547  0.598180  1
  Ac  Ac5  1  0.005807  0.819453  0.901820  1
  Ac  Ac6  1  0.494193  0.319453  0.098180  1
  Ac  Ac7  1  0.994193  0.180547  0.401820  1
  Ac  Ac8  1  0.494193  0.319453  0.401820  1
  Ac  Ac9  1  0.994193  0.180547  0.098180  1
  Ac  Ac10  1  0.505807  0.680547  0.901820  1
  Ac  Ac11  1  0.005807  0.819453  0.598180  1
  Sm  Sm12  1  0.662562  0.173497  0.625375  1
  Sm  Sm13  1  0.162562  0.326503  0.874625  1
  Sm  Sm14  1  0.337438  0.826503  0.125375  1
  Sm  Sm15  1  0.837438  0.673497  0.374625  1
  Sm  Sm16  1  0.337438  0.826503  0.374625  1
  Sm  Sm17  1  0.837438  0.673497  0.125375  1
  Sm  Sm18  1  0.662562  0.173497  0.874625  1
  Sm  Sm19  1  0.162562  0.326503  0.625375  1
  Sn  Sn20  1  0.668799  0.958964  0.462471  1
  Sn  Sn21  1  0.168799  0.541036  0.037529  1
  Sn  Sn22  1  0.331201  0.041036  0.962471  1
  Sn  Sn23  1  0.831201  0.458964  0.537529  1
  Sn  Sn24  1  0.331201  0.041036  0.537529  1
  Sn  Sn25  1  0.831201  0.458964  0.962471  1
  Sn  Sn26  1  0.668799  0.958964  0.037529  1
  Sn  Sn27  1  0.168799  0.541036  0.462471  1
  Sn  Sn28  1  0.462059  0.383339  0.750000  1
  Sn  Sn29  1  0.962059  0.116661  0.750000  1
  Sn  Sn30  1  0.537941  0.616661  0.250000  1
  Sn  Sn31  1  0.037941  0.883339  0.250000  1
  Sn  Sn32  1  0.706458  0.875893  0.750000  1
  Sn  Sn33  1  0.206458  0.624107  0.750000  1
  Sn  Sn34  1  0.293542  0.124107  0.250000  1
  Sn  Sn35  1  0.793542  0.375893  0.250000  1
