# generated using pymatgen
data_Gd4Zr3O12
_symmetry_space_group_name_H-M   'P 1'
_cell_length_a   6.43520763
_cell_length_b   6.47613301
_cell_length_c   6.67726640
_cell_angle_alpha   99.84166781
_cell_angle_beta   98.16807604
_cell_angle_gamma   99.80783980
_symmetry_Int_Tables_number   1
_chemical_formula_structural   Gd4Zr3O12
_chemical_formula_sum   'Gd4 Zr3 O12'
_cell_volume   265.94115561
_cell_formula_units_Z   1
loop_
 _symmetry_equiv_pos_site_id
 _symmetry_equiv_pos_as_xyz
  1  'x, y, z'
loop_
 _atom_site_type_symbol
 _atom_site_label
 _atom_site_symmetry_multiplicity
 _atom_site_fract_x
 _atom_site_fract_y
 _atom_site_fract_z
 _atom_site_occupancy
  Gd  Gd0  1  0.698034  0.864684  0.390956  1
  Gd  Gd1  1  0.385500  0.700042  0.866028  1
  Gd  Gd2  1  0.301966  0.135316  0.609044  1
  Gd  Gd3  1  0.614500  0.299958  0.133972  1
  Zr  Zr4  1  0.000000  0.000000  0.000000  1
  Zr  Zr5  1  0.848822  0.398023  0.669729  1
  Zr  Zr6  1  0.151178  0.601977  0.330271  1
  O  O7  1  0.587596  0.417054  0.819615  1
  O  O8  1  0.830053  0.568991  0.426745  1
  O  O9  1  0.407423  0.810567  0.562808  1
  O  O10  1  0.412404  0.582946  0.180385  1
  O  O11  1  0.169947  0.431009  0.573255  1
  O  O12  1  0.592577  0.189433  0.437192  1
  O  O13  1  0.018851  0.679534  0.879910  1
  O  O14  1  0.921715  0.091032  0.699338  1
  O  O15  1  0.686898  0.934813  0.059336  1
  O  O16  1  0.981149  0.320466  0.120090  1
  O  O17  1  0.078285  0.908968  0.300662  1
  O  O18  1  0.313102  0.065187  0.940664  1
