# generated using pymatgen
data_TbDy3(InGa2)2
_symmetry_space_group_name_H-M   'P 1'
_cell_length_a   7.23237397
_cell_length_b   7.23237397
_cell_length_c   4.45245700
_cell_angle_alpha   90.00000000
_cell_angle_beta   90.00000000
_cell_angle_gamma   90.05938426
_symmetry_Int_Tables_number   1
_chemical_formula_structural   TbDy3(InGa2)2
_chemical_formula_sum   'Tb1 Dy3 In2 Ga4'
_cell_volume   232.89558178
_cell_formula_units_Z   1
loop_
 _symmetry_equiv_pos_site_id
 _symmetry_equiv_pos_as_xyz
  1  'x, y, z'
loop_
 _atom_site_type_symbol
 _atom_site_label
 _atom_site_symmetry_multiplicity
 _atom_site_fract_x
 _atom_site_fract_y
 _atom_site_fract_z
 _atom_site_occupancy
  Tb  Tb0  1  0.172654  0.327346  0.500000  1
  Dy  Dy1  1  0.827237  0.672763  0.500000  1
  Dy  Dy2  1  0.327409  0.827315  0.500000  1
  Dy  Dy3  1  0.672685  0.172591  0.500000  1
  In  In4  1  0.999945  0.999933  0.000000  1
  In  In5  1  0.500067  0.500055  0.000000  1
  Ga  Ga6  1  0.125840  0.626039  0.000000  1
  Ga  Ga7  1  0.873961  0.374160  0.000000  1
  Ga  Ga8  1  0.374308  0.125692  0.000000  1
  Ga  Ga9  1  0.625893  0.874107  0.000000  1
