# generated using pymatgen
data_Er5GaSe4
_symmetry_space_group_name_H-M   'P 1'
_cell_length_a   7.05774582
_cell_length_b   7.05790347
_cell_length_c   7.05798338
_cell_angle_alpha   99.49520020
_cell_angle_beta   99.49302471
_cell_angle_gamma   132.07457277
_symmetry_Int_Tables_number   1
_chemical_formula_structural   Er5GaSe4
_chemical_formula_sum   'Er5 Ga1 Se4'
_cell_volume   238.47603182
_cell_formula_units_Z   1
loop_
 _symmetry_equiv_pos_site_id
 _symmetry_equiv_pos_as_xyz
  1  'x, y, z'
loop_
 _atom_site_type_symbol
 _atom_site_label
 _atom_site_symmetry_multiplicity
 _atom_site_fract_x
 _atom_site_fract_y
 _atom_site_fract_z
 _atom_site_occupancy
  Er  Er0  1  0.403536  0.791588  0.195103  1
  Er  Er1  1  0.000000  0.000000  0.000000  1
  Er  Er2  1  0.596464  0.208412  0.804897  1
  Er  Er3  1  0.208430  0.403539  0.611955  1
  Er  Er4  1  0.791570  0.596461  0.388045  1
  Ga  Ga5  1  0.500000  0.500000  0.000000  1
  Se  Se6  1  0.096976  0.696968  0.793937  1
  Se  Se7  1  0.696955  0.903010  0.599978  1
  Se  Se8  1  0.303045  0.096990  0.400022  1
  Se  Se9  1  0.903024  0.303032  0.206063  1
