# generated using pymatgen
data_CsRb7(MnBr4)4
_symmetry_space_group_name_H-M   'P 1'
_cell_length_a   10.04511288
_cell_length_b   7.91031200
_cell_length_c   13.85609733
_cell_angle_alpha   90.00000000
_cell_angle_beta   90.14172789
_cell_angle_gamma   90.00000000
_symmetry_Int_Tables_number   1
_chemical_formula_structural   CsRb7(MnBr4)4
_chemical_formula_sum   'Cs1 Rb7 Mn4 Br16'
_cell_volume   1101.00180609
_cell_formula_units_Z   1
loop_
 _symmetry_equiv_pos_site_id
 _symmetry_equiv_pos_as_xyz
  1  'x, y, z'
loop_
 _atom_site_type_symbol
 _atom_site_label
 _atom_site_symmetry_multiplicity
 _atom_site_fract_x
 _atom_site_fract_y
 _atom_site_fract_z
 _atom_site_occupancy
  Cs  Cs0  1  0.871578  0.750000  0.911456  1
  Rb  Rb1  1  0.125577  0.250000  0.078893  1
  Rb  Rb2  1  0.522508  0.750000  0.172608  1
  Rb  Rb3  1  0.022717  0.750000  0.327682  1
  Rb  Rb4  1  0.625425  0.250000  0.420495  1
  Rb  Rb5  1  0.374645  0.750000  0.579016  1
  Rb  Rb6  1  0.978802  0.250000  0.672120  1
  Rb  Rb7  1  0.478486  0.250000  0.827449  1
  Mn  Mn8  1  0.727377  0.250000  0.077726  1
  Mn  Mn9  1  0.226650  0.250000  0.423767  1
  Mn  Mn10  1  0.772186  0.750000  0.575215  1
  Mn  Mn11  1  0.271042  0.750000  0.924600  1
  Br  Br12  1  0.187794  0.750000  0.094546  1
  Br  Br13  1  0.480725  0.250000  0.086061  1
  Br  Br14  1  0.827344  0.504402  0.155390  1
  Br  Br15  1  0.827344  0.995599  0.155390  1
  Br  Br16  1  0.328174  0.505996  0.349438  1
  Br  Br17  1  0.328174  0.994005  0.349438  1
  Br  Br18  1  0.979554  0.250000  0.414337  1
  Br  Br19  1  0.688095  0.750000  0.405348  1
  Br  Br20  1  0.311631  0.250000  0.593722  1
  Br  Br21  1  0.018614  0.750000  0.587062  1
  Br  Br22  1  0.672316  0.005962  0.651194  1
  Br  Br23  1  0.672316  0.494038  0.651194  1
  Br  Br24  1  0.176168  0.007830  0.847493  1
  Br  Br25  1  0.176168  0.492170  0.847493  1
  Br  Br26  1  0.516538  0.750000  0.913316  1
  Br  Br27  1  0.812053  0.250000  0.907553  1
