# generated using pymatgen
data_Na2Zr2SnSe6
_symmetry_space_group_name_H-M   'P 1'
_cell_length_a   7.01657318
_cell_length_b   7.01657404
_cell_length_c   7.40158885
_cell_angle_alpha   81.20890420
_cell_angle_beta   81.20891616
_cell_angle_gamma   120.61018527
_symmetry_Int_Tables_number   1
_chemical_formula_structural   Na2Zr2SnSe6
_chemical_formula_sum   'Na2 Zr2 Sn1 Se6'
_cell_volume   298.32066694
_cell_formula_units_Z   1
loop_
 _symmetry_equiv_pos_site_id
 _symmetry_equiv_pos_as_xyz
  1  'x, y, z'
loop_
 _atom_site_type_symbol
 _atom_site_label
 _atom_site_symmetry_multiplicity
 _atom_site_fract_x
 _atom_site_fract_y
 _atom_site_fract_z
 _atom_site_occupancy
  Na  Na0  1  0.162101  0.837899  0.500000  1
  Na  Na1  1  0.837899  0.162101  0.500000  1
  Zr  Zr2  1  0.333745  0.666255  0.000000  1
  Zr  Zr3  1  0.666255  0.333745  0.000000  1
  Sn  Sn4  1  0.000000  0.000000  0.000000  1
  Se  Se5  1  0.930475  0.571596  0.218656  1
  Se  Se6  1  0.286828  0.286828  0.221297  1
  Se  Se7  1  0.571596  0.930475  0.218656  1
  Se  Se8  1  0.713172  0.713172  0.778703  1
  Se  Se9  1  0.069525  0.428404  0.781344  1
  Se  Se10  1  0.428404  0.069525  0.781344  1
