# generated using pymatgen
data_NdTm4(FeB3)2
_symmetry_space_group_name_H-M   'P 1'
_cell_length_a   8.24324860
_cell_length_b   8.24324852
_cell_length_c   8.24324782
_cell_angle_alpha   38.17835572
_cell_angle_beta   38.17835986
_cell_angle_gamma   38.17834945
_symmetry_Int_Tables_number   1
_chemical_formula_structural   NdTm4(FeB3)2
_chemical_formula_sum   'Nd1 Tm4 Fe2 B6'
_cell_volume   192.16578411
_cell_formula_units_Z   1
loop_
 _symmetry_equiv_pos_site_id
 _symmetry_equiv_pos_as_xyz
  1  'x, y, z'
loop_
 _atom_site_type_symbol
 _atom_site_label
 _atom_site_symmetry_multiplicity
 _atom_site_fract_x
 _atom_site_fract_y
 _atom_site_fract_z
 _atom_site_occupancy
  Nd  Nd0  1  0.000000  0.000000  0.000000  1
  Tm  Tm1  1  0.582025  0.582025  0.582025  1
  Tm  Tm2  1  0.417975  0.417975  0.417975  1
  Tm  Tm3  1  0.750496  0.750496  0.750496  1
  Tm  Tm4  1  0.249504  0.249504  0.249504  1
  Fe  Fe5  1  0.883901  0.883901  0.883901  1
  Fe  Fe6  1  0.116099  0.116099  0.116099  1
  B  B7  1  0.500000  0.831630  0.168370  1
  B  B8  1  0.168370  0.500000  0.831630  1
  B  B9  1  0.831630  0.168370  0.500000  1
  B  B10  1  0.500000  0.168370  0.831630  1
  B  B11  1  0.831630  0.500000  0.168370  1
  B  B12  1  0.168370  0.831630  0.500000  1
