# generated using pymatgen
data_Dy7(TmIn4)5
_symmetry_space_group_name_H-M   'P 1'
_cell_length_a   6.53202351
_cell_length_b   10.36098678
_cell_length_c   12.19032848
_cell_angle_alpha   90.10877844
_cell_angle_beta   89.97229904
_cell_angle_gamma   89.97651303
_symmetry_Int_Tables_number   1
_chemical_formula_structural   Dy7(TmIn4)5
_chemical_formula_sum   'Dy7 Tm5 In20'
_cell_volume   825.01794850
_cell_formula_units_Z   1
loop_
 _symmetry_equiv_pos_site_id
 _symmetry_equiv_pos_as_xyz
  1  'x, y, z'
loop_
 _atom_site_type_symbol
 _atom_site_label
 _atom_site_symmetry_multiplicity
 _atom_site_fract_x
 _atom_site_fract_y
 _atom_site_fract_z
 _atom_site_occupancy
  Dy  Dy0  1  0.610155  0.008390  0.642129  1
  Dy  Dy1  1  0.109777  0.991504  0.857942  1
  Dy  Dy2  1  0.390117  0.508488  0.357892  1
  Dy  Dy3  1  0.109893  0.508633  0.858542  1
  Dy  Dy4  1  0.389757  0.991474  0.357523  1
  Dy  Dy5  1  0.889801  0.008481  0.142566  1
  Dy  Dy6  1  0.610228  0.491552  0.641999  1
  Tm  Tm7  1  0.349807  0.750590  0.054317  1
  Tm  Tm8  1  0.149105  0.749911  0.554361  1
  Tm  Tm9  1  0.649382  0.250233  0.946045  1
  Tm  Tm10  1  0.850909  0.249703  0.445565  1
  Tm  Tm11  1  0.890644  0.491405  0.141481  1
  In  In12  1  0.614478  0.749906  0.505516  1
  In  In13  1  0.884879  0.749036  0.007548  1
  In  In14  1  0.385647  0.249840  0.494179  1
  In  In15  1  0.114292  0.250171  0.993647  1
  In  In16  1  0.652815  0.749027  0.242833  1
  In  In17  1  0.847767  0.749779  0.743679  1
  In  In18  1  0.348023  0.250334  0.756655  1
  In  In19  1  0.152505  0.250329  0.256419  1
  In  In20  1  0.123110  0.749944  0.282022  1
  In  In21  1  0.376639  0.749629  0.781953  1
  In  In22  1  0.876657  0.250185  0.718156  1
  In  In23  1  0.624978  0.251213  0.217409  1
  In  In24  1  0.873675  0.542559  0.399824  1
  In  In25  1  0.627298  0.956796  0.900960  1
  In  In26  1  0.126377  0.043232  0.599023  1
  In  In27  1  0.372182  0.457379  0.099485  1
  In  In28  1  0.126448  0.456954  0.599104  1
  In  In29  1  0.372906  0.043592  0.099266  1
  In  In30  1  0.873091  0.956730  0.400840  1
  In  In31  1  0.626663  0.542997  0.901122  1
