# generated using pymatgen
data_Sc12Cd(RhI8)2
_symmetry_space_group_name_H-M   'P 1'
_cell_length_a   9.30286589
_cell_length_b   12.27012734
_cell_length_c   12.92913476
_cell_angle_alpha   116.85436653
_cell_angle_beta   101.14929575
_cell_angle_gamma   100.54010715
_symmetry_Int_Tables_number   1
_chemical_formula_structural   Sc12Cd(RhI8)2
_chemical_formula_sum   'Sc12 Cd1 Rh2 I16'
_cell_volume   1228.69751160
_cell_formula_units_Z   1
loop_
 _symmetry_equiv_pos_site_id
 _symmetry_equiv_pos_as_xyz
  1  'x, y, z'
loop_
 _atom_site_type_symbol
 _atom_site_label
 _atom_site_symmetry_multiplicity
 _atom_site_fract_x
 _atom_site_fract_y
 _atom_site_fract_z
 _atom_site_occupancy
  Sc  Sc0  1  0.101409  0.271193  0.359873  1
  Sc  Sc1  1  0.898591  0.728807  0.640127  1
  Sc  Sc2  1  0.768817  0.536102  0.329748  1
  Sc  Sc3  1  0.231183  0.463898  0.670252  1
  Sc  Sc4  1  0.287282  0.729148  0.639875  1
  Sc  Sc5  1  0.712718  0.270852  0.360125  1
  Sc  Sc6  1  0.157443  0.536385  0.329587  1
  Sc  Sc7  1  0.842557  0.463615  0.670413  1
  Sc  Sc8  1  0.411761  0.368951  0.288749  1
  Sc  Sc9  1  0.588239  0.631049  0.711251  1
  Sc  Sc10  1  0.461746  0.319955  0.520703  1
  Sc  Sc11  1  0.538254  0.680045  0.479297  1
  Cd  Cd12  1  0.000000  0.500000  0.500000  1
  Rh  Rh13  1  0.342048  0.500175  0.499897  1
  Rh  Rh14  1  0.657953  0.499825  0.500103  1
  I  I15  1  0.391255  0.732179  0.873706  1
  I  I16  1  0.608745  0.267821  0.126294  1
  I  I17  1  0.181466  0.948196  0.773773  1
  I  I18  1  0.818534  0.051804  0.226227  1
  I  I19  1  0.341014  0.107005  0.260273  1
  I  I20  1  0.658986  0.892995  0.739727  1
  I  I21  1  0.562441  0.436925  0.792014  1
  I  I22  1  0.437559  0.563075  0.207986  1
  I  I23  1  0.302401  0.819489  0.463013  1
  I  I24  1  0.697599  0.180511  0.536987  1
  I  I25  1  0.167109  0.181065  0.536547  1
  I  I26  1  0.832891  0.818935  0.463453  1
  I  I27  1  0.927600  0.571706  0.167584  1
  I  I28  1  0.072400  0.428294  0.832416  1
  I  I29  1  0.920936  0.731644  0.873778  1
  I  I30  1  0.079064  0.268356  0.126222  1
