# generated using pymatgen
data_YbCeB4Ir5
_symmetry_space_group_name_H-M   'P 1'
_cell_length_a   7.53607783
_cell_length_b   6.33068729
_cell_length_c   5.65800752
_cell_angle_alpha   77.66964513
_cell_angle_beta   55.15220320
_cell_angle_gamma   47.17814622
_symmetry_Int_Tables_number   1
_chemical_formula_structural   YbCeB4Ir5
_chemical_formula_sum   'Yb1 Ce1 B4 Ir5'
_cell_volume   155.47920240
_cell_formula_units_Z   1
loop_
 _symmetry_equiv_pos_site_id
 _symmetry_equiv_pos_as_xyz
  1  'x, y, z'
loop_
 _atom_site_type_symbol
 _atom_site_label
 _atom_site_symmetry_multiplicity
 _atom_site_fract_x
 _atom_site_fract_y
 _atom_site_fract_z
 _atom_site_occupancy
  Yb  Yb0  1  0.356968  0.356969  0.643032  1
  Ce  Ce1  1  0.637393  0.637394  0.362607  1
  B  B2  1  0.291235  0.974225  0.025775  1
  B  B3  1  0.026503  0.712014  0.287986  1
  B  B4  1  0.974225  0.291235  0.708765  1
  B  B5  1  0.712014  0.026503  0.973497  1
  Ir  Ir6  1  0.000915  0.000915  0.999085  1
  Ir  Ir7  1  0.499284  0.499284  0.000716  1
  Ir  Ir8  1  0.251089  0.251089  0.248912  1
  Ir  Ir9  1  0.999284  0.999284  0.500716  1
  Ir  Ir10  1  0.751088  0.751089  0.748912  1
