# generated using pymatgen
data_Sc4Ta(Re7Tc)3
_symmetry_space_group_name_H-M   'P 1'
_cell_length_a   8.44034549
_cell_length_b   8.44340865
_cell_length_c   8.44151899
_cell_angle_alpha   109.53713032
_cell_angle_beta   109.38929589
_cell_angle_gamma   109.40233125
_symmetry_Int_Tables_number   1
_chemical_formula_structural   Sc4Ta(Re7Tc)3
_chemical_formula_sum   'Sc4 Ta1 Re21 Tc3'
_cell_volume   463.58600301
_cell_formula_units_Z   1
loop_
 _symmetry_equiv_pos_site_id
 _symmetry_equiv_pos_as_xyz
  1  'x, y, z'
loop_
 _atom_site_type_symbol
 _atom_site_label
 _atom_site_symmetry_multiplicity
 _atom_site_fract_x
 _atom_site_fract_y
 _atom_site_fract_z
 _atom_site_occupancy
  Sc  Sc0  1  0.000429  0.631838  0.999535  1
  Sc  Sc1  1  0.632621  0.001089  0.001160  1
  Sc  Sc2  1  0.000460  0.000457  0.632446  1
  Sc  Sc3  1  0.998143  0.998111  0.998150  1
  Ta  Ta4  1  0.368218  0.368356  0.368496  1
  Re  Re5  1  0.323344  0.721698  0.323675  1
  Re  Re6  1  0.676196  0.998496  0.396068  1
  Re  Re7  1  0.998122  0.676202  0.395849  1
  Re  Re8  1  0.599227  0.599186  0.280648  1
  Re  Re9  1  0.808949  0.809201  0.185989  1
  Re  Re10  1  0.377500  0.194197  0.001055  1
  Re  Re11  1  0.194361  0.377555  0.001083  1
  Re  Re12  1  0.623128  0.816251  0.623015  1
  Re  Re13  1  0.377519  0.000882  0.194026  1
  Re  Re14  1  0.001291  0.378016  0.194108  1
  Re  Re15  1  0.815783  0.622271  0.622006  1
  Re  Re16  1  0.186286  0.808980  0.808723  1
  Re  Re17  1  0.808933  0.185699  0.809192  1
  Re  Re18  1  0.194125  0.001397  0.377936  1
  Re  Re19  1  0.001162  0.194123  0.378678  1
  Re  Re20  1  0.623061  0.622834  0.816229  1
  Re  Re21  1  0.395945  0.998111  0.676088  1
  Re  Re22  1  0.599481  0.280739  0.599007  1
  Re  Re23  1  0.676246  0.396014  0.998376  1
  Re  Re24  1  0.395708  0.675964  0.997820  1
  Re  Re25  1  0.323368  0.323836  0.721749  1
  Tc  Tc26  1  0.998125  0.396059  0.676681  1
  Tc  Tc27  1  0.280634  0.599312  0.599138  1
  Tc  Tc28  1  0.721636  0.323125  0.323077  1
