# generated using pymatgen
data_ThHg2(PO4)2
_symmetry_space_group_name_H-M   'P 1'
_cell_length_a   5.57795476
_cell_length_b   5.52109305
_cell_length_c   9.00628907
_cell_angle_alpha   91.32929102
_cell_angle_beta   72.27424088
_cell_angle_gamma   64.93596349
_symmetry_Int_Tables_number   1
_chemical_formula_structural   ThHg2(PO4)2
_chemical_formula_sum   'Th1 Hg2 P2 O8'
_cell_volume   235.56417450
_cell_formula_units_Z   1
loop_
 _symmetry_equiv_pos_site_id
 _symmetry_equiv_pos_as_xyz
  1  'x, y, z'
loop_
 _atom_site_type_symbol
 _atom_site_label
 _atom_site_symmetry_multiplicity
 _atom_site_fract_x
 _atom_site_fract_y
 _atom_site_fract_z
 _atom_site_occupancy
  Th  Th0  1  0.000001  0.000000  0.999997  1
  Hg  Hg1  1  0.184911  0.250810  0.459749  1
  Hg  Hg2  1  0.815085  0.749192  0.540252  1
  P  P3  1  0.516979  0.703927  0.206288  1
  P  P4  1  0.483017  0.296077  0.793726  1
  O  O5  1  0.720032  0.793664  0.090036  1
  O  O6  1  0.232998  0.818741  0.175816  1
  O  O7  1  0.654413  0.390618  0.186062  1
  O  O8  1  0.458264  0.821301  0.381323  1
  O  O9  1  0.541738  0.178694  0.618666  1
  O  O10  1  0.345591  0.609375  0.813939  1
  O  O11  1  0.766993  0.181261  0.824183  1
  O  O12  1  0.279976  0.206338  0.909961  1
