# generated using pymatgen
data_Hf6TaFe4WN2
_symmetry_space_group_name_H-M   'P 1'
_cell_length_a   8.40129430
_cell_length_b   8.40129371
_cell_length_c   8.42175700
_cell_angle_alpha   59.91939784
_cell_angle_beta   59.91940019
_cell_angle_gamma   59.83759442
_symmetry_Int_Tables_number   1
_chemical_formula_structural   Hf6TaFe4WN2
_chemical_formula_sum   'Hf12 Ta2 Fe8 W2 N4'
_cell_volume   419.29079029
_cell_formula_units_Z   2
loop_
 _symmetry_equiv_pos_site_id
 _symmetry_equiv_pos_as_xyz
  1  'x, y, z'
loop_
 _atom_site_type_symbol
 _atom_site_label
 _atom_site_symmetry_multiplicity
 _atom_site_fract_x
 _atom_site_fract_y
 _atom_site_fract_z
 _atom_site_occupancy
  Hf  Hf0  1  0.810075  0.810075  0.189925  1
  Hf  Hf1  1  0.187758  0.187758  0.812242  1
  Hf  Hf2  1  0.810821  0.189700  0.811397  1
  Hf  Hf3  1  0.189700  0.810821  0.188082  1
  Hf  Hf4  1  0.189700  0.810821  0.811397  1
  Hf  Hf5  1  0.810821  0.189700  0.188082  1
  Hf  Hf6  1  0.439925  0.439925  0.060075  1
  Hf  Hf7  1  0.062242  0.062242  0.437758  1
  Hf  Hf8  1  0.439179  0.060300  0.438603  1
  Hf  Hf9  1  0.060300  0.439179  0.061918  1
  Hf  Hf10  1  0.060300  0.439179  0.438603  1
  Hf  Hf11  1  0.439179  0.060300  0.061918  1
  Ta  Ta12  1  0.125000  0.625000  0.625000  1
  Ta  Ta13  1  0.625000  0.125000  0.625000  1
  Fe  Fe14  1  0.740389  0.423972  0.417820  1
  Fe  Fe15  1  0.423972  0.740389  0.417820  1
  Fe  Fe16  1  0.421389  0.421389  0.742482  1
  Fe  Fe17  1  0.421389  0.421389  0.414742  1
  Fe  Fe18  1  0.509611  0.826028  0.832180  1
  Fe  Fe19  1  0.826028  0.509611  0.832180  1
  Fe  Fe20  1  0.828611  0.828611  0.507518  1
  Fe  Fe21  1  0.828611  0.828611  0.835258  1
  W  W22  1  0.625000  0.625000  0.125000  1
  W  W23  1  0.625000  0.625000  0.625000  1
  N  N24  1  0.625000  0.125000  0.125000  1
  N  N25  1  0.125000  0.625000  0.125000  1
  N  N26  1  0.125000  0.125000  0.625000  1
  N  N27  1  0.125000  0.125000  0.125000  1
