# generated using pymatgen
data_CaPrY3Si3O13
_symmetry_space_group_name_H-M   'P 1'
_cell_length_a   6.95693700
_cell_length_b   9.46028135
_cell_length_c   9.45854440
_cell_angle_alpha   60.00309510
_cell_angle_beta   90.00000000
_cell_angle_gamma   90.00000000
_symmetry_Int_Tables_number   1
_chemical_formula_structural   CaPrY3Si3O13
_chemical_formula_sum   'Ca2 Pr2 Y6 Si6 O26'
_cell_volume   539.12640818
_cell_formula_units_Z   2
loop_
 _symmetry_equiv_pos_site_id
 _symmetry_equiv_pos_as_xyz
  1  'x, y, z'
loop_
 _atom_site_type_symbol
 _atom_site_label
 _atom_site_symmetry_multiplicity
 _atom_site_fract_x
 _atom_site_fract_y
 _atom_site_fract_z
 _atom_site_occupancy
  Ca  Ca0  1  0.487054  0.332968  0.333227  1
  Ca  Ca1  1  0.987054  0.667032  0.666773  1
  Pr  Pr2  1  0.986663  0.333143  0.333583  1
  Pr  Pr3  1  0.486663  0.666857  0.666417  1
  Y  Y4  1  0.234819  0.995188  0.767982  1
  Y  Y5  1  0.734819  0.004812  0.232018  1
  Y  Y6  1  0.234718  0.767219  0.237109  1
  Y  Y7  1  0.734718  0.232781  0.762891  1
  Y  Y8  1  0.734926  0.763052  0.004512  1
  Y  Y9  1  0.234926  0.236948  0.995488  1
  Si  Si10  1  0.235455  0.606251  0.025277  1
  Si  Si11  1  0.735455  0.393749  0.974723  1
  Si  Si12  1  0.235224  0.368092  0.606760  1
  Si  Si13  1  0.735224  0.631908  0.393240  1
  Si  Si14  1  0.735246  0.974758  0.631646  1
  Si  Si15  1  0.235246  0.025242  0.368354  1
  O  O16  1  0.729744  0.522401  0.304392  1
  O  O17  1  0.229744  0.477599  0.695608  1
  O  O18  1  0.240907  0.116558  0.477440  1
  O  O19  1  0.740907  0.883442  0.522560  1
  O  O20  1  0.241274  0.405890  0.117142  1
  O  O21  1  0.741274  0.594110  0.882858  1
  O  O22  1  0.229998  0.695521  0.826881  1
  O  O23  1  0.729998  0.304479  0.173119  1
  O  O24  1  0.241331  0.476416  0.406313  1
  O  O25  1  0.741331  0.523584  0.593687  1
  O  O26  1  0.729698  0.173181  0.523077  1
  O  O27  1  0.229698  0.826819  0.476923  1
  O  O28  1  0.044821  0.653241  0.097645  1
  O  O29  1  0.544821  0.346759  0.902355  1
  O  O30  1  0.418314  0.674689  0.084205  1
  O  O31  1  0.918314  0.325311  0.915795  1
  O  O32  1  0.044644  0.248697  0.653860  1
  O  O33  1  0.544644  0.751303  0.346140  1
  O  O34  1  0.417896  0.240570  0.675685  1
  O  O35  1  0.917896  0.759430  0.324315  1
  O  O36  1  0.544711  0.902093  0.751065  1
  O  O37  1  0.044711  0.097907  0.248935  1
  O  O38  1  0.918367  0.915209  0.758818  1
  O  O39  1  0.418367  0.084791  0.241182  1
  O  O40  1  0.223491  0.999744  0.000495  1
  O  O41  1  0.723491  0.000256  0.999505  1
