# generated using pymatgen
data_PaNbSn2Ru3
_symmetry_space_group_name_H-M   'P 1'
_cell_length_a   4.50475360
_cell_length_b   4.50475382
_cell_length_c   7.80901400
_cell_angle_alpha   73.26461338
_cell_angle_beta   73.26461256
_cell_angle_gamma   60.05244858
_symmetry_Int_Tables_number   1
_chemical_formula_structural   PaNbSn2Ru3
_chemical_formula_sum   'Pa1 Nb1 Sn2 Ru3'
_cell_volume   129.49215345
_cell_formula_units_Z   1
loop_
 _symmetry_equiv_pos_site_id
 _symmetry_equiv_pos_as_xyz
  1  'x, y, z'
loop_
 _atom_site_type_symbol
 _atom_site_label
 _atom_site_symmetry_multiplicity
 _atom_site_fract_x
 _atom_site_fract_y
 _atom_site_fract_z
 _atom_site_occupancy
  Pa  Pa0  1  0.246783  0.246783  0.259646  1
  Nb  Nb1  1  0.755306  0.755306  0.734095  1
  Sn  Sn2  1  0.998263  0.998263  0.005142  1
  Sn  Sn3  1  0.498937  0.498937  0.503491  1
  Ru  Ru4  1  0.631386  0.631386  0.105747  1
  Ru  Ru5  1  0.119806  0.119806  0.640537  1
  Ru  Ru6  1  0.374516  0.374516  0.876341  1
