# generated using pymatgen
data_HfAl2GaCuMo
_symmetry_space_group_name_H-M   'P 1'
_cell_length_a   4.98491207
_cell_length_b   4.97471270
_cell_length_c   4.97471319
_cell_angle_alpha   62.34724070
_cell_angle_beta   62.01846235
_cell_angle_gamma   62.01847621
_symmetry_Int_Tables_number   1
_chemical_formula_structural   HfAl2GaCuMo
_chemical_formula_sum   'Hf1 Al2 Ga1 Cu1 Mo1'
_cell_volume   91.37901775
_cell_formula_units_Z   1
loop_
 _symmetry_equiv_pos_site_id
 _symmetry_equiv_pos_as_xyz
  1  'x, y, z'
loop_
 _atom_site_type_symbol
 _atom_site_label
 _atom_site_symmetry_multiplicity
 _atom_site_fract_x
 _atom_site_fract_y
 _atom_site_fract_z
 _atom_site_occupancy
  Hf  Hf0  1  0.878146  0.876397  0.876397  1
  Al  Al1  1  0.497929  0.500125  0.002755  1
  Al  Al2  1  0.497929  0.002755  0.500125  1
  Ga  Ga3  1  0.000219  0.499731  0.499731  1
  Cu  Cu4  1  0.500242  0.501293  0.501293  1
  Mo  Mo5  1  0.125533  0.119697  0.119697  1
