# generated using pymatgen
data_Nd12Si3GeBr12
_symmetry_space_group_name_H-M   'P 1'
_cell_length_a   10.43803814
_cell_length_b   10.43803735
_cell_length_c   10.43803816
_cell_angle_alpha   109.48115190
_cell_angle_beta   109.48115277
_cell_angle_gamma   109.48114915
_symmetry_Int_Tables_number   1
_chemical_formula_structural   Nd12Si3GeBr12
_chemical_formula_sum   'Nd12 Si3 Ge1 Br12'
_cell_volume   875.13476011
_cell_formula_units_Z   1
loop_
 _symmetry_equiv_pos_site_id
 _symmetry_equiv_pos_as_xyz
  1  'x, y, z'
loop_
 _atom_site_type_symbol
 _atom_site_label
 _atom_site_symmetry_multiplicity
 _atom_site_fract_x
 _atom_site_fract_y
 _atom_site_fract_z
 _atom_site_occupancy
  Nd  Nd0  1  0.477537  0.490066  0.237524  1
  Nd  Nd1  1  0.750000  0.237991  0.262009  1
  Nd  Nd2  1  0.750000  0.012080  0.487920  1
  Nd  Nd3  1  0.237524  0.477537  0.490066  1
  Nd  Nd4  1  0.262009  0.750000  0.237991  1
  Nd  Nd5  1  0.022463  0.262476  0.009934  1
  Nd  Nd6  1  0.009934  0.022463  0.262476  1
  Nd  Nd7  1  0.487920  0.750000  0.012080  1
  Nd  Nd8  1  0.490066  0.237524  0.477537  1
  Nd  Nd9  1  0.012080  0.487920  0.750000  1
  Nd  Nd10  1  0.262476  0.009934  0.022463  1
  Nd  Nd11  1  0.237991  0.262009  0.750000  1
  Si  Si12  1  0.499890  0.000110  0.250000  1
  Si  Si13  1  0.000110  0.250000  0.499890  1
  Si  Si14  1  0.250000  0.499890  0.000110  1
  Ge  Ge15  1  0.250000  0.250000  0.250000  1
  Br  Br16  1  0.250000  0.754158  0.745842  1
  Br  Br17  1  0.508156  0.504073  0.753954  1
  Br  Br18  1  0.991844  0.746046  0.995927  1
  Br  Br19  1  0.745842  0.250000  0.754158  1
  Br  Br20  1  0.995927  0.991844  0.746046  1
  Br  Br21  1  0.250000  0.995948  0.504052  1
  Br  Br22  1  0.753954  0.508156  0.504073  1
  Br  Br23  1  0.504052  0.250000  0.995948  1
  Br  Br24  1  0.754158  0.745842  0.250000  1
  Br  Br25  1  0.746046  0.995927  0.991844  1
  Br  Br26  1  0.995948  0.504052  0.250000  1
  Br  Br27  1  0.504073  0.753954  0.508156  1
