# generated using pymatgen
data_Dy3LuReOs7
_symmetry_space_group_name_H-M   'P 1'
_cell_length_a   5.38905100
_cell_length_b   5.27026592
_cell_length_c   8.91334400
_cell_angle_alpha   89.99996756
_cell_angle_beta   90.00000000
_cell_angle_gamma   120.74841210
_symmetry_Int_Tables_number   1
_chemical_formula_structural   Dy3LuReOs7
_chemical_formula_sum   'Dy3 Lu1 Re1 Os7'
_cell_volume   217.56610671
_cell_formula_units_Z   1
loop_
 _symmetry_equiv_pos_site_id
 _symmetry_equiv_pos_as_xyz
  1  'x, y, z'
loop_
 _atom_site_type_symbol
 _atom_site_label
 _atom_site_symmetry_multiplicity
 _atom_site_fract_x
 _atom_site_fract_y
 _atom_site_fract_z
 _atom_site_occupancy
  Dy  Dy0  1  0.335434  0.670868  0.434048  1
  Dy  Dy1  1  0.671377  0.342752  0.564368  1
  Dy  Dy2  1  0.671205  0.342410  0.936292  1
  Lu  Lu3  1  0.334816  0.669632  0.065165  1
  Re  Re4  1  0.159310  0.318623  0.750942  1
  Os  Os5  1  0.174260  0.818874  0.751339  1
  Os  Os6  1  0.332692  0.162611  0.248660  1
  Os  Os7  1  0.821992  0.643985  0.248645  1
  Os  Os8  1  0.644612  0.818874  0.751339  1
  Os  Os9  1  0.012214  0.024430  0.000594  1
  Os  Os10  1  0.829920  0.162611  0.248660  1
  Os  Os11  1  0.012166  0.024333  0.499949  1
