# generated using pymatgen
data_Ac3ThAu4
_symmetry_space_group_name_H-M   'P 1'
_cell_length_a   4.91359600
_cell_length_b   6.12792812
_cell_length_c   7.88899487
_cell_angle_alpha   87.76232821
_cell_angle_beta   90.00000000
_cell_angle_gamma   90.00000000
_symmetry_Int_Tables_number   1
_chemical_formula_structural   Ac3ThAu4
_chemical_formula_sum   'Ac3 Th1 Au4'
_cell_volume   237.35778959
_cell_formula_units_Z   1
loop_
 _symmetry_equiv_pos_site_id
 _symmetry_equiv_pos_as_xyz
  1  'x, y, z'
loop_
 _atom_site_type_symbol
 _atom_site_label
 _atom_site_symmetry_multiplicity
 _atom_site_fract_x
 _atom_site_fract_y
 _atom_site_fract_z
 _atom_site_occupancy
  Ac  Ac0  1  0.250000  0.353381  0.686156  1
  Ac  Ac1  1  0.250000  0.143831  0.181818  1
  Ac  Ac2  1  0.750000  0.644150  0.313639  1
  Th  Th3  1  0.750000  0.855113  0.816207  1
  Au  Au4  1  0.250000  0.849739  0.560568  1
  Au  Au5  1  0.250000  0.665847  0.024166  1
  Au  Au6  1  0.750000  0.141397  0.466284  1
  Au  Au7  1  0.750000  0.346542  0.951164  1
