# generated using pymatgen
data_Tb3Th3Si4
_symmetry_space_group_name_H-M   'P 1'
_cell_length_a   7.65153562
_cell_length_b   7.65153562
_cell_length_c   4.23705100
_cell_angle_alpha   90.00000000
_cell_angle_beta   90.00000000
_cell_angle_gamma   90.51614435
_symmetry_Int_Tables_number   1
_chemical_formula_structural   Tb3Th3Si4
_chemical_formula_sum   'Tb3 Th3 Si4'
_cell_volume   248.05231112
_cell_formula_units_Z   1
loop_
 _symmetry_equiv_pos_site_id
 _symmetry_equiv_pos_as_xyz
  1  'x, y, z'
loop_
 _atom_site_type_symbol
 _atom_site_label
 _atom_site_symmetry_multiplicity
 _atom_site_fract_x
 _atom_site_fract_y
 _atom_site_fract_z
 _atom_site_occupancy
  Tb  Tb0  1  0.500573  0.501669  0.000000  1
  Tb  Tb1  1  0.001669  0.000573  0.000000  1
  Tb  Tb2  1  0.676572  0.176572  0.500000  1
  Th  Th3  1  0.321736  0.821736  0.500000  1
  Th  Th4  1  0.178718  0.320020  0.500000  1
  Th  Th5  1  0.820020  0.678718  0.500000  1
  Si  Si6  1  0.115568  0.615568  0.000000  1
  Si  Si7  1  0.882013  0.382013  0.000000  1
  Si  Si8  1  0.616826  0.886305  0.000000  1
  Si  Si9  1  0.386305  0.116826  0.000000  1
