# generated using pymatgen
data_Er3Tm9Tc4
_symmetry_space_group_name_H-M   'P 1'
_cell_length_a   7.39843250
_cell_length_b   8.99342500
_cell_length_c   6.17872200
_cell_angle_alpha   90.00000000
_cell_angle_beta   90.01916212
_cell_angle_gamma   90.00000000
_symmetry_Int_Tables_number   1
_chemical_formula_structural   Er3Tm9Tc4
_chemical_formula_sum   'Er3 Tm9 Tc4'
_cell_volume   411.11513423
_cell_formula_units_Z   1
loop_
 _symmetry_equiv_pos_site_id
 _symmetry_equiv_pos_as_xyz
  1  'x, y, z'
loop_
 _atom_site_type_symbol
 _atom_site_label
 _atom_site_symmetry_multiplicity
 _atom_site_fract_x
 _atom_site_fract_y
 _atom_site_fract_z
 _atom_site_occupancy
  Er  Er0  1  0.039595  0.250000  0.625797  1
  Er  Er1  1  0.960582  0.750000  0.374366  1
  Er  Er2  1  0.460227  0.750000  0.126087  1
  Tm  Tm3  1  0.540118  0.250000  0.873707  1
  Tm  Tm4  1  0.174870  0.062582  0.157871  1
  Tm  Tm5  1  0.824810  0.937742  0.841974  1
  Tm  Tm6  1  0.325448  0.937845  0.658308  1
  Tm  Tm7  1  0.824810  0.562258  0.841974  1
  Tm  Tm8  1  0.674623  0.062570  0.341564  1
  Tm  Tm9  1  0.174870  0.437418  0.157871  1
  Tm  Tm10  1  0.674623  0.437430  0.341564  1
  Tm  Tm11  1  0.325448  0.562155  0.658308  1
  Tc  Tc12  1  0.383917  0.250000  0.458643  1
  Tc  Tc13  1  0.616349  0.750000  0.542091  1
  Tc  Tc14  1  0.116147  0.750000  0.957882  1
  Tc  Tc15  1  0.883565  0.250000  0.041994  1
