# generated using pymatgen
data_Ho4Lu8In2Fe2Ru
_symmetry_space_group_name_H-M   'P 1'
_cell_length_a   8.24533401
_cell_length_b   8.24620757
_cell_length_c   8.24515517
_cell_angle_alpha   108.50817419
_cell_angle_beta   108.50400284
_cell_angle_gamma   111.40999718
_symmetry_Int_Tables_number   1
_chemical_formula_structural   Ho4Lu8In2Fe2Ru
_chemical_formula_sum   'Ho4 Lu8 In2 Fe2 Ru1'
_cell_volume   431.23362242
_cell_formula_units_Z   1
loop_
 _symmetry_equiv_pos_site_id
 _symmetry_equiv_pos_as_xyz
  1  'x, y, z'
loop_
 _atom_site_type_symbol
 _atom_site_label
 _atom_site_symmetry_multiplicity
 _atom_site_fract_x
 _atom_site_fract_y
 _atom_site_fract_z
 _atom_site_occupancy
  Ho  Ho0  1  0.306430  0.306431  0.612785  1
  Ho  Ho1  1  0.693570  0.693569  0.387215  1
  Ho  Ho2  1  0.693631  0.306411  0.000004  1
  Ho  Ho3  1  0.306369  0.693589  0.999996  1
  Lu  Lu4  1  0.191889  0.429135  0.237234  1
  Lu  Lu5  1  0.808111  0.570865  0.762766  1
  Lu  Lu6  1  0.191896  0.954658  0.762767  1
  Lu  Lu7  1  0.954668  0.191916  0.762773  1
  Lu  Lu8  1  0.808104  0.045342  0.237233  1
  Lu  Lu9  1  0.045332  0.808084  0.237227  1
  Lu  Lu10  1  0.429169  0.191909  0.237259  1
  Lu  Lu11  1  0.570831  0.808091  0.762741  1
  In  In12  1  0.000000  0.500000  0.500000  1
  In  In13  1  0.500000  0.000000  0.500000  1
  Fe  Fe14  1  0.383535  0.383131  0.999034  1
  Fe  Fe15  1  0.616465  0.616869  0.000966  1
  Ru  Ru16  1  0.000000  0.000000  0.000000  1
