# generated using pymatgen
data_Eu4Ga18Ir5Rh
_symmetry_space_group_name_H-M   'P 1'
_cell_length_a   7.64352348
_cell_length_b   7.64469312
_cell_length_c   9.80881202
_cell_angle_alpha   90.00386345
_cell_angle_beta   90.00351864
_cell_angle_gamma   119.53147321
_symmetry_Int_Tables_number   1
_chemical_formula_structural   Eu4Ga18Ir5Rh
_chemical_formula_sum   'Eu4 Ga18 Ir5 Rh1'
_cell_volume   498.69129284
_cell_formula_units_Z   1
loop_
 _symmetry_equiv_pos_site_id
 _symmetry_equiv_pos_as_xyz
  1  'x, y, z'
loop_
 _atom_site_type_symbol
 _atom_site_label
 _atom_site_symmetry_multiplicity
 _atom_site_fract_x
 _atom_site_fract_y
 _atom_site_fract_z
 _atom_site_occupancy
  Eu  Eu0  1  0.003029  0.330641  0.750123  1
  Eu  Eu1  1  0.997520  0.669786  0.249698  1
  Eu  Eu2  1  0.330199  0.002487  0.750294  1
  Eu  Eu3  1  0.669370  0.996965  0.249878  1
  Ga  Ga4  1  0.665681  0.665268  0.441708  1
  Ga  Ga5  1  0.334328  0.334253  0.941962  1
  Ga  Ga6  1  0.665687  0.665698  0.058021  1
  Ga  Ga7  1  0.334759  0.334259  0.558310  1
  Ga  Ga8  1  0.002037  0.334988  0.425511  1
  Ga  Ga9  1  0.998020  0.665207  0.925884  1
  Ga  Ga10  1  0.334902  0.002042  0.074051  1
  Ga  Ga11  1  0.664908  0.997934  0.574485  1
  Ga  Ga12  1  0.997442  0.664964  0.574224  1
  Ga  Ga13  1  0.001754  0.334774  0.074271  1
  Ga  Ga14  1  0.665121  0.998217  0.925732  1
  Ga  Ga15  1  0.335145  0.002621  0.425838  1
  Ga  Ga16  1  0.129803  0.129929  0.250043  1
  Ga  Ga17  1  0.870149  0.870180  0.749957  1
  Ga  Ga18  1  0.663390  0.455892  0.749431  1
  Ga  Ga19  1  0.336665  0.543529  0.249967  1
  Ga  Ga20  1  0.456499  0.663440  0.750032  1
  Ga  Ga21  1  0.544022  0.336500  0.250572  1
  Ir  Ir22  1  0.000037  0.999990  0.500005  1
  Ir  Ir23  1  0.999884  0.000143  0.999993  1
  Ir  Ir24  1  0.329637  0.670366  0.000002  1
  Ir  Ir25  1  0.329720  0.670278  0.499996  1
  Ir  Ir26  1  0.670210  0.329771  0.999993  1
  Rh  Rh27  1  0.670082  0.329877  0.500018  1
