# generated using pymatgen
data_Er7Tm5Co6Sn
_symmetry_space_group_name_H-M   'P 1'
_cell_length_a   8.26455152
_cell_length_b   8.26067422
_cell_length_c   8.26099832
_cell_angle_alpha   109.47913161
_cell_angle_beta   109.43187528
_cell_angle_gamma   109.51049300
_symmetry_Int_Tables_number   1
_chemical_formula_structural   Er7Tm5Co6Sn
_chemical_formula_sum   'Er7 Tm5 Co6 Sn1'
_cell_volume   434.11346564
_cell_formula_units_Z   1
loop_
 _symmetry_equiv_pos_site_id
 _symmetry_equiv_pos_as_xyz
  1  'x, y, z'
loop_
 _atom_site_type_symbol
 _atom_site_label
 _atom_site_symmetry_multiplicity
 _atom_site_fract_x
 _atom_site_fract_y
 _atom_site_fract_z
 _atom_site_occupancy
  Er  Er0  1  0.302497  0.497060  0.194349  1
  Er  Er1  1  0.805639  0.698091  0.503724  1
  Er  Er2  1  0.107429  0.805416  0.302229  1
  Er  Er3  1  0.804819  0.301733  0.107242  1
  Er  Er4  1  0.892081  0.194636  0.697426  1
  Er  Er5  1  0.194881  0.302532  0.497278  1
  Er  Er6  1  0.497067  0.194201  0.302215  1
  Tm  Tm7  1  0.502611  0.805562  0.697847  1
  Tm  Tm8  1  0.194811  0.697741  0.891693  1
  Tm  Tm9  1  0.302964  0.107960  0.805583  1
  Tm  Tm10  1  0.696645  0.891194  0.193606  1
  Tm  Tm11  1  0.697415  0.503202  0.805680  1
  Co  Co12  1  0.614185  0.499958  0.113566  1
  Co  Co13  1  0.114441  0.614738  0.500817  1
  Co  Co14  1  0.499855  0.885846  0.386161  1
  Co  Co15  1  0.886266  0.386403  0.500401  1
  Co  Co16  1  0.499993  0.113859  0.614585  1
  Co  Co17  1  0.386565  0.500353  0.885752  1
  Sn  Sn18  1  0.999835  0.999515  0.999847  1
