# generated using pymatgen
data_Hf2Sc2Si6Ir7
_symmetry_space_group_name_H-M   'P 1'
_cell_length_a   6.98675045
_cell_length_b   6.98675035
_cell_length_c   6.99974748
_cell_angle_alpha   109.47153355
_cell_angle_beta   109.47152562
_cell_angle_gamma   109.39526022
_symmetry_Int_Tables_number   1
_chemical_formula_structural   Hf2Sc2Si6Ir7
_chemical_formula_sum   'Hf2 Sc2 Si6 Ir7'
_cell_volume   263.27759994
_cell_formula_units_Z   1
loop_
 _symmetry_equiv_pos_site_id
 _symmetry_equiv_pos_as_xyz
  1  'x, y, z'
loop_
 _atom_site_type_symbol
 _atom_site_label
 _atom_site_symmetry_multiplicity
 _atom_site_fract_x
 _atom_site_fract_y
 _atom_site_fract_z
 _atom_site_occupancy
  Hf  Hf0  1  0.000000  0.500000  0.000000  1
  Hf  Hf1  1  0.500000  0.000000  0.000000  1
  Sc  Sc2  1  0.000000  0.000000  0.500000  1
  Sc  Sc3  1  0.500000  0.500000  0.500000  1
  Si  Si4  1  0.682165  0.682165  0.000000  1
  Si  Si5  1  0.317878  0.003155  0.321033  1
  Si  Si6  1  0.003155  0.317878  0.321033  1
  Si  Si7  1  0.317835  0.317835  0.000000  1
  Si  Si8  1  0.682122  0.996845  0.678967  1
  Si  Si9  1  0.996845  0.682122  0.678967  1
  Ir  Ir10  1  0.750000  0.250000  0.500000  1
  Ir  Ir11  1  0.750189  0.498744  0.248932  1
  Ir  Ir12  1  0.501256  0.249811  0.751068  1
  Ir  Ir13  1  0.249811  0.501256  0.751068  1
  Ir  Ir14  1  0.250000  0.750000  0.500000  1
  Ir  Ir15  1  0.498744  0.750189  0.248932  1
  Ir  Ir16  1  0.000000  0.000000  0.000000  1
