# generated using pymatgen
data_AcSiI
_symmetry_space_group_name_H-M   'P 1'
_cell_length_a   4.38057700
_cell_length_b   4.38057728
_cell_length_c   12.97425800
_cell_angle_alpha   90.00000000
_cell_angle_beta   90.00000000
_cell_angle_gamma   120.00000544
_symmetry_Int_Tables_number   1
_chemical_formula_structural   AcSiI
_chemical_formula_sum   'Ac2 Si2 I2'
_cell_volume   215.61342716
_cell_formula_units_Z   2
loop_
 _symmetry_equiv_pos_site_id
 _symmetry_equiv_pos_as_xyz
  1  'x, y, z'
loop_
 _atom_site_type_symbol
 _atom_site_label
 _atom_site_symmetry_multiplicity
 _atom_site_fract_x
 _atom_site_fract_y
 _atom_site_fract_z
 _atom_site_occupancy
  Ac  Ac0  1  0.000000  0.000000  0.836499  1
  Ac  Ac1  1  0.000000  0.000000  0.163501  1
  Si  Si2  1  0.333333  0.666667  0.993927  1
  Si  Si3  1  0.666667  0.333333  0.006073  1
  I  I4  1  0.333333  0.666667  0.338041  1
  I  I5  1  0.666667  0.333333  0.661959  1
