# generated using pymatgen
data_Eu2NbZnO6
_symmetry_space_group_name_H-M   'P 1'
_cell_length_a   5.58763687
_cell_length_b   5.80235400
_cell_length_c   9.78507922
_cell_angle_alpha   90.00000000
_cell_angle_beta   125.28422644
_cell_angle_gamma   90.00000000
_symmetry_Int_Tables_number   1
_chemical_formula_structural   Eu2NbZnO6
_chemical_formula_sum   'Eu4 Nb2 Zn2 O12'
_cell_volume   258.96719499
_cell_formula_units_Z   2
loop_
 _symmetry_equiv_pos_site_id
 _symmetry_equiv_pos_as_xyz
  1  'x, y, z'
loop_
 _atom_site_type_symbol
 _atom_site_label
 _atom_site_symmetry_multiplicity
 _atom_site_fract_x
 _atom_site_fract_y
 _atom_site_fract_z
 _atom_site_occupancy
  Eu  Eu0  1  0.238990  0.445705  0.752444  1
  Eu  Eu1  1  0.238990  0.054295  0.252444  1
  Eu  Eu2  1  0.761010  0.554295  0.247556  1
  Eu  Eu3  1  0.761010  0.945705  0.747556  1
  Nb  Nb4  1  0.000000  0.500000  0.000000  1
  Nb  Nb5  1  0.000000  0.000000  0.500000  1
  Zn  Zn6  1  0.500000  0.500000  0.500000  1
  Zn  Zn7  1  0.500000  0.000000  0.000000  1
  O  O8  1  0.340764  0.033867  0.743050  1
  O  O9  1  0.340764  0.466133  0.243050  1
  O  O10  1  0.659236  0.966133  0.256950  1
  O  O11  1  0.659236  0.533867  0.756950  1
  O  O12  1  0.756031  0.194305  0.547360  1
  O  O13  1  0.756031  0.305695  0.047360  1
  O  O14  1  0.243969  0.805695  0.452640  1
  O  O15  1  0.243969  0.694305  0.952640  1
  O  O16  1  0.137726  0.212884  0.945481  1
  O  O17  1  0.137726  0.287116  0.445481  1
  O  O18  1  0.862274  0.787116  0.054519  1
  O  O19  1  0.862274  0.712884  0.554519  1
