# generated using pymatgen
data_Lu2Co2Hg
_symmetry_space_group_name_H-M   'P 1'
_cell_length_a   7.11766538
_cell_length_b   7.11766500
_cell_length_c   3.77039000
_cell_angle_alpha   90.00000000
_cell_angle_beta   90.00000000
_cell_angle_gamma   149.62077835
_symmetry_Int_Tables_number   1
_chemical_formula_structural   Lu2Co2Hg
_chemical_formula_sum   'Lu2 Co2 Hg1'
_cell_volume   96.59893135
_cell_formula_units_Z   1
loop_
 _symmetry_equiv_pos_site_id
 _symmetry_equiv_pos_as_xyz
  1  'x, y, z'
loop_
 _atom_site_type_symbol
 _atom_site_label
 _atom_site_symmetry_multiplicity
 _atom_site_fract_x
 _atom_site_fract_y
 _atom_site_fract_z
 _atom_site_occupancy
  Lu  Lu0  1  0.640805  0.359198  0.500000  1
  Lu  Lu1  1  0.359198  0.640805  0.500000  1
  Co  Co2  1  0.796715  0.203288  0.000000  1
  Co  Co3  1  0.203288  0.796715  0.000000  1
  Hg  Hg4  1  0.000000  0.000000  0.000000  1
