# generated using pymatgen
data_Nd2YGaSi
_symmetry_space_group_name_H-M   'P 1'
_cell_length_a   7.73682200
_cell_length_b   7.71288100
_cell_length_c   4.44563600
_cell_angle_alpha   90.00000000
_cell_angle_beta   90.00000000
_cell_angle_gamma   90.00000000
_symmetry_Int_Tables_number   1
_chemical_formula_structural   Nd2YGaSi
_chemical_formula_sum   'Nd4 Y2 Ga2 Si2'
_cell_volume   265.28527016
_cell_formula_units_Z   2
loop_
 _symmetry_equiv_pos_site_id
 _symmetry_equiv_pos_as_xyz
  1  'x, y, z'
loop_
 _atom_site_type_symbol
 _atom_site_label
 _atom_site_symmetry_multiplicity
 _atom_site_fract_x
 _atom_site_fract_y
 _atom_site_fract_z
 _atom_site_occupancy
  Nd  Nd0  1  0.673766  0.175981  0.500000  1
  Nd  Nd1  1  0.826234  0.675981  0.500000  1
  Nd  Nd2  1  0.178371  0.324604  0.500000  1
  Nd  Nd3  1  0.321629  0.824604  0.500000  1
  Y  Y4  1  0.494859  0.495440  0.000000  1
  Y  Y5  1  0.005141  0.995440  0.000000  1
  Ga  Ga6  1  0.616708  0.884016  0.000000  1
  Ga  Ga7  1  0.883292  0.384016  0.000000  1
  Si  Si8  1  0.119857  0.619958  0.000000  1
  Si  Si9  1  0.380143  0.119958  0.000000  1
