# generated using pymatgen
data_Sc19(RuCl7)4
_symmetry_space_group_name_H-M   'P 1'
_cell_length_a   10.67344308
_cell_length_b   10.67344288
_cell_length_c   10.67344300
_cell_angle_alpha   89.28671549
_cell_angle_beta   89.28671550
_cell_angle_gamma   89.28672122
_symmetry_Int_Tables_number   1
_chemical_formula_structural   Sc19(RuCl7)4
_chemical_formula_sum   'Sc19 Ru4 Cl28'
_cell_volume   1215.66373922
_cell_formula_units_Z   1
loop_
 _symmetry_equiv_pos_site_id
 _symmetry_equiv_pos_as_xyz
  1  'x, y, z'
loop_
 _atom_site_type_symbol
 _atom_site_label
 _atom_site_symmetry_multiplicity
 _atom_site_fract_x
 _atom_site_fract_y
 _atom_site_fract_z
 _atom_site_occupancy
  Sc  Sc0  1  0.335766  0.120402  0.120402  1
  Sc  Sc1  1  0.120402  0.335766  0.120402  1
  Sc  Sc2  1  0.120402  0.120402  0.335766  1
  Sc  Sc3  1  0.335202  0.882477  0.882477  1
  Sc  Sc4  1  0.119270  0.663955  0.883199  1
  Sc  Sc5  1  0.119270  0.883199  0.663955  1
  Sc  Sc6  1  0.663955  0.883199  0.119270  1
  Sc  Sc7  1  0.883199  0.663955  0.119270  1
  Sc  Sc8  1  0.882477  0.882477  0.335202  1
  Sc  Sc9  1  0.663955  0.119270  0.883199  1
  Sc  Sc10  1  0.882477  0.335202  0.882477  1
  Sc  Sc11  1  0.883199  0.119270  0.663955  1
  Sc  Sc12  1  0.857415  0.857415  0.857415  1
  Sc  Sc13  1  0.856574  0.142189  0.142189  1
  Sc  Sc14  1  0.142189  0.142189  0.856574  1
  Sc  Sc15  1  0.142189  0.856574  0.142189  1
  Sc  Sc16  1  0.382989  0.619927  0.619927  1
  Sc  Sc17  1  0.619927  0.619927  0.382989  1
  Sc  Sc18  1  0.619927  0.382989  0.619927  1
  Ru  Ru19  1  0.098711  0.098711  0.098711  1
  Ru  Ru20  1  0.099617  0.898640  0.898640  1
  Ru  Ru21  1  0.898640  0.898640  0.099617  1
  Ru  Ru22  1  0.898640  0.099617  0.898640  1
  Cl  Cl23  1  0.600575  0.124539  0.124539  1
  Cl  Cl24  1  0.124539  0.600575  0.124539  1
  Cl  Cl25  1  0.124539  0.124539  0.600575  1
  Cl  Cl26  1  0.602648  0.875888  0.875888  1
  Cl  Cl27  1  0.121483  0.398206  0.873717  1
  Cl  Cl28  1  0.121483  0.873717  0.398206  1
  Cl  Cl29  1  0.398206  0.873717  0.121483  1
  Cl  Cl30  1  0.873717  0.398206  0.121483  1
  Cl  Cl31  1  0.875888  0.875888  0.602648  1
  Cl  Cl32  1  0.398206  0.121483  0.873717  1
  Cl  Cl33  1  0.875888  0.602648  0.875888  1
  Cl  Cl34  1  0.873717  0.121483  0.398206  1
  Cl  Cl35  1  0.625792  0.625792  0.625792  1
  Cl  Cl36  1  0.633883  0.386078  0.386078  1
  Cl  Cl37  1  0.386078  0.386078  0.633883  1
  Cl  Cl38  1  0.386078  0.633883  0.386078  1
  Cl  Cl39  1  0.110180  0.354290  0.354290  1
  Cl  Cl40  1  0.354290  0.110180  0.354290  1
  Cl  Cl41  1  0.354290  0.354290  0.110180  1
  Cl  Cl42  1  0.136097  0.637959  0.637959  1
  Cl  Cl43  1  0.364879  0.866811  0.637318  1
  Cl  Cl44  1  0.364879  0.637318  0.866811  1
  Cl  Cl45  1  0.866811  0.637318  0.364879  1
  Cl  Cl46  1  0.637318  0.866811  0.364879  1
  Cl  Cl47  1  0.637959  0.637959  0.136097  1
  Cl  Cl48  1  0.866811  0.364879  0.637318  1
  Cl  Cl49  1  0.637959  0.136097  0.637959  1
  Cl  Cl50  1  0.637318  0.364879  0.866811  1
