# generated using pymatgen
data_Tb2Tm3Co2
_symmetry_space_group_name_H-M   'P 1'
_cell_length_a   6.26314693
_cell_length_b   6.85724896
_cell_length_c   8.47737018
_cell_angle_alpha   96.43651316
_cell_angle_beta   111.67884583
_cell_angle_gamma   89.99999879
_symmetry_Int_Tables_number   1
_chemical_formula_structural   Tb2Tm3Co2
_chemical_formula_sum   'Tb4 Tm6 Co4'
_cell_volume   335.86273035
_cell_formula_units_Z   2
loop_
 _symmetry_equiv_pos_site_id
 _symmetry_equiv_pos_as_xyz
  1  'x, y, z'
loop_
 _atom_site_type_symbol
 _atom_site_label
 _atom_site_symmetry_multiplicity
 _atom_site_fract_x
 _atom_site_fract_y
 _atom_site_fract_z
 _atom_site_occupancy
  Tb  Tb0  1  0.979813  0.913936  0.190197  1
  Tb  Tb1  1  0.789615  0.586064  0.809803  1
  Tb  Tb2  1  0.020187  0.086064  0.809803  1
  Tb  Tb3  1  0.210385  0.413936  0.190197  1
  Tm  Tm4  1  0.648211  0.816212  0.433034  1
  Tm  Tm5  1  0.215177  0.683788  0.566966  1
  Tm  Tm6  1  0.351789  0.183788  0.566966  1
  Tm  Tm7  1  0.784823  0.316212  0.433034  1
  Tm  Tm8  1  0.427863  0.750000  0.000000  1
  Tm  Tm9  1  0.572137  0.250000  0.000000  1
  Co  Co10  1  0.821524  0.570441  0.222557  1
  Co  Co11  1  0.598967  0.929559  0.777443  1
  Co  Co12  1  0.178477  0.429559  0.777443  1
  Co  Co13  1  0.401033  0.070441  0.222557  1
