# generated using pymatgen
data_Hf(Zn10Ru)2
_symmetry_space_group_name_H-M   'P 1'
_cell_length_a   9.83367940
_cell_length_b   9.83367945
_cell_length_c   9.83367900
_cell_angle_alpha   60.00000488
_cell_angle_beta   59.99999798
_cell_angle_gamma   60.00000024
_symmetry_Int_Tables_number   1
_chemical_formula_structural   Hf(Zn10Ru)2
_chemical_formula_sum   'Hf2 Zn40 Ru4'
_cell_volume   672.40840360
_cell_formula_units_Z   2
loop_
 _symmetry_equiv_pos_site_id
 _symmetry_equiv_pos_as_xyz
  1  'x, y, z'
loop_
 _atom_site_type_symbol
 _atom_site_label
 _atom_site_symmetry_multiplicity
 _atom_site_fract_x
 _atom_site_fract_y
 _atom_site_fract_z
 _atom_site_occupancy
  Hf  Hf0  1  0.125000  0.125000  0.125000  1
  Hf  Hf1  1  0.875000  0.875000  0.875000  1
  Zn  Zn2  1  0.487486  0.487486  0.762514  1
  Zn  Zn3  1  0.237486  0.512514  0.237486  1
  Zn  Zn4  1  0.322470  0.322470  0.057111  1
  Zn  Zn5  1  0.322470  0.057111  0.797950  1
  Zn  Zn6  1  0.762514  0.487486  0.487486  1
  Zn  Zn7  1  0.942889  0.202050  0.677530  1
  Zn  Zn8  1  0.677530  0.202050  0.942889  1
  Zn  Zn9  1  0.000000  0.000000  0.500000  1
  Zn  Zn10  1  0.677530  0.942889  0.202050  1
  Zn  Zn11  1  0.797950  0.322470  0.057111  1
  Zn  Zn12  1  0.942889  0.677530  0.677530  1
  Zn  Zn13  1  0.677530  0.677530  0.942889  1
  Zn  Zn14  1  0.797950  0.057111  0.322470  1
  Zn  Zn15  1  0.942889  0.677530  0.202050  1
  Zn  Zn16  1  0.677530  0.202050  0.677530  1
  Zn  Zn17  1  0.202050  0.942889  0.677530  1
  Zn  Zn18  1  0.057111  0.322470  0.322470  1
  Zn  Zn19  1  0.512514  0.512514  0.237486  1
  Zn  Zn20  1  0.057111  0.797950  0.322470  1
  Zn  Zn21  1  0.322470  0.797950  0.057111  1
  Zn  Zn22  1  0.322470  0.322470  0.797950  1
  Zn  Zn23  1  0.322470  0.057111  0.322470  1
  Zn  Zn24  1  0.762514  0.487486  0.762514  1
  Zn  Zn25  1  0.677530  0.942889  0.677530  1
  Zn  Zn26  1  0.487486  0.762514  0.762514  1
  Zn  Zn27  1  0.322470  0.797950  0.322470  1
  Zn  Zn28  1  0.487486  0.762514  0.487486  1
  Zn  Zn29  1  0.202050  0.677530  0.677530  1
  Zn  Zn30  1  0.677530  0.677530  0.202050  1
  Zn  Zn31  1  0.202050  0.677530  0.942889  1
  Zn  Zn32  1  0.500000  0.000000  0.000000  1
  Zn  Zn33  1  0.512514  0.237486  0.237486  1
  Zn  Zn34  1  0.000000  0.000000  0.000000  1
  Zn  Zn35  1  0.762514  0.762514  0.487486  1
  Zn  Zn36  1  0.237486  0.237486  0.512514  1
  Zn  Zn37  1  0.512514  0.237486  0.512514  1
  Zn  Zn38  1  0.797950  0.322470  0.322470  1
  Zn  Zn39  1  0.000000  0.500000  0.000000  1
  Zn  Zn40  1  0.237486  0.512514  0.512514  1
  Zn  Zn41  1  0.057111  0.322470  0.797950  1
  Ru  Ru42  1  0.000000  0.500000  0.500000  1
  Ru  Ru43  1  0.500000  0.500000  0.000000  1
  Ru  Ru44  1  0.500000  0.500000  0.500000  1
  Ru  Ru45  1  0.500000  0.000000  0.500000  1
