# generated using pymatgen
data_Ce2Al4FeRu
_symmetry_space_group_name_H-M   'P 1'
_cell_length_a   5.16895336
_cell_length_b   5.16895268
_cell_length_c   7.24149600
_cell_angle_alpha   90.00000000
_cell_angle_beta   90.00000000
_cell_angle_gamma   130.23060395
_symmetry_Int_Tables_number   1
_chemical_formula_structural   Ce2Al4FeRu
_chemical_formula_sum   'Ce2 Al4 Fe1 Ru1'
_cell_volume   147.71164055
_cell_formula_units_Z   1
loop_
 _symmetry_equiv_pos_site_id
 _symmetry_equiv_pos_as_xyz
  1  'x, y, z'
loop_
 _atom_site_type_symbol
 _atom_site_label
 _atom_site_symmetry_multiplicity
 _atom_site_fract_x
 _atom_site_fract_y
 _atom_site_fract_z
 _atom_site_occupancy
  Ce  Ce0  1  0.549334  0.450666  0.250000  1
  Ce  Ce1  1  0.437094  0.562906  0.750000  1
  Al  Al2  1  0.844723  0.155277  0.058178  1
  Al  Al3  1  0.155542  0.844458  0.956508  1
  Al  Al4  1  0.155542  0.844458  0.543492  1
  Al  Al5  1  0.844723  0.155277  0.441822  1
  Fe  Fe6  1  0.323476  0.676524  0.250000  1
  Ru  Ru7  1  0.689566  0.310434  0.750000  1
