# generated using pymatgen
data_DyEr2Tl(SbO4)4
_symmetry_space_group_name_H-M   'P 1'
_cell_length_a   5.37757029
_cell_length_b   7.69882208
_cell_length_c   7.55737547
_cell_angle_alpha   80.72622386
_cell_angle_beta   90.98157348
_cell_angle_gamma   92.01060477
_symmetry_Int_Tables_number   1
_chemical_formula_structural   DyEr2Tl(SbO4)4
_chemical_formula_sum   'Dy1 Er2 Tl1 Sb4 O16'
_cell_volume   308.58206719
_cell_formula_units_Z   1
loop_
 _symmetry_equiv_pos_site_id
 _symmetry_equiv_pos_as_xyz
  1  'x, y, z'
loop_
 _atom_site_type_symbol
 _atom_site_label
 _atom_site_symmetry_multiplicity
 _atom_site_fract_x
 _atom_site_fract_y
 _atom_site_fract_z
 _atom_site_occupancy
  Dy  Dy0  1  0.736835  0.865237  0.383453  1
  Er  Er1  1  0.213368  0.156991  0.109865  1
  Er  Er2  1  0.788514  0.841910  0.891535  1
  Tl  Tl3  1  0.259576  0.135302  0.618524  1
  Sb  Sb4  1  0.240715  0.662909  0.194052  1
  Sb  Sb5  1  0.759488  0.338568  0.805481  1
  Sb  Sb6  1  0.726546  0.336131  0.307699  1
  Sb  Sb7  1  0.270950  0.666185  0.691802  1
  O  O8  1  0.082244  0.438718  0.692305  1
  O  O9  1  0.913436  0.564832  0.308833  1
  O  O10  1  0.609078  0.328117  0.558567  1
  O  O11  1  0.389714  0.675704  0.440019  1
  O  O12  1  0.877759  0.330508  0.062952  1
  O  O13  1  0.124561  0.670231  0.938984  1
  O  O14  1  0.400062  0.430220  0.195019  1
  O  O15  1  0.596774  0.570844  0.806032  1
  O  O16  1  0.043068  0.886789  0.171729  1
  O  O17  1  0.955295  0.113911  0.831598  1
  O  O18  1  0.524692  0.112025  0.308326  1
  O  O19  1  0.489438  0.890198  0.676780  1
  O  O20  1  0.467202  0.188018  0.883302  1
  O  O21  1  0.536483  0.809269  0.118881  1
  O  O22  1  0.001470  0.165725  0.383410  1
  O  O23  1  0.992734  0.821661  0.620851  1
