# generated using pymatgen
data_Cd3PdRuPt2PbO14
_symmetry_space_group_name_H-M   'P 1'
_cell_length_a   7.30808403
_cell_length_b   7.27459240
_cell_length_c   7.30808300
_cell_angle_alpha   59.42266124
_cell_angle_beta   59.74207242
_cell_angle_gamma   59.42266320
_symmetry_Int_Tables_number   1
_chemical_formula_structural   Cd3PdRuPt2PbO14
_chemical_formula_sum   'Cd3 Pd1 Ru1 Pt2 Pb1 O14'
_cell_volume   271.77937921
_cell_formula_units_Z   1
loop_
 _symmetry_equiv_pos_site_id
 _symmetry_equiv_pos_as_xyz
  1  'x, y, z'
loop_
 _atom_site_type_symbol
 _atom_site_label
 _atom_site_symmetry_multiplicity
 _atom_site_fract_x
 _atom_site_fract_y
 _atom_site_fract_z
 _atom_site_occupancy
  Cd  Cd0  1  0.125000  0.625000  0.125000  1
  Cd  Cd1  1  0.125000  0.125000  0.625000  1
  Cd  Cd2  1  0.625000  0.125000  0.125000  1
  Pd  Pd3  1  0.625000  0.125000  0.625000  1
  Ru  Ru4  1  0.625000  0.625000  0.625000  1
  Pt  Pt5  1  0.625000  0.625000  0.125000  1
  Pt  Pt6  1  0.125000  0.625000  0.625000  1
  Pb  Pb7  1  0.125000  0.125000  0.125000  1
  O  O8  1  0.702731  0.693736  0.304793  1
  O  O9  1  0.945207  0.556264  0.547269  1
  O  O10  1  0.540000  0.962462  0.963917  1
  O  O11  1  0.963917  0.962462  0.540000  1
  O  O12  1  0.961531  0.539238  0.961531  1
  O  O13  1  0.551635  0.941267  0.551635  1
  O  O14  1  0.288469  0.710762  0.288469  1
  O  O15  1  0.304793  0.693736  0.702731  1
  O  O16  1  0.710000  0.287538  0.286083  1
  O  O17  1  0.698365  0.308733  0.698365  1
  O  O18  1  0.547269  0.556264  0.945207  1
  O  O19  1  0.286083  0.287538  0.710000  1
  O  O20  1  0.249878  0.247417  0.249878  1
  O  O21  1  0.000122  0.002583  0.000122  1
