# generated using pymatgen
data_Gd4Mg2CdIn
_symmetry_space_group_name_H-M   'P 1'
_cell_length_a   7.28126956
_cell_length_b   6.66844474
_cell_length_c   5.41526400
_cell_angle_alpha   90.00000000
_cell_angle_beta   90.00000000
_cell_angle_gamma   123.13459382
_symmetry_Int_Tables_number   1
_chemical_formula_structural   Gd4Mg2CdIn
_chemical_formula_sum   'Gd4 Mg2 Cd1 In1'
_cell_volume   220.18030486
_cell_formula_units_Z   1
loop_
 _symmetry_equiv_pos_site_id
 _symmetry_equiv_pos_as_xyz
  1  'x, y, z'
loop_
 _atom_site_type_symbol
 _atom_site_label
 _atom_site_symmetry_multiplicity
 _atom_site_fract_x
 _atom_site_fract_y
 _atom_site_fract_z
 _atom_site_occupancy
  Gd  Gd0  1  0.639637  0.781451  0.500000  1
  Gd  Gd1  1  0.141475  0.781377  0.500000  1
  Gd  Gd2  1  0.364792  0.216627  0.000000  1
  Gd  Gd3  1  0.851994  0.217054  0.000000  1
  Mg  Mg4  1  0.142156  0.284587  0.500000  1
  Mg  Mg5  1  0.857021  0.714659  0.000000  1
  Cd  Cd6  1  0.651623  0.303512  0.500000  1
  In  In7  1  0.351303  0.700732  0.000000  1
