# generated using pymatgen
data_Y2Lu3Pb4
_symmetry_space_group_name_H-M   'P 1'
_cell_length_a   8.11773000
_cell_length_b   8.21040600
_cell_length_c   15.43854900
_cell_angle_alpha   90.00000000
_cell_angle_beta   90.00000000
_cell_angle_gamma   90.00000000
_symmetry_Int_Tables_number   1
_chemical_formula_structural   Y2Lu3Pb4
_chemical_formula_sum   'Y8 Lu12 Pb16'
_cell_volume   1028.97711553
_cell_formula_units_Z   4
loop_
 _symmetry_equiv_pos_site_id
 _symmetry_equiv_pos_as_xyz
  1  'x, y, z'
loop_
 _atom_site_type_symbol
 _atom_site_label
 _atom_site_symmetry_multiplicity
 _atom_site_fract_x
 _atom_site_fract_y
 _atom_site_fract_z
 _atom_site_occupancy
  Y  Y0  1  0.471752  0.677251  0.597386  1
  Y  Y1  1  0.971752  0.822749  0.902614  1
  Y  Y2  1  0.528248  0.322749  0.097386  1
  Y  Y3  1  0.028248  0.177251  0.402614  1
  Y  Y4  1  0.528248  0.322749  0.402614  1
  Y  Y5  1  0.028248  0.177251  0.097386  1
  Y  Y6  1  0.471752  0.677251  0.902614  1
  Y  Y7  1  0.971752  0.822749  0.597386  1
  Lu  Lu8  1  0.632269  0.157635  0.622672  1
  Lu  Lu9  1  0.132269  0.342365  0.877328  1
  Lu  Lu10  1  0.367731  0.842365  0.122672  1
  Lu  Lu11  1  0.867731  0.657635  0.377328  1
  Lu  Lu12  1  0.367731  0.842365  0.377328  1
  Lu  Lu13  1  0.867731  0.657635  0.122672  1
  Lu  Lu14  1  0.632269  0.157635  0.877328  1
  Lu  Lu15  1  0.132269  0.342365  0.622672  1
  Lu  Lu16  1  0.799158  0.494579  0.750000  1
  Lu  Lu17  1  0.299158  0.005421  0.750000  1
  Lu  Lu18  1  0.200842  0.505421  0.250000  1
  Lu  Lu19  1  0.700842  0.994579  0.250000  1
  Pb  Pb20  1  0.708294  0.960016  0.457111  1
  Pb  Pb21  1  0.208294  0.539984  0.042889  1
  Pb  Pb22  1  0.291706  0.039984  0.957111  1
  Pb  Pb23  1  0.791706  0.460016  0.542889  1
  Pb  Pb24  1  0.291706  0.039984  0.542889  1
  Pb  Pb25  1  0.791706  0.460016  0.957111  1
  Pb  Pb26  1  0.708294  0.960016  0.042889  1
  Pb  Pb27  1  0.208294  0.539984  0.457111  1
  Pb  Pb28  1  0.437630  0.371939  0.750000  1
  Pb  Pb29  1  0.937630  0.128061  0.750000  1
  Pb  Pb30  1  0.562370  0.628061  0.250000  1
  Pb  Pb31  1  0.062370  0.871939  0.250000  1
  Pb  Pb32  1  0.660505  0.846173  0.750000  1
  Pb  Pb33  1  0.160505  0.653827  0.750000  1
  Pb  Pb34  1  0.339495  0.153827  0.250000  1
  Pb  Pb35  1  0.839495  0.346173  0.250000  1
