# generated using pymatgen
data_Y12Os2RuRh
_symmetry_space_group_name_H-M   'P 1'
_cell_length_a   6.41134219
_cell_length_b   7.36435040
_cell_length_c   9.17947900
_cell_angle_alpha   90.00000000
_cell_angle_beta   90.00000000
_cell_angle_gamma   90.32549071
_symmetry_Int_Tables_number   1
_chemical_formula_structural   Y12Os2RuRh
_chemical_formula_sum   'Y12 Os2 Ru1 Rh1'
_cell_volume   433.40550812
_cell_formula_units_Z   1
loop_
 _symmetry_equiv_pos_site_id
 _symmetry_equiv_pos_as_xyz
  1  'x, y, z'
loop_
 _atom_site_type_symbol
 _atom_site_label
 _atom_site_symmetry_multiplicity
 _atom_site_fract_x
 _atom_site_fract_y
 _atom_site_fract_z
 _atom_site_occupancy
  Y  Y0  1  0.634440  0.039706  0.250000  1
  Y  Y1  1  0.368493  0.959576  0.750000  1
  Y  Y2  1  0.130982  0.460213  0.750000  1
  Y  Y3  1  0.869189  0.541034  0.250000  1
  Y  Y4  1  0.174257  0.175948  0.067307  1
  Y  Y5  1  0.827564  0.822196  0.936038  1
  Y  Y6  1  0.667603  0.327208  0.938030  1
  Y  Y7  1  0.827564  0.822196  0.563962  1
  Y  Y8  1  0.329975  0.674642  0.063340  1
  Y  Y9  1  0.174257  0.175948  0.432693  1
  Y  Y10  1  0.329975  0.674642  0.436660  1
  Y  Y11  1  0.667603  0.327208  0.561970  1
  Os  Os12  1  0.464055  0.383509  0.250000  1
  Os  Os13  1  0.538044  0.616167  0.750000  1
  Ru  Ru14  1  0.036892  0.885167  0.250000  1
  Rh  Rh15  1  0.959110  0.114639  0.750000  1
