# generated using pymatgen
data_CeHo15(InCo)4
_symmetry_space_group_name_H-M   'P 1'
_cell_length_a   9.52787596
_cell_length_b   9.52787588
_cell_length_c   9.48583800
_cell_angle_alpha   60.14585080
_cell_angle_beta   60.14585109
_cell_angle_gamma   60.41934371
_symmetry_Int_Tables_number   1
_chemical_formula_structural   CeHo15(InCo)4
_chemical_formula_sum   'Ce1 Ho15 In4 Co4'
_cell_volume   612.16763870
_cell_formula_units_Z   1
loop_
 _symmetry_equiv_pos_site_id
 _symmetry_equiv_pos_as_xyz
  1  'x, y, z'
loop_
 _atom_site_type_symbol
 _atom_site_label
 _atom_site_symmetry_multiplicity
 _atom_site_fract_x
 _atom_site_fract_y
 _atom_site_fract_z
 _atom_site_occupancy
  Ce  Ce0  1  0.946448  0.946448  0.553552  1
  Ho  Ho1  1  0.808942  0.189719  0.188025  1
  Ho  Ho2  1  0.939153  0.561092  0.560346  1
  Ho  Ho3  1  0.939153  0.561092  0.939409  1
  Ho  Ho4  1  0.811179  0.811179  0.188821  1
  Ho  Ho5  1  0.345002  0.345002  0.345713  1
  Ho  Ho6  1  0.561092  0.939153  0.939409  1
  Ho  Ho7  1  0.561092  0.939153  0.560346  1
  Ho  Ho8  1  0.189719  0.808942  0.813314  1
  Ho  Ho9  1  0.187409  0.187409  0.812591  1
  Ho  Ho10  1  0.345002  0.345002  0.964285  1
  Ho  Ho11  1  0.352336  0.957838  0.344914  1
  Ho  Ho12  1  0.808942  0.189719  0.813314  1
  Ho  Ho13  1  0.561008  0.561008  0.938992  1
  Ho  Ho14  1  0.189719  0.808942  0.188025  1
  Ho  Ho15  1  0.957838  0.352336  0.344914  1
  In  In16  1  0.583200  0.583200  0.251965  1
  In  In17  1  0.254844  0.581248  0.581955  1
  In  In18  1  0.583200  0.583200  0.581637  1
  In  In19  1  0.581248  0.254844  0.581955  1
  Co  Co20  1  0.578068  0.139947  0.140993  1
  Co  Co21  1  0.137732  0.137732  0.146112  1
  Co  Co22  1  0.139947  0.578068  0.140993  1
  Co  Co23  1  0.137732  0.137732  0.578425  1
