# generated using pymatgen
data_Er5Zr3(As3Rh4)4
_symmetry_space_group_name_H-M   'P 1'
_cell_length_a   13.31743700
_cell_length_b   13.31743746
_cell_length_c   4.00332800
_cell_angle_alpha   90.00000000
_cell_angle_beta   90.00000000
_cell_angle_gamma   120.00000134
_symmetry_Int_Tables_number   1
_chemical_formula_structural   Er5Zr3(As3Rh4)4
_chemical_formula_sum   'Er5 Zr3 As12 Rh16'
_cell_volume   614.88389327
_cell_formula_units_Z   1
loop_
 _symmetry_equiv_pos_site_id
 _symmetry_equiv_pos_as_xyz
  1  'x, y, z'
loop_
 _atom_site_type_symbol
 _atom_site_label
 _atom_site_symmetry_multiplicity
 _atom_site_fract_x
 _atom_site_fract_y
 _atom_site_fract_z
 _atom_site_occupancy
  Er  Er0  1  0.187603  0.187603  0.500000  1
  Er  Er1  1  0.812397  0.000000  0.500000  1
  Er  Er2  1  0.000000  0.812397  0.500000  1
  Er  Er3  1  0.333333  0.666667  0.000000  1
  Er  Er4  1  0.666667  0.333333  0.000000  1
  Zr  Zr5  1  0.556306  0.556306  0.000000  1
  Zr  Zr6  1  0.443694  0.000000  0.000000  1
  Zr  Zr7  1  0.000000  0.443694  0.000000  1
  As  As8  1  0.824982  0.824982  0.000000  1
  As  As9  1  0.175018  0.000000  0.000000  1
  As  As10  1  0.000000  0.175018  0.000000  1
  As  As11  1  0.170912  0.486038  0.500000  1
  As  As12  1  0.513962  0.684874  0.500000  1
  As  As13  1  0.315126  0.829088  0.500000  1
  As  As14  1  0.684874  0.513962  0.500000  1
  As  As15  1  0.829088  0.315126  0.500000  1
  As  As16  1  0.486038  0.170912  0.500000  1
  As  As17  1  0.353948  0.353948  0.000000  1
  As  As18  1  0.646052  0.000000  0.000000  1
  As  As19  1  0.000000  0.646052  0.000000  1
  Rh  Rh20  1  0.719593  0.719593  0.500000  1
  Rh  Rh21  1  0.280407  0.000000  0.500000  1
  Rh  Rh22  1  0.000000  0.280407  0.500000  1
  Rh  Rh23  1  0.176535  0.373561  0.000000  1
  Rh  Rh24  1  0.626439  0.802974  0.000000  1
  Rh  Rh25  1  0.197026  0.823465  0.000000  1
  Rh  Rh26  1  0.802974  0.626439  0.000000  1
  Rh  Rh27  1  0.823465  0.197026  0.000000  1
  Rh  Rh28  1  0.373561  0.176535  0.000000  1
  Rh  Rh29  1  0.354829  0.482580  0.500000  1
  Rh  Rh30  1  0.517420  0.872250  0.500000  1
  Rh  Rh31  1  0.127750  0.645171  0.500000  1
  Rh  Rh32  1  0.872250  0.517420  0.500000  1
  Rh  Rh33  1  0.645171  0.127750  0.500000  1
  Rh  Rh34  1  0.482580  0.354829  0.500000  1
  Rh  Rh35  1  0.000000  0.000000  0.000000  1
