# generated using pymatgen
data_Tm7Lu3InSn5
_symmetry_space_group_name_H-M   'P 1'
_cell_length_a   6.46051700
_cell_length_b   8.83469161
_cell_length_c   8.83232000
_cell_angle_alpha   120.01241431
_cell_angle_beta   90.00131558
_cell_angle_gamma   89.99985466
_symmetry_Int_Tables_number   1
_chemical_formula_structural   Tm7Lu3InSn5
_chemical_formula_sum   'Tm7 Lu3 In1 Sn5'
_cell_volume   436.52563597
_cell_formula_units_Z   1
loop_
 _symmetry_equiv_pos_site_id
 _symmetry_equiv_pos_as_xyz
  1  'x, y, z'
loop_
 _atom_site_type_symbol
 _atom_site_label
 _atom_site_symmetry_multiplicity
 _atom_site_fract_x
 _atom_site_fract_y
 _atom_site_fract_z
 _atom_site_occupancy
  Tm  Tm0  1  0.999044  0.333970  0.667264  1
  Tm  Tm1  1  0.749917  0.238858  0.000107  1
  Tm  Tm2  1  0.749939  0.761032  0.762689  1
  Tm  Tm3  1  0.749919  0.998122  0.237220  1
  Tm  Tm4  1  0.250086  0.761971  0.000066  1
  Tm  Tm5  1  0.250096  0.238612  0.238235  1
  Tm  Tm6  1  0.250078  0.000184  0.761671  1
  Lu  Lu7  1  0.500981  0.333945  0.667275  1
  Lu  Lu8  1  0.500959  0.666661  0.332746  1
  Lu  Lu9  1  0.999021  0.666669  0.332690  1
  In  In10  1  0.749743  0.603898  0.000226  1
  Sn  Sn11  1  0.749730  0.394948  0.394805  1
  Sn  Sn12  1  0.749742  0.999688  0.604993  1
  Sn  Sn13  1  0.250265  0.395692  0.000265  1
  Sn  Sn14  1  0.250237  0.605154  0.604053  1
  Sn  Sn15  1  0.250242  0.000595  0.395695  1
