# generated using pymatgen
data_Pd3Pt(SeO3)8
_symmetry_space_group_name_H-M   'P 1'
_cell_length_a   8.07361648
_cell_length_b   8.07361662
_cell_length_c   8.07361716
_cell_angle_alpha   90.04639986
_cell_angle_beta   89.95360234
_cell_angle_gamma   90.04640524
_symmetry_Int_Tables_number   1
_chemical_formula_structural   Pd3Pt(SeO3)8
_chemical_formula_sum   'Pd3 Pt1 Se8 O24'
_cell_volume   526.26436467
_cell_formula_units_Z   1
loop_
 _symmetry_equiv_pos_site_id
 _symmetry_equiv_pos_as_xyz
  1  'x, y, z'
loop_
 _atom_site_type_symbol
 _atom_site_label
 _atom_site_symmetry_multiplicity
 _atom_site_fract_x
 _atom_site_fract_y
 _atom_site_fract_z
 _atom_site_occupancy
  Pd  Pd0  1  0.500000  0.500000  0.000000  1
  Pd  Pd1  1  0.500000  0.000000  0.500000  1
  Pd  Pd2  1  0.000000  0.000000  0.000000  1
  Pt  Pt3  1  0.000000  0.500000  0.500000  1
  Se  Se4  1  0.832928  0.166264  0.667526  1
  Se  Se5  1  0.167072  0.833736  0.332474  1
  Se  Se6  1  0.666264  0.667526  0.667072  1
  Se  Se7  1  0.167526  0.667072  0.833736  1
  Se  Se8  1  0.332060  0.167940  0.832060  1
  Se  Se9  1  0.832474  0.332928  0.166264  1
  Se  Se10  1  0.667940  0.832060  0.167940  1
  Se  Se11  1  0.333736  0.332474  0.332928  1
  O  O12  1  0.248251  0.476807  0.472844  1
  O  O13  1  0.971160  0.247744  0.022415  1
  O  O14  1  0.027156  0.748251  0.476807  1
  O  O15  1  0.470544  0.252608  0.976558  1
  O  O16  1  0.252256  0.977585  0.471160  1
  O  O17  1  0.522415  0.528840  0.752256  1
  O  O18  1  0.975796  0.026578  0.752183  1
  O  O19  1  0.529456  0.747392  0.023442  1
  O  O20  1  0.523442  0.970544  0.252608  1
  O  O21  1  0.476558  0.029456  0.747392  1
  O  O22  1  0.752608  0.976558  0.029456  1
  O  O23  1  0.252183  0.524204  0.973422  1
  O  O24  1  0.023193  0.527156  0.748251  1
  O  O25  1  0.024204  0.973422  0.247817  1
  O  O26  1  0.247392  0.023442  0.970544  1
  O  O27  1  0.477585  0.471160  0.247744  1
  O  O28  1  0.751749  0.523193  0.527156  1
  O  O29  1  0.976807  0.472844  0.251749  1
  O  O30  1  0.028840  0.752256  0.977585  1
  O  O31  1  0.473422  0.247817  0.475796  1
  O  O32  1  0.526578  0.752183  0.524204  1
  O  O33  1  0.972844  0.251749  0.523193  1
  O  O34  1  0.747744  0.022415  0.528840  1
  O  O35  1  0.747817  0.475796  0.026578  1
