# generated using pymatgen
data_Ac7Pr(AgSn)8
_symmetry_space_group_name_H-M   'P 1'
_cell_length_a   9.80403500
_cell_length_b   9.80403493
_cell_length_c   8.29757100
_cell_angle_alpha   90.00000000
_cell_angle_beta   90.00000000
_cell_angle_gamma   120.00000361
_symmetry_Int_Tables_number   1
_chemical_formula_structural   Ac7Pr(AgSn)8
_chemical_formula_sum   'Ac7 Pr1 Ag8 Sn8'
_cell_volume   690.70292635
_cell_formula_units_Z   1
loop_
 _symmetry_equiv_pos_site_id
 _symmetry_equiv_pos_as_xyz
  1  'x, y, z'
loop_
 _atom_site_type_symbol
 _atom_site_label
 _atom_site_symmetry_multiplicity
 _atom_site_fract_x
 _atom_site_fract_y
 _atom_site_fract_z
 _atom_site_occupancy
  Ac  Ac0  1  0.487112  0.512888  0.503352  1
  Ac  Ac1  1  0.487112  0.974223  0.503352  1
  Ac  Ac2  1  0.025777  0.512888  0.503352  1
  Ac  Ac3  1  0.513834  0.486166  0.003441  1
  Ac  Ac4  1  0.513834  0.027666  0.003441  1
  Ac  Ac5  1  0.972334  0.486166  0.003441  1
  Ac  Ac6  1  0.000000  0.000000  0.504492  1
  Pr  Pr7  1  0.000000  0.000000  0.002904  1
  Ag  Ag8  1  0.833934  0.166066  0.723503  1
  Ag  Ag9  1  0.833934  0.667868  0.723503  1
  Ag  Ag10  1  0.332132  0.166066  0.723503  1
  Ag  Ag11  1  0.165474  0.834526  0.205390  1
  Ag  Ag12  1  0.165474  0.330949  0.205390  1
  Ag  Ag13  1  0.669051  0.834526  0.205390  1
  Ag  Ag14  1  0.666667  0.333333  0.302093  1
  Ag  Ag15  1  0.333333  0.666667  0.803076  1
  Sn  Sn16  1  0.835524  0.164476  0.276464  1
  Sn  Sn17  1  0.835524  0.671049  0.276464  1
  Sn  Sn18  1  0.328951  0.164476  0.276464  1
  Sn  Sn19  1  0.163821  0.836179  0.788796  1
  Sn  Sn20  1  0.163821  0.327640  0.788796  1
  Sn  Sn21  1  0.672360  0.836179  0.788796  1
  Sn  Sn22  1  0.666667  0.333333  0.715450  1
  Sn  Sn23  1  0.333333  0.666667  0.227153  1
