# generated using pymatgen
data_Dy4SnAs5Ir7
_symmetry_space_group_name_H-M   'P 1'
_cell_length_a   7.35079375
_cell_length_b   7.35085304
_cell_length_c   7.35085425
_cell_angle_alpha   109.38115702
_cell_angle_beta   109.51503448
_cell_angle_gamma   109.51502808
_symmetry_Int_Tables_number   1
_chemical_formula_structural   Dy4SnAs5Ir7
_chemical_formula_sum   'Dy4 Sn1 As5 Ir7'
_cell_volume   305.77388831
_cell_formula_units_Z   1
loop_
 _symmetry_equiv_pos_site_id
 _symmetry_equiv_pos_as_xyz
  1  'x, y, z'
loop_
 _atom_site_type_symbol
 _atom_site_label
 _atom_site_symmetry_multiplicity
 _atom_site_fract_x
 _atom_site_fract_y
 _atom_site_fract_z
 _atom_site_occupancy
  Dy  Dy0  1  0.000004  0.003013  0.479008  1
  Dy  Dy1  1  0.000004  0.479008  0.003013  1
  Dy  Dy2  1  0.523955  0.002996  0.002996  1
  Dy  Dy3  1  0.475991  0.479054  0.479054  1
  Sn  Sn4  1  0.000039  0.703049  0.703049  1
  As  As5  1  0.680460  0.674536  0.994087  1
  As  As6  1  0.319608  0.994173  0.313726  1
  As  As7  1  0.999990  0.335295  0.335295  1
  As  As8  1  0.319608  0.313726  0.994173  1
  As  As9  1  0.680460  0.994087  0.674536  1
  Ir  Ir10  1  0.746169  0.246711  0.500609  1
  Ir  Ir11  1  0.746169  0.500609  0.246711  1
  Ir  Ir12  1  0.500035  0.246721  0.746759  1
  Ir  Ir13  1  0.253865  0.500569  0.754471  1
  Ir  Ir14  1  0.253865  0.754471  0.500569  1
  Ir  Ir15  1  0.500035  0.746759  0.246721  1
  Ir  Ir16  1  0.999742  0.025222  0.025222  1
