# generated using pymatgen
data_Ho5Tm3Re(B8Ir)3
_symmetry_space_group_name_H-M   'P 1'
_cell_length_a   3.64167200
_cell_length_b   9.14156146
_cell_length_c   11.47599906
_cell_angle_alpha   90.15154999
_cell_angle_beta   90.00000000
_cell_angle_gamma   90.00000000
_symmetry_Int_Tables_number   1
_chemical_formula_structural   Ho5Tm3Re(B8Ir)3
_chemical_formula_sum   'Ho5 Tm3 Re1 B24 Ir3'
_cell_volume   382.04119543
_cell_formula_units_Z   1
loop_
 _symmetry_equiv_pos_site_id
 _symmetry_equiv_pos_as_xyz
  1  'x, y, z'
loop_
 _atom_site_type_symbol
 _atom_site_label
 _atom_site_symmetry_multiplicity
 _atom_site_fract_x
 _atom_site_fract_y
 _atom_site_fract_z
 _atom_site_occupancy
  Ho  Ho0  1  0.000000  0.320809  0.413867  1
  Ho  Ho1  1  0.000000  0.683195  0.590688  1
  Ho  Ho2  1  0.000000  0.820429  0.082542  1
  Ho  Ho3  1  0.000000  0.176175  0.912268  1
  Ho  Ho4  1  0.000000  0.943745  0.373134  1
  Tm  Tm5  1  0.000000  0.053644  0.626682  1
  Tm  Tm6  1  0.000000  0.443718  0.125880  1
  Tm  Tm7  1  0.000000  0.557289  0.874890  1
  Re  Re8  1  0.000000  0.862265  0.821162  1
  B  B9  1  0.500000  0.553627  0.434278  1
  B  B10  1  0.500000  0.447336  0.566776  1
  B  B11  1  0.500000  0.053697  0.066285  1
  B  B12  1  0.500000  0.946591  0.933091  1
  B  B13  1  0.500000  0.749908  0.420641  1
  B  B14  1  0.500000  0.250087  0.579350  1
  B  B15  1  0.500000  0.249722  0.079050  1
  B  B16  1  0.500000  0.751298  0.919802  1
  B  B17  1  0.500000  0.791789  0.264594  1
  B  B18  1  0.500000  0.207494  0.733627  1
  B  B19  1  0.500000  0.293594  0.234879  1
  B  B20  1  0.500000  0.707660  0.766150  1
  B  B21  1  0.500000  0.630693  0.183906  1
  B  B22  1  0.500000  0.368664  0.816055  1
  B  B23  1  0.500000  0.132237  0.315546  1
  B  B24  1  0.500000  0.869155  0.685431  1
  B  B25  1  0.500000  0.981975  0.212701  1
  B  B26  1  0.500000  0.017440  0.786356  1
  B  B27  1  0.500000  0.481044  0.287078  1
  B  B28  1  0.500000  0.518107  0.714265  1
  B  B29  1  0.500000  0.606542  0.030465  1
  B  B30  1  0.500000  0.391075  0.970566  1
  B  B31  1  0.500000  0.109083  0.470131  1
  B  B32  1  0.500000  0.892282  0.528993  1
  Ir  Ir33  1  0.000000  0.636728  0.321848  1
  Ir  Ir34  1  0.000000  0.362453  0.678595  1
  Ir  Ir35  1  0.000000  0.138450  0.178424  1
