# generated using pymatgen
data_Pr4Ho12MgHg3Rh4
_symmetry_space_group_name_H-M   'P 1'
_cell_length_a   9.70072455
_cell_length_b   9.69478509
_cell_length_c   9.69477416
_cell_angle_alpha   59.56376241
_cell_angle_beta   59.75865367
_cell_angle_gamma   59.75977334
_symmetry_Int_Tables_number   1
_chemical_formula_structural   Pr4Ho12MgHg3Rh4
_chemical_formula_sum   'Pr4 Ho12 Mg1 Hg3 Rh4'
_cell_volume   640.22549236
_cell_formula_units_Z   1
loop_
 _symmetry_equiv_pos_site_id
 _symmetry_equiv_pos_as_xyz
  1  'x, y, z'
loop_
 _atom_site_type_symbol
 _atom_site_label
 _atom_site_symmetry_multiplicity
 _atom_site_fract_x
 _atom_site_fract_y
 _atom_site_fract_z
 _atom_site_occupancy
  Pr  Pr0  1  0.561733  0.937983  0.563156  1
  Pr  Pr1  1  0.939736  0.563118  0.934730  1
  Pr  Pr2  1  0.561728  0.563156  0.937987  1
  Pr  Pr3  1  0.939726  0.934741  0.563124  1
  Ho  Ho4  1  0.347245  0.348073  0.348079  1
  Ho  Ho5  1  0.349838  0.348880  0.956388  1
  Ho  Ho6  1  0.349830  0.956401  0.348880  1
  Ho  Ho7  1  0.943464  0.351933  0.351931  1
  Ho  Ho8  1  0.811617  0.187700  0.187705  1
  Ho  Ho9  1  0.181248  0.815817  0.815824  1
  Ho  Ho10  1  0.185909  0.812324  0.187029  1
  Ho  Ho11  1  0.809516  0.187704  0.811751  1
  Ho  Ho12  1  0.185911  0.187031  0.812323  1
  Ho  Ho13  1  0.809516  0.811745  0.187704  1
  Ho  Ho14  1  0.941513  0.556675  0.556669  1
  Ho  Ho15  1  0.554850  0.942653  0.942660  1
  Mg  Mg16  1  0.286703  0.569243  0.569224  1
  Hg  Hg17  1  0.585739  0.582056  0.582057  1
  Hg  Hg18  1  0.579583  0.590038  0.247527  1
  Hg  Hg19  1  0.579574  0.247525  0.590039  1
  Rh  Rh20  1  0.145088  0.141110  0.141105  1
  Rh  Rh21  1  0.138221  0.148449  0.573683  1
  Rh  Rh22  1  0.138223  0.573675  0.148451  1
  Rh  Rh23  1  0.573488  0.141970  0.141974  1
