# generated using pymatgen
data_Te19Ir
_symmetry_space_group_name_H-M   'P 1'
_cell_length_a   9.39478478
_cell_length_b   9.39478397
_cell_length_c   9.39478344
_cell_angle_alpha   85.50936960
_cell_angle_beta   85.50937314
_cell_angle_gamma   85.50937592
_symmetry_Int_Tables_number   1
_chemical_formula_structural   Te19Ir
_chemical_formula_sum   'Te19 Ir1'
_cell_volume   821.94350907
_cell_formula_units_Z   1
loop_
 _symmetry_equiv_pos_site_id
 _symmetry_equiv_pos_as_xyz
  1  'x, y, z'
loop_
 _atom_site_type_symbol
 _atom_site_label
 _atom_site_symmetry_multiplicity
 _atom_site_fract_x
 _atom_site_fract_y
 _atom_site_fract_z
 _atom_site_occupancy
  Te  Te0  1  0.112746  0.927366  0.248091  1
  Te  Te1  1  0.248091  0.112746  0.927366  1
  Te  Te2  1  0.927366  0.248091  0.112746  1
  Te  Te3  1  0.887254  0.072634  0.751909  1
  Te  Te4  1  0.751909  0.887254  0.072634  1
  Te  Te5  1  0.072634  0.751909  0.887254  1
  Te  Te6  1  0.500000  0.500000  0.500000  1
  Te  Te7  1  0.178337  0.633236  0.220424  1
  Te  Te8  1  0.220424  0.178337  0.633236  1
  Te  Te9  1  0.633236  0.220424  0.178337  1
  Te  Te10  1  0.821663  0.366764  0.779576  1
  Te  Te11  1  0.779576  0.821663  0.366764  1
  Te  Te12  1  0.366764  0.779576  0.821663  1
  Te  Te13  1  0.507689  0.164620  0.520085  1
  Te  Te14  1  0.520085  0.507689  0.164620  1
  Te  Te15  1  0.164620  0.520085  0.507689  1
  Te  Te16  1  0.492311  0.835380  0.479915  1
  Te  Te17  1  0.479915  0.492311  0.835380  1
  Te  Te18  1  0.835380  0.479915  0.492311  1
  Ir  Ir19  1  0.000000  0.000000  0.000000  1
