# generated using pymatgen
data_YbPr6RuCl12
_symmetry_space_group_name_H-M   'P 1'
_cell_length_a   9.48233439
_cell_length_b   9.28754716
_cell_length_c   9.31167418
_cell_angle_alpha   106.84915582
_cell_angle_beta   107.76337759
_cell_angle_gamma   107.14962405
_symmetry_Int_Tables_number   1
_chemical_formula_structural   YbPr6RuCl12
_chemical_formula_sum   'Yb1 Pr6 Ru1 Cl12'
_cell_volume   678.12802519
_cell_formula_units_Z   1
loop_
 _symmetry_equiv_pos_site_id
 _symmetry_equiv_pos_as_xyz
  1  'x, y, z'
loop_
 _atom_site_type_symbol
 _atom_site_label
 _atom_site_symmetry_multiplicity
 _atom_site_fract_x
 _atom_site_fract_y
 _atom_site_fract_z
 _atom_site_occupancy
  Yb  Yb0  1  0.500000  0.500000  0.500000  1
  Pr  Pr1  1  0.113854  0.318006  0.023192  1
  Pr  Pr2  1  0.327945  0.023920  0.120668  1
  Pr  Pr3  1  0.024635  0.113927  0.317323  1
  Pr  Pr4  1  0.975366  0.886073  0.682678  1
  Pr  Pr5  1  0.672055  0.976081  0.879332  1
  Pr  Pr6  1  0.886146  0.681994  0.976808  1
  Ru  Ru7  1  0.000000  0.000000  0.000000  1
  Cl  Cl8  1  0.205830  0.684884  0.071271  1
  Cl  Cl9  1  0.453848  0.373007  0.177435  1
  Cl  Cl10  1  0.687509  0.071927  0.205189  1
  Cl  Cl11  1  0.929648  0.791885  0.315906  1
  Cl  Cl12  1  0.183040  0.457186  0.375160  1
  Cl  Cl13  1  0.373356  0.177160  0.457838  1
  Cl  Cl14  1  0.626644  0.822840  0.542163  1
  Cl  Cl15  1  0.816961  0.542814  0.624840  1
  Cl  Cl16  1  0.070353  0.208115  0.684095  1
  Cl  Cl17  1  0.312492  0.928074  0.794811  1
  Cl  Cl18  1  0.546152  0.626993  0.822566  1
  Cl  Cl19  1  0.794170  0.315116  0.928729  1
