# generated using pymatgen
data_Eu4Ta3SbO14
_symmetry_space_group_name_H-M   'P 1'
_cell_length_a   7.65132414
_cell_length_b   7.65132314
_cell_length_c   7.65132331
_cell_angle_alpha   59.76686694
_cell_angle_beta   59.76687423
_cell_angle_gamma   59.76687258
_symmetry_Int_Tables_number   1
_chemical_formula_structural   Eu4Ta3SbO14
_chemical_formula_sum   'Eu4 Ta3 Sb1 O14'
_cell_volume   315.05744032
_cell_formula_units_Z   1
loop_
 _symmetry_equiv_pos_site_id
 _symmetry_equiv_pos_as_xyz
  1  'x, y, z'
loop_
 _atom_site_type_symbol
 _atom_site_label
 _atom_site_symmetry_multiplicity
 _atom_site_fract_x
 _atom_site_fract_y
 _atom_site_fract_z
 _atom_site_occupancy
  Eu  Eu0  1  0.625000  0.125000  0.125000  1
  Eu  Eu1  1  0.125000  0.625000  0.125000  1
  Eu  Eu2  1  0.125000  0.125000  0.625000  1
  Eu  Eu3  1  0.125000  0.125000  0.125000  1
  Ta  Ta4  1  0.125000  0.625000  0.625000  1
  Ta  Ta5  1  0.625000  0.125000  0.625000  1
  Ta  Ta6  1  0.625000  0.625000  0.125000  1
  Sb  Sb7  1  0.625000  0.625000  0.625000  1
  O  O8  1  0.246585  0.246585  0.246585  1
  O  O9  1  0.003415  0.003415  0.003415  1
  O  O10  1  0.714919  0.714919  0.262497  1
  O  O11  1  0.317284  0.317284  0.702101  1
  O  O12  1  0.714919  0.262497  0.714919  1
  O  O13  1  0.317284  0.702101  0.317284  1
  O  O14  1  0.262497  0.714919  0.714919  1
  O  O15  1  0.702101  0.317284  0.317284  1
  O  O16  1  0.535081  0.535081  0.987503  1
  O  O17  1  0.932716  0.932716  0.547899  1
  O  O18  1  0.535081  0.987503  0.535081  1
  O  O19  1  0.932716  0.547899  0.932716  1
  O  O20  1  0.987503  0.535081  0.535081  1
  O  O21  1  0.547899  0.932716  0.932716  1
