# generated using pymatgen
data_LuHf(Zr4Sn3)2
_symmetry_space_group_name_H-M   'P 1'
_cell_length_a   8.58464951
_cell_length_b   8.58440282
_cell_length_c   5.83955006
_cell_angle_alpha   89.98570805
_cell_angle_beta   90.00118221
_cell_angle_gamma   120.54589629
_symmetry_Int_Tables_number   1
_chemical_formula_structural   LuHf(Zr4Sn3)2
_chemical_formula_sum   'Lu1 Hf1 Zr8 Sn6'
_cell_volume   370.61868041
_cell_formula_units_Z   1
loop_
 _symmetry_equiv_pos_site_id
 _symmetry_equiv_pos_as_xyz
  1  'x, y, z'
loop_
 _atom_site_type_symbol
 _atom_site_label
 _atom_site_symmetry_multiplicity
 _atom_site_fract_x
 _atom_site_fract_y
 _atom_site_fract_z
 _atom_site_occupancy
  Lu  Lu0  1  0.764584  0.764781  0.750415  1
  Hf  Hf1  1  0.665409  0.332608  0.499540  1
  Zr  Zr2  1  0.250973  0.001307  0.750267  1
  Zr  Zr3  1  0.001665  0.250881  0.750481  1
  Zr  Zr4  1  0.239929  0.240173  0.249640  1
  Zr  Zr5  1  0.750871  0.999265  0.249603  1
  Zr  Zr6  1  0.999381  0.750685  0.249588  1
  Zr  Zr7  1  0.665453  0.332760  0.000813  1
  Zr  Zr8  1  0.332719  0.665494  0.000674  1
  Zr  Zr9  1  0.332548  0.665354  0.499371  1
  Sn  Sn10  1  0.392521  0.391678  0.748569  1
  Sn  Sn11  1  0.607461  0.002687  0.748615  1
  Sn  Sn12  1  0.000528  0.606378  0.748572  1
  Sn  Sn13  1  0.606655  0.605709  0.251337  1
  Sn  Sn14  1  0.390892  0.000255  0.251336  1
  Sn  Sn15  1  0.998412  0.389986  0.251180  1
