# generated using pymatgen
data_La2SiP3Ir4
_symmetry_space_group_name_H-M   'P 1'
_cell_length_a   4.21762100
_cell_length_b   4.21762100
_cell_length_c   9.57603300
_cell_angle_alpha   90.00000000
_cell_angle_beta   90.00000000
_cell_angle_gamma   90.00000000
_symmetry_Int_Tables_number   1
_chemical_formula_structural   La2SiP3Ir4
_chemical_formula_sum   'La2 Si1 P3 Ir4'
_cell_volume   170.34160541
_cell_formula_units_Z   1
loop_
 _symmetry_equiv_pos_site_id
 _symmetry_equiv_pos_as_xyz
  1  'x, y, z'
loop_
 _atom_site_type_symbol
 _atom_site_label
 _atom_site_symmetry_multiplicity
 _atom_site_fract_x
 _atom_site_fract_y
 _atom_site_fract_z
 _atom_site_occupancy
  La  La0  1  0.000000  0.500000  0.263831  1
  La  La1  1  0.500000  0.000000  0.737809  1
  Si  Si2  1  0.500000  0.000000  0.135722  1
  P  P3  1  0.000000  0.000000  0.500928  1
  P  P4  1  0.500000  0.500000  0.500928  1
  P  P5  1  0.000000  0.500000  0.863484  1
  Ir  Ir6  1  0.000000  0.000000  0.996720  1
  Ir  Ir7  1  0.500000  0.500000  0.996720  1
  Ir  Ir8  1  0.000000  0.500000  0.612969  1
  Ir  Ir9  1  0.500000  0.000000  0.390891  1
