# generated using pymatgen
data_Sr3(CePb2)2
_symmetry_space_group_name_H-M   'P 1'
_cell_length_a   8.23536700
_cell_length_b   8.87306700
_cell_length_c   16.75317200
_cell_angle_alpha   90.00000000
_cell_angle_beta   90.00000000
_cell_angle_gamma   90.00000000
_symmetry_Int_Tables_number   1
_chemical_formula_structural   Sr3(CePb2)2
_chemical_formula_sum   'Sr12 Ce8 Pb16'
_cell_volume   1224.20392038
_cell_formula_units_Z   4
loop_
 _symmetry_equiv_pos_site_id
 _symmetry_equiv_pos_as_xyz
  1  'x, y, z'
loop_
 _atom_site_type_symbol
 _atom_site_label
 _atom_site_symmetry_multiplicity
 _atom_site_fract_x
 _atom_site_fract_y
 _atom_site_fract_z
 _atom_site_occupancy
  Sr  Sr0  1  0.500438  0.682724  0.591565  1
  Sr  Sr1  1  0.000438  0.817276  0.908435  1
  Sr  Sr2  1  0.499562  0.317276  0.091565  1
  Sr  Sr3  1  0.999562  0.182724  0.408435  1
  Sr  Sr4  1  0.499562  0.317276  0.408435  1
  Sr  Sr5  1  0.999562  0.182724  0.091565  1
  Sr  Sr6  1  0.500438  0.682724  0.908435  1
  Sr  Sr7  1  0.000438  0.817276  0.591565  1
  Sr  Sr8  1  0.825787  0.515633  0.750000  1
  Sr  Sr9  1  0.325787  0.984367  0.750000  1
  Sr  Sr10  1  0.174213  0.484367  0.250000  1
  Sr  Sr11  1  0.674213  0.015633  0.250000  1
  Ce  Ce12  1  0.670420  0.163688  0.620329  1
  Ce  Ce13  1  0.170420  0.336312  0.879671  1
  Ce  Ce14  1  0.329580  0.836312  0.120329  1
  Ce  Ce15  1  0.829580  0.663688  0.379671  1
  Ce  Ce16  1  0.329580  0.836312  0.379671  1
  Ce  Ce17  1  0.829580  0.663688  0.120329  1
  Ce  Ce18  1  0.670420  0.163688  0.879671  1
  Ce  Ce19  1  0.170420  0.336312  0.620329  1
  Pb  Pb20  1  0.674038  0.957011  0.459445  1
  Pb  Pb21  1  0.174038  0.542989  0.040555  1
  Pb  Pb22  1  0.325962  0.042989  0.959445  1
  Pb  Pb23  1  0.825962  0.457011  0.540555  1
  Pb  Pb24  1  0.325962  0.042989  0.540555  1
  Pb  Pb25  1  0.825962  0.457011  0.959445  1
  Pb  Pb26  1  0.674038  0.957011  0.040555  1
  Pb  Pb27  1  0.174038  0.542989  0.459445  1
  Pb  Pb28  1  0.465835  0.361353  0.750000  1
  Pb  Pb29  1  0.965835  0.138647  0.750000  1
  Pb  Pb30  1  0.534165  0.638647  0.250000  1
  Pb  Pb31  1  0.034165  0.861353  0.250000  1
  Pb  Pb32  1  0.715078  0.879656  0.750000  1
  Pb  Pb33  1  0.215078  0.620344  0.750000  1
  Pb  Pb34  1  0.284922  0.120344  0.250000  1
  Pb  Pb35  1  0.784922  0.379656  0.250000  1
