# generated using pymatgen
data_LaYb9(CdNi2)2
_symmetry_space_group_name_H-M   'P 1'
_cell_length_a   8.99073939
_cell_length_b   8.99073973
_cell_length_c   8.99779960
_cell_angle_alpha   130.19395822
_cell_angle_beta   130.19395877
_cell_angle_gamma   73.79476718
_symmetry_Int_Tables_number   1
_chemical_formula_structural   LaYb9(CdNi2)2
_chemical_formula_sum   'La1 Yb9 Cd2 Ni4'
_cell_volume   412.44447426
_cell_formula_units_Z   1
loop_
 _symmetry_equiv_pos_site_id
 _symmetry_equiv_pos_as_xyz
  1  'x, y, z'
loop_
 _atom_site_type_symbol
 _atom_site_label
 _atom_site_symmetry_multiplicity
 _atom_site_fract_x
 _atom_site_fract_y
 _atom_site_fract_z
 _atom_site_occupancy
  La  La0  1  0.539594  0.039594  0.832324  1
  Yb  Yb1  1  0.499068  0.506244  0.001688  1
  Yb  Yb2  1  0.006244  0.999068  0.001688  1
  Yb  Yb3  1  0.196913  0.696913  0.153188  1
  Yb  Yb4  1  0.036980  0.201213  0.498816  1
  Yb  Yb5  1  0.701213  0.536980  0.498816  1
  Yb  Yb6  1  0.463961  0.963961  0.165410  1
  Yb  Yb7  1  0.798826  0.298826  0.839365  1
  Yb  Yb8  1  0.965579  0.797958  0.503294  1
  Yb  Yb9  1  0.297958  0.465579  0.503294  1
  Cd  Cd10  1  0.248226  0.252508  0.003730  1
  Cd  Cd11  1  0.752508  0.748226  0.003730  1
  Ni  Ni12  1  0.114837  0.614837  0.728981  1
  Ni  Ni13  1  0.877742  0.377742  0.262802  1
  Ni  Ni14  1  0.618428  0.881922  0.501436  1
  Ni  Ni15  1  0.381922  0.118428  0.501436  1
