# generated using pymatgen
data_ZrSc2Nb3SiTc6Ge5
_symmetry_space_group_name_H-M   'P 1'
_cell_length_a   3.40641200
_cell_length_b   7.06143531
_cell_length_c   12.12227700
_cell_angle_alpha   89.58715309
_cell_angle_beta   90.00000000
_cell_angle_gamma   90.00000000
_symmetry_Int_Tables_number   1
_chemical_formula_structural   ZrSc2Nb3SiTc6Ge5
_chemical_formula_sum   'Zr1 Sc2 Nb3 Si1 Tc6 Ge5'
_cell_volume   291.58359650
_cell_formula_units_Z   1
loop_
 _symmetry_equiv_pos_site_id
 _symmetry_equiv_pos_as_xyz
  1  'x, y, z'
loop_
 _atom_site_type_symbol
 _atom_site_label
 _atom_site_symmetry_multiplicity
 _atom_site_fract_x
 _atom_site_fract_y
 _atom_site_fract_z
 _atom_site_occupancy
  Zr  Zr0  1  0.500000  0.798747  0.203054  1
  Sc  Sc1  1  0.500000  0.299147  0.302232  1
  Sc  Sc2  1  0.500000  0.298243  0.697782  1
  Nb  Nb3  1  0.500000  0.407093  0.999205  1
  Nb  Nb4  1  0.500000  0.893884  0.502642  1
  Nb  Nb5  1  0.500000  0.795430  0.798310  1
  Si  Si6  1  0.500000  0.496060  0.499559  1
  Tc  Tc7  1  0.000000  0.741797  0.995262  1
  Tc  Tc8  1  0.000000  0.245674  0.501608  1
  Tc  Tc9  1  0.000000  0.631585  0.624882  1
  Tc  Tc10  1  0.000000  0.131734  0.126292  1
  Tc  Tc11  1  0.000000  0.127615  0.870527  1
  Tc  Tc12  1  0.000000  0.631931  0.377492  1
  Ge  Ge13  1  0.000000  0.998995  0.667064  1
  Ge  Ge14  1  0.000000  0.496124  0.165805  1
  Ge  Ge15  1  0.000000  0.498054  0.831067  1
  Ge  Ge16  1  0.000000  0.003457  0.338097  1
  Ge  Ge17  1  0.500000  0.004629  0.999119  1
