# generated using pymatgen
data_Zr10ZnSiSnSb5
_symmetry_space_group_name_H-M   'P 1'
_cell_length_a   8.68501359
_cell_length_b   8.66891435
_cell_length_c   5.87326200
_cell_angle_alpha   90.06696672
_cell_angle_beta   89.96657515
_cell_angle_gamma   119.93870131
_symmetry_Int_Tables_number   1
_chemical_formula_structural   Zr10ZnSiSnSb5
_chemical_formula_sum   'Zr10 Zn1 Si1 Sn1 Sb5'
_cell_volume   383.18883868
_cell_formula_units_Z   1
loop_
 _symmetry_equiv_pos_site_id
 _symmetry_equiv_pos_as_xyz
  1  'x, y, z'
loop_
 _atom_site_type_symbol
 _atom_site_label
 _atom_site_symmetry_multiplicity
 _atom_site_fract_x
 _atom_site_fract_y
 _atom_site_fract_z
 _atom_site_occupancy
  Zr  Zr0  1  0.666231  0.333288  0.000658  1
  Zr  Zr1  1  0.333769  0.667058  0.000658  1
  Zr  Zr2  1  0.334188  0.667499  0.499498  1
  Zr  Zr3  1  0.665812  0.333310  0.499498  1
  Zr  Zr4  1  0.737450  0.736883  0.755247  1
  Zr  Zr5  1  0.262550  0.999433  0.755247  1
  Zr  Zr6  1  0.000000  0.262505  0.754802  1
  Zr  Zr7  1  0.265039  0.264472  0.244961  1
  Zr  Zr8  1  0.734961  0.999434  0.244961  1
  Zr  Zr9  1  0.000000  0.736575  0.244880  1
  Zn  Zn10  1  0.000000  0.000963  0.498673  1
  Si  Si11  1  0.000000  0.000825  0.001325  1
  Sn  Sn12  1  0.000000  0.389099  0.253218  1
  Sb  Sb13  1  0.390326  0.391209  0.746942  1
  Sb  Sb14  1  0.609674  0.000884  0.746942  1
  Sb  Sb15  1  0.000000  0.607156  0.746573  1
  Sb  Sb16  1  0.609804  0.609605  0.252959  1
  Sb  Sb17  1  0.390196  0.999802  0.252959  1
