# generated using pymatgen
data_Mg2InB2Ir5
_symmetry_space_group_name_H-M   'P 1'
_cell_length_a   9.73620300
_cell_length_b   9.73620300
_cell_length_c   2.96993900
_cell_angle_alpha   90.00000000
_cell_angle_beta   90.00000000
_cell_angle_gamma   90.00000000
_symmetry_Int_Tables_number   1
_chemical_formula_structural   Mg2InB2Ir5
_chemical_formula_sum   'Mg4 In2 B4 Ir10'
_cell_volume   281.53135469
_cell_formula_units_Z   2
loop_
 _symmetry_equiv_pos_site_id
 _symmetry_equiv_pos_as_xyz
  1  'x, y, z'
loop_
 _atom_site_type_symbol
 _atom_site_label
 _atom_site_symmetry_multiplicity
 _atom_site_fract_x
 _atom_site_fract_y
 _atom_site_fract_z
 _atom_site_occupancy
  Mg  Mg0  1  0.676680  0.176680  0.000000  1
  Mg  Mg1  1  0.323320  0.823320  0.000000  1
  Mg  Mg2  1  0.176680  0.323320  0.000000  1
  Mg  Mg3  1  0.823320  0.676680  0.000000  1
  In  In4  1  0.000000  0.000000  0.000000  1
  In  In5  1  0.500000  0.500000  0.000000  1
  B  B6  1  0.122170  0.622170  0.000000  1
  B  B7  1  0.877830  0.377830  0.000000  1
  B  B8  1  0.622170  0.877830  0.000000  1
  B  B9  1  0.377830  0.122170  0.000000  1
  Ir  Ir10  1  0.500000  0.000000  0.500000  1
  Ir  Ir11  1  0.000000  0.500000  0.500000  1
  Ir  Ir12  1  0.224126  0.070981  0.500000  1
  Ir  Ir13  1  0.775874  0.929019  0.500000  1
  Ir  Ir14  1  0.070981  0.775874  0.500000  1
  Ir  Ir15  1  0.724126  0.429019  0.500000  1
  Ir  Ir16  1  0.929019  0.224126  0.500000  1
  Ir  Ir17  1  0.275874  0.570981  0.500000  1
  Ir  Ir18  1  0.570981  0.724126  0.500000  1
  Ir  Ir19  1  0.429019  0.275874  0.500000  1
