# generated using pymatgen
data_AcNdPdS3
_symmetry_space_group_name_H-M   'P 1'
_cell_length_a   6.98216152
_cell_length_b   6.98216161
_cell_length_c   10.22727600
_cell_angle_alpha   90.00000000
_cell_angle_beta   90.00000000
_cell_angle_gamma   146.03823203
_symmetry_Int_Tables_number   1
_chemical_formula_structural   AcNdPdS3
_chemical_formula_sum   'Ac2 Nd2 Pd2 S6'
_cell_volume   278.52967323
_cell_formula_units_Z   2
loop_
 _symmetry_equiv_pos_site_id
 _symmetry_equiv_pos_as_xyz
  1  'x, y, z'
loop_
 _atom_site_type_symbol
 _atom_site_label
 _atom_site_symmetry_multiplicity
 _atom_site_fract_x
 _atom_site_fract_y
 _atom_site_fract_z
 _atom_site_occupancy
  Ac  Ac0  1  0.749116  0.250885  0.250000  1
  Ac  Ac1  1  0.250885  0.749116  0.750000  1
  Nd  Nd2  1  0.000000  0.000000  0.000000  1
  Nd  Nd3  1  0.000000  0.000000  0.500000  1
  Pd  Pd4  1  0.474435  0.525566  0.250000  1
  Pd  Pd5  1  0.525566  0.474435  0.750000  1
  S  S6  1  0.352416  0.647585  0.064559  1
  S  S7  1  0.088829  0.911172  0.250000  1
  S  S8  1  0.352416  0.647585  0.435440  1
  S  S9  1  0.647585  0.352416  0.564559  1
  S  S10  1  0.911172  0.088829  0.750000  1
  S  S11  1  0.647585  0.352416  0.935441  1
