# generated using pymatgen
data_HoEr11(TcOs)2
_symmetry_space_group_name_H-M   'P 1'
_cell_length_a   6.23981800
_cell_length_b   7.38185300
_cell_length_c   8.99075900
_cell_angle_alpha   90.00000000
_cell_angle_beta   90.00000000
_cell_angle_gamma   89.99739215
_symmetry_Int_Tables_number   1
_chemical_formula_structural   HoEr11(TcOs)2
_chemical_formula_sum   'Ho1 Er11 Tc2 Os2'
_cell_volume   414.12711922
_cell_formula_units_Z   1
loop_
 _symmetry_equiv_pos_site_id
 _symmetry_equiv_pos_as_xyz
  1  'x, y, z'
loop_
 _atom_site_type_symbol
 _atom_site_label
 _atom_site_symmetry_multiplicity
 _atom_site_fract_x
 _atom_site_fract_y
 _atom_site_fract_z
 _atom_site_occupancy
  Ho  Ho0  1  0.875796  0.539247  0.250000  1
  Er  Er1  1  0.336854  0.674689  0.062185  1
  Er  Er2  1  0.163180  0.174655  0.437806  1
  Er  Er3  1  0.664657  0.324888  0.562809  1
  Er  Er4  1  0.835336  0.824944  0.937205  1
  Er  Er5  1  0.664657  0.324888  0.937191  1
  Er  Er6  1  0.835336  0.824944  0.562795  1
  Er  Er7  1  0.336854  0.674689  0.437815  1
  Er  Er8  1  0.163180  0.174655  0.062194  1
  Er  Er9  1  0.624232  0.039219  0.250000  1
  Er  Er10  1  0.129571  0.459746  0.750000  1
  Er  Er11  1  0.370421  0.959727  0.750000  1
  Tc  Tc12  1  0.039330  0.884050  0.250000  1
  Tc  Tc13  1  0.460593  0.383993  0.250000  1
  Os  Os14  1  0.959489  0.117829  0.750000  1
  Os  Os15  1  0.540511  0.617840  0.750000  1
