# generated using pymatgen
data_Zr6TiNb3(Sn3P)2
_symmetry_space_group_name_H-M   'P 1'
_cell_length_a   8.51607300
_cell_length_b   8.51607263
_cell_length_c   5.76705900
_cell_angle_alpha   90.00000000
_cell_angle_beta   90.00000000
_cell_angle_gamma   119.99998977
_symmetry_Int_Tables_number   1
_chemical_formula_structural   Zr6TiNb3(Sn3P)2
_chemical_formula_sum   'Zr6 Ti1 Nb3 Sn6 P2'
_cell_volume   362.21280819
_cell_formula_units_Z   1
loop_
 _symmetry_equiv_pos_site_id
 _symmetry_equiv_pos_as_xyz
  1  'x, y, z'
loop_
 _atom_site_type_symbol
 _atom_site_label
 _atom_site_symmetry_multiplicity
 _atom_site_fract_x
 _atom_site_fract_y
 _atom_site_fract_z
 _atom_site_occupancy
  Zr  Zr0  1  0.746411  0.747780  0.751425  1
  Zr  Zr1  1  0.252220  0.998632  0.751425  1
  Zr  Zr2  1  0.001368  0.253589  0.751425  1
  Zr  Zr3  1  0.252220  0.253589  0.248575  1
  Zr  Zr4  1  0.746411  0.998632  0.248575  1
  Zr  Zr5  1  0.001368  0.747780  0.248575  1
  Ti  Ti6  1  0.666667  0.333333  0.500000  1
  Nb  Nb7  1  0.666667  0.333333  0.000000  1
  Nb  Nb8  1  0.333333  0.666667  0.000000  1
  Nb  Nb9  1  0.333333  0.666667  0.500000  1
  Sn  Sn10  1  0.402917  0.400765  0.748643  1
  Sn  Sn11  1  0.599235  0.002152  0.748643  1
  Sn  Sn12  1  0.997848  0.597083  0.748643  1
  Sn  Sn13  1  0.599235  0.597083  0.251357  1
  Sn  Sn14  1  0.402917  0.002152  0.251357  1
  Sn  Sn15  1  0.997848  0.400765  0.251357  1
  P  P16  1  0.000000  0.000000  0.000000  1
  P  P17  1  0.000000  0.000000  0.500000  1
