# generated using pymatgen
data_Dy2Er2Tm2GaCo2
_symmetry_space_group_name_H-M   'P 1'
_cell_length_a   8.20888988
_cell_length_b   8.20888917
_cell_length_c   8.20888915
_cell_angle_alpha   106.92772652
_cell_angle_beta   109.28494163
_cell_angle_gamma   112.24504369
_symmetry_Int_Tables_number   1
_chemical_formula_structural   Dy2Er2Tm2GaCo2
_chemical_formula_sum   'Dy4 Er4 Tm4 Ga2 Co4'
_cell_volume   424.90164369
_cell_formula_units_Z   2
loop_
 _symmetry_equiv_pos_site_id
 _symmetry_equiv_pos_as_xyz
  1  'x, y, z'
loop_
 _atom_site_type_symbol
 _atom_site_label
 _atom_site_symmetry_multiplicity
 _atom_site_fract_x
 _atom_site_fract_y
 _atom_site_fract_z
 _atom_site_occupancy
  Dy  Dy0  1  0.698877  0.262033  0.960910  1
  Dy  Dy1  1  0.301123  0.737967  0.039090  1
  Dy  Dy2  1  0.698877  0.737967  0.436845  1
  Dy  Dy3  1  0.301123  0.262033  0.563155  1
  Er  Er4  1  0.601028  0.781117  0.819911  1
  Er  Er5  1  0.961205  0.781117  0.180089  1
  Er  Er6  1  0.038795  0.218883  0.819911  1
  Er  Er7  1  0.398972  0.218883  0.180089  1
  Tm  Tm8  1  0.810917  0.138119  0.327202  1
  Tm  Tm9  1  0.810917  0.483714  0.672798  1
  Tm  Tm10  1  0.189083  0.861881  0.672798  1
  Tm  Tm11  1  0.189083  0.516286  0.327202  1
  Ga  Ga12  1  0.500000  0.500000  0.000000  1
  Ga  Ga13  1  0.500000  0.000000  0.500000  1
  Co  Co14  1  0.841791  0.500000  0.341791  1
  Co  Co15  1  0.158209  0.500000  0.658209  1
  Co  Co16  1  0.000000  0.115588  0.115588  1
  Co  Co17  1  0.000000  0.884412  0.884412  1
