# generated using pymatgen
data_Zn10AgPd2
_symmetry_space_group_name_H-M   'P 1'
_cell_length_a   7.99565917
_cell_length_b   7.99566158
_cell_length_c   7.94166192
_cell_angle_alpha   70.85763707
_cell_angle_beta   70.85764106
_cell_angle_gamma   109.55721048
_symmetry_Int_Tables_number   1
_chemical_formula_structural   Zn10AgPd2
_chemical_formula_sum   'Zn20 Ag2 Pd4'
_cell_volume   393.56765272
_cell_formula_units_Z   2
loop_
 _symmetry_equiv_pos_site_id
 _symmetry_equiv_pos_as_xyz
  1  'x, y, z'
loop_
 _atom_site_type_symbol
 _atom_site_label
 _atom_site_symmetry_multiplicity
 _atom_site_fract_x
 _atom_site_fract_y
 _atom_site_fract_z
 _atom_site_occupancy
  Zn  Zn0  1  0.000109  0.000108  0.791093  1
  Zn  Zn1  1  0.775776  0.775776  0.224131  1
  Zn  Zn2  1  0.216233  0.000352  0.999698  1
  Zn  Zn3  1  0.000352  0.216233  0.999698  1
  Zn  Zn4  1  0.269681  0.269682  0.384991  1
  Zn  Zn5  1  0.003062  0.732634  0.648642  1
  Zn  Zn6  1  0.732634  0.003062  0.648642  1
  Zn  Zn7  1  0.651297  0.651297  0.628597  1
  Zn  Zn8  1  0.380106  0.647784  0.347984  1
  Zn  Zn9  1  0.647784  0.380106  0.347984  1
  Zn  Zn10  1  0.351124  0.729077  0.992443  1
  Zn  Zn11  1  0.612890  0.262164  0.733382  1
  Zn  Zn12  1  0.353380  0.004859  0.270503  1
  Zn  Zn13  1  0.729077  0.351124  0.992443  1
  Zn  Zn14  1  0.004859  0.353380  0.270503  1
  Zn  Zn15  1  0.262164  0.612890  0.733382  1
  Zn  Zn16  1  0.645681  0.645681  0.993778  1
  Zn  Zn17  1  0.003166  0.653373  0.349236  1
  Zn  Zn18  1  0.653373  0.003166  0.349236  1
  Zn  Zn19  1  0.355796  0.355796  0.005945  1
  Ag  Ag20  1  0.996968  0.362674  0.634856  1
  Ag  Ag21  1  0.362673  0.996968  0.634856  1
  Pd  Pd22  1  0.000615  0.000615  0.345582  1
  Pd  Pd23  1  0.354539  0.354539  0.655509  1
  Pd  Pd24  1  0.645837  0.990826  0.008443  1
  Pd  Pd25  1  0.990823  0.645834  0.008446  1
