# generated using pymatgen
data_Li8Nd5Y3SnBi7
_symmetry_space_group_name_H-M   'P 1'
_cell_length_a   9.83586100
_cell_length_b   9.83586169
_cell_length_c   7.24338400
_cell_angle_alpha   90.00000000
_cell_angle_beta   90.00000000
_cell_angle_gamma   120.00000105
_symmetry_Int_Tables_number   1
_chemical_formula_structural   Li8Nd5Y3SnBi7
_chemical_formula_sum   'Li8 Nd5 Y3 Sn1 Bi7'
_cell_volume   606.87176513
_cell_formula_units_Z   1
loop_
 _symmetry_equiv_pos_site_id
 _symmetry_equiv_pos_as_xyz
  1  'x, y, z'
loop_
 _atom_site_type_symbol
 _atom_site_label
 _atom_site_symmetry_multiplicity
 _atom_site_fract_x
 _atom_site_fract_y
 _atom_site_fract_z
 _atom_site_occupancy
  Li  Li0  1  0.168144  0.336288  0.279869  1
  Li  Li1  1  0.168144  0.831856  0.279869  1
  Li  Li2  1  0.663712  0.831856  0.279869  1
  Li  Li3  1  0.830749  0.661498  0.757282  1
  Li  Li4  1  0.830749  0.169251  0.757282  1
  Li  Li5  1  0.338502  0.169251  0.757282  1
  Li  Li6  1  0.333333  0.666667  0.687500  1
  Li  Li7  1  0.666667  0.333333  0.201763  1
  Nd  Nd8  1  0.495950  0.991898  0.993283  1
  Nd  Nd9  1  0.495950  0.504050  0.993283  1
  Nd  Nd10  1  0.008102  0.504050  0.993283  1
  Nd  Nd11  1  0.000000  0.000000  0.502524  1
  Nd  Nd12  1  0.000000  0.000000  0.001024  1
  Y  Y13  1  0.510447  0.020897  0.497643  1
  Y  Y14  1  0.510447  0.489553  0.497643  1
  Y  Y15  1  0.979103  0.489553  0.497643  1
  Sn  Sn16  1  0.666667  0.333333  0.751012  1
  Bi  Bi17  1  0.168072  0.336146  0.735899  1
  Bi  Bi18  1  0.168072  0.831928  0.735899  1
  Bi  Bi19  1  0.663854  0.831928  0.735899  1
  Bi  Bi20  1  0.832316  0.664631  0.247013  1
  Bi  Bi21  1  0.832316  0.167684  0.247013  1
  Bi  Bi22  1  0.335369  0.167684  0.247013  1
  Bi  Bi23  1  0.333333  0.666667  0.265187  1
