# generated using pymatgen
data_La2CeRu2
_symmetry_space_group_name_H-M   'P 1'
_cell_length_a   6.12491207
_cell_length_b   6.12491173
_cell_length_c   6.12491196
_cell_angle_alpha   139.68997068
_cell_angle_beta   120.59739421
_cell_angle_gamma   74.24304362
_symmetry_Int_Tables_number   1
_chemical_formula_structural   La2CeRu2
_chemical_formula_sum   'La2 Ce1 Ru2'
_cell_volume   125.11335584
_cell_formula_units_Z   1
loop_
 _symmetry_equiv_pos_site_id
 _symmetry_equiv_pos_as_xyz
  1  'x, y, z'
loop_
 _atom_site_type_symbol
 _atom_site_label
 _atom_site_symmetry_multiplicity
 _atom_site_fract_x
 _atom_site_fract_y
 _atom_site_fract_z
 _atom_site_occupancy
  La  La0  1  0.689579  0.189579  0.500000  1
  La  La1  1  0.310421  0.810420  0.500000  1
  Ce  Ce2  1  0.000000  0.000000  0.000000  1
  Ru  Ru3  1  0.752747  0.500000  0.252747  1
  Ru  Ru4  1  0.247253  0.500000  0.747252  1
