# generated using pymatgen
data_TbLu7Be(Si4Pd)3
_symmetry_space_group_name_H-M   'P 1'
_cell_length_a   8.04890600
_cell_length_b   8.04890557
_cell_length_c   7.90525100
_cell_angle_alpha   90.00000000
_cell_angle_beta   90.00000000
_cell_angle_gamma   120.00000997
_symmetry_Int_Tables_number   1
_chemical_formula_structural   TbLu7Be(Si4Pd)3
_chemical_formula_sum   'Tb1 Lu7 Be1 Si12 Pd3'
_cell_volume   443.52687429
_cell_formula_units_Z   1
loop_
 _symmetry_equiv_pos_site_id
 _symmetry_equiv_pos_as_xyz
  1  'x, y, z'
loop_
 _atom_site_type_symbol
 _atom_site_label
 _atom_site_symmetry_multiplicity
 _atom_site_fract_x
 _atom_site_fract_y
 _atom_site_fract_z
 _atom_site_occupancy
  Tb  Tb0  1  0.000000  0.000000  0.751673  1
  Lu  Lu1  1  0.498530  0.997058  0.248429  1
  Lu  Lu2  1  0.498153  0.996305  0.751349  1
  Lu  Lu3  1  0.002942  0.501470  0.248429  1
  Lu  Lu4  1  0.003695  0.501847  0.751349  1
  Lu  Lu5  1  0.498530  0.501470  0.248429  1
  Lu  Lu6  1  0.498153  0.501847  0.751349  1
  Lu  Lu7  1  0.000000  0.000000  0.248993  1
  Be  Be8  1  0.333333  0.666667  0.999149  1
  Si  Si9  1  0.173101  0.346202  0.000672  1
  Si  Si10  1  0.834434  0.668868  0.002245  1
  Si  Si11  1  0.653798  0.826899  0.000672  1
  Si  Si12  1  0.833912  0.667824  0.499703  1
  Si  Si13  1  0.331132  0.165566  0.002245  1
  Si  Si14  1  0.165576  0.331153  0.497572  1
  Si  Si15  1  0.173101  0.826899  0.000672  1
  Si  Si16  1  0.332176  0.166088  0.499703  1
  Si  Si17  1  0.834434  0.165566  0.002245  1
  Si  Si18  1  0.668847  0.834424  0.497572  1
  Si  Si19  1  0.833912  0.166088  0.499703  1
  Si  Si20  1  0.165576  0.834424  0.497572  1
  Pd  Pd21  1  0.666667  0.333333  0.998748  1
  Pd  Pd22  1  0.666667  0.333333  0.500864  1
  Pd  Pd23  1  0.333333  0.666667  0.500665  1
