# generated using pymatgen
data_Sm7CBr12
_symmetry_space_group_name_H-M   'P 1'
_cell_length_a   9.19988828
_cell_length_b   9.19988945
_cell_length_c   9.19988803
_cell_angle_alpha   107.60546894
_cell_angle_beta   107.60547555
_cell_angle_gamma   107.60547707
_symmetry_Int_Tables_number   1
_chemical_formula_structural   Sm7CBr12
_chemical_formula_sum   'Sm7 C1 Br12'
_cell_volume   637.46139745
_cell_formula_units_Z   1
loop_
 _symmetry_equiv_pos_site_id
 _symmetry_equiv_pos_as_xyz
  1  'x, y, z'
loop_
 _atom_site_type_symbol
 _atom_site_label
 _atom_site_symmetry_multiplicity
 _atom_site_fract_x
 _atom_site_fract_y
 _atom_site_fract_z
 _atom_site_occupancy
  Sm  Sm0  1  0.474960  0.474960  0.474960  1
  Sm  Sm1  1  0.905917  0.977909  0.701216  1
  Sm  Sm2  1  0.977909  0.701216  0.905917  1
  Sm  Sm3  1  0.701216  0.905917  0.977909  1
  Sm  Sm4  1  0.041011  0.305976  0.110219  1
  Sm  Sm5  1  0.305976  0.110219  0.041011  1
  Sm  Sm6  1  0.110219  0.041011  0.305976  1
  C  C7  1  0.995711  0.995711  0.995711  1
  Br  Br8  1  0.230604  0.078022  0.692567  1
  Br  Br9  1  0.078022  0.692567  0.230604  1
  Br  Br10  1  0.692567  0.230604  0.078022  1
  Br  Br11  1  0.541326  0.837769  0.617093  1
  Br  Br12  1  0.837769  0.617093  0.541326  1
  Br  Br13  1  0.617093  0.541326  0.837769  1
  Br  Br14  1  0.924943  0.315831  0.780488  1
  Br  Br15  1  0.315831  0.780488  0.924943  1
  Br  Br16  1  0.780488  0.924943  0.315831  1
  Br  Br17  1  0.390827  0.474051  0.147761  1
  Br  Br18  1  0.474051  0.147761  0.390827  1
  Br  Br19  1  0.147761  0.390827  0.474051  1
