# generated using pymatgen
data_NdDy2Ho(Ir2O7)2
_symmetry_space_group_name_H-M   'P 1'
_cell_length_a   7.29837436
_cell_length_b   7.29509496
_cell_length_c   7.29837448
_cell_angle_alpha   59.57557332
_cell_angle_beta   59.59445631
_cell_angle_gamma   59.57557741
_symmetry_Int_Tables_number   1
_chemical_formula_structural   NdDy2Ho(Ir2O7)2
_chemical_formula_sum   'Nd1 Dy2 Ho1 Ir4 O14'
_cell_volume   272.15769984
_cell_formula_units_Z   1
loop_
 _symmetry_equiv_pos_site_id
 _symmetry_equiv_pos_as_xyz
  1  'x, y, z'
loop_
 _atom_site_type_symbol
 _atom_site_label
 _atom_site_symmetry_multiplicity
 _atom_site_fract_x
 _atom_site_fract_y
 _atom_site_fract_z
 _atom_site_occupancy
  Nd  Nd0  1  0.125000  0.125000  0.125000  1
  Dy  Dy1  1  0.625000  0.125000  0.125000  1
  Dy  Dy2  1  0.125000  0.125000  0.625000  1
  Ho  Ho3  1  0.125000  0.625000  0.125000  1
  Ir  Ir4  1  0.125000  0.625000  0.625000  1
  Ir  Ir5  1  0.625000  0.125000  0.625000  1
  Ir  Ir6  1  0.625000  0.625000  0.125000  1
  Ir  Ir7  1  0.625000  0.625000  0.625000  1
  O  O8  1  0.712146  0.711116  0.288910  1
  O  O9  1  0.288801  0.288675  0.703288  1
  O  O10  1  0.711482  0.288989  0.711482  1
  O  O11  1  0.288554  0.702909  0.288554  1
  O  O12  1  0.288910  0.711116  0.712146  1
  O  O13  1  0.703288  0.288675  0.288801  1
  O  O14  1  0.537854  0.538884  0.961090  1
  O  O15  1  0.961199  0.961325  0.546712  1
  O  O16  1  0.538518  0.961011  0.538518  1
  O  O17  1  0.961446  0.547091  0.961446  1
  O  O18  1  0.961090  0.538884  0.537854  1
  O  O19  1  0.546712  0.961325  0.961199  1
  O  O20  1  0.252822  0.254624  0.252822  1
  O  O21  1  0.997178  0.995376  0.997178  1
