# generated using pymatgen
data_Eu4Ti3RuO12
_symmetry_space_group_name_H-M   'P 1'
_cell_length_a   5.53627619
_cell_length_b   5.60110172
_cell_length_c   7.85659513
_cell_angle_alpha   89.83477334
_cell_angle_beta   89.99572308
_cell_angle_gamma   89.96492877
_symmetry_Int_Tables_number   1
_chemical_formula_structural   Eu4Ti3RuO12
_chemical_formula_sum   'Eu4 Ti3 Ru1 O12'
_cell_volume   243.62603222
_cell_formula_units_Z   1
loop_
 _symmetry_equiv_pos_site_id
 _symmetry_equiv_pos_as_xyz
  1  'x, y, z'
loop_
 _atom_site_type_symbol
 _atom_site_label
 _atom_site_symmetry_multiplicity
 _atom_site_fract_x
 _atom_site_fract_y
 _atom_site_fract_z
 _atom_site_occupancy
  Eu  Eu0  1  0.508049  0.540062  0.245649  1
  Eu  Eu1  1  0.992563  0.035772  0.245741  1
  Eu  Eu2  1  0.491951  0.459938  0.754351  1
  Eu  Eu3  1  0.007437  0.964228  0.754259  1
  Ti  Ti4  1  0.000000  0.500000  0.000000  1
  Ti  Ti5  1  0.500000  0.000000  0.500000  1
  Ti  Ti6  1  0.000000  0.500000  0.500000  1
  Ru  Ru7  1  0.500000  0.000000  0.000000  1
  O  O8  1  0.431379  0.986911  0.257925  1
  O  O9  1  0.068824  0.485956  0.252685  1
  O  O10  1  0.568621  0.013089  0.742075  1
  O  O11  1  0.931176  0.514044  0.747315  1
  O  O12  1  0.792692  0.780432  0.036056  1
  O  O13  1  0.717730  0.284963  0.463248  1
  O  O14  1  0.214984  0.217567  0.536762  1
  O  O15  1  0.280822  0.707428  0.964055  1
  O  O16  1  0.207308  0.219568  0.963944  1
  O  O17  1  0.282270  0.715037  0.536752  1
  O  O18  1  0.785016  0.782433  0.463238  1
  O  O19  1  0.719178  0.292572  0.035945  1
