# generated using pymatgen
data_Y3Lu17Cd6CoRu
_symmetry_space_group_name_H-M   'P 1'
_cell_length_a   9.43206400
_cell_length_b   9.43206397
_cell_length_c   9.60419300
_cell_angle_alpha   90.00000000
_cell_angle_beta   90.00000000
_cell_angle_gamma   120.00000010
_symmetry_Int_Tables_number   1
_chemical_formula_structural   Y3Lu17Cd6CoRu
_chemical_formula_sum   'Y3 Lu17 Cd6 Co1 Ru1'
_cell_volume   739.95445040
_cell_formula_units_Z   1
loop_
 _symmetry_equiv_pos_site_id
 _symmetry_equiv_pos_as_xyz
  1  'x, y, z'
loop_
 _atom_site_type_symbol
 _atom_site_label
 _atom_site_symmetry_multiplicity
 _atom_site_fract_x
 _atom_site_fract_y
 _atom_site_fract_z
 _atom_site_occupancy
  Y  Y0  1  0.459035  0.540965  0.750000  1
  Y  Y1  1  0.459035  0.918071  0.750000  1
  Y  Y2  1  0.081929  0.540965  0.750000  1
  Lu  Lu3  1  0.000000  0.000000  0.500116  1
  Lu  Lu4  1  0.000000  0.000000  0.999884  1
  Lu  Lu5  1  0.211883  0.788117  0.435701  1
  Lu  Lu6  1  0.211883  0.423768  0.435701  1
  Lu  Lu7  1  0.576232  0.788117  0.435701  1
  Lu  Lu8  1  0.790437  0.209563  0.558688  1
  Lu  Lu9  1  0.790437  0.580874  0.558688  1
  Lu  Lu10  1  0.419126  0.209563  0.558688  1
  Lu  Lu11  1  0.790437  0.209563  0.941312  1
  Lu  Lu12  1  0.790437  0.580874  0.941312  1
  Lu  Lu13  1  0.419126  0.209563  0.941312  1
  Lu  Lu14  1  0.211883  0.788117  0.064299  1
  Lu  Lu15  1  0.211883  0.423768  0.064299  1
  Lu  Lu16  1  0.576232  0.788117  0.064299  1
  Lu  Lu17  1  0.541475  0.458525  0.250000  1
  Lu  Lu18  1  0.541475  0.082949  0.250000  1
  Lu  Lu19  1  0.917051  0.458525  0.250000  1
  Cd  Cd20  1  0.885772  0.114228  0.250000  1
  Cd  Cd21  1  0.885772  0.771545  0.250000  1
  Cd  Cd22  1  0.228455  0.114228  0.250000  1
  Cd  Cd23  1  0.113775  0.886225  0.750000  1
  Cd  Cd24  1  0.113775  0.227549  0.750000  1
  Cd  Cd25  1  0.772451  0.886225  0.750000  1
  Co  Co26  1  0.333333  0.666667  0.250000  1
  Ru  Ru27  1  0.666667  0.333333  0.750000  1
