# generated using pymatgen
data_EuY5(AuO7)2
_symmetry_space_group_name_H-M   'P 1'
_cell_length_a   6.53439897
_cell_length_b   6.53439903
_cell_length_c   7.50260300
_cell_angle_alpha   89.94537328
_cell_angle_beta   90.05462672
_cell_angle_gamma   108.84909219
_symmetry_Int_Tables_number   1
_chemical_formula_structural   EuY5(AuO7)2
_chemical_formula_sum   'Eu1 Y5 Au2 O14'
_cell_volume   303.16929374
_cell_formula_units_Z   1
loop_
 _symmetry_equiv_pos_site_id
 _symmetry_equiv_pos_as_xyz
  1  'x, y, z'
loop_
 _atom_site_type_symbol
 _atom_site_label
 _atom_site_symmetry_multiplicity
 _atom_site_fract_x
 _atom_site_fract_y
 _atom_site_fract_z
 _atom_site_occupancy
  Eu  Eu0  1  0.500000  0.500000  0.500000  1
  Y  Y1  1  0.500000  0.500000  0.000000  1
  Y  Y2  1  0.528513  0.998100  0.751193  1
  Y  Y3  1  0.998100  0.528513  0.248807  1
  Y  Y4  1  0.471487  0.001900  0.248807  1
  Y  Y5  1  0.001900  0.471487  0.751193  1
  Au  Au6  1  0.000000  0.000000  0.500000  1
  Au  Au7  1  0.000000  0.000000  0.000000  1
  O  O8  1  0.671648  0.924290  0.476285  1
  O  O9  1  0.924290  0.671648  0.523715  1
  O  O10  1  0.671423  0.919322  0.024105  1
  O  O11  1  0.919322  0.671423  0.975895  1
  O  O12  1  0.328352  0.075710  0.523715  1
  O  O13  1  0.075710  0.328352  0.476285  1
  O  O14  1  0.328577  0.080678  0.975895  1
  O  O15  1  0.080678  0.328577  0.024105  1
  O  O16  1  0.921435  0.078565  0.750124  1
  O  O17  1  0.078565  0.921435  0.249876  1
  O  O18  1  0.366414  0.633586  0.755660  1
  O  O19  1  0.633586  0.366414  0.244340  1
  O  O20  1  0.638711  0.361289  0.754738  1
  O  O21  1  0.361289  0.638711  0.245262  1
