# generated using pymatgen
data_K3TbIr2O9
_symmetry_space_group_name_H-M   'P 1'
_cell_length_a   6.02027100
_cell_length_b   6.02024529
_cell_length_c   14.69411400
_cell_angle_alpha   90.00003378
_cell_angle_beta   90.00016146
_cell_angle_gamma   119.99991167
_symmetry_Int_Tables_number   1
_chemical_formula_structural   K3TbIr2O9
_chemical_formula_sum   'K6 Tb2 Ir4 O18'
_cell_volume   461.21630389
_cell_formula_units_Z   2
loop_
 _symmetry_equiv_pos_site_id
 _symmetry_equiv_pos_as_xyz
  1  'x, y, z'
loop_
 _atom_site_type_symbol
 _atom_site_label
 _atom_site_symmetry_multiplicity
 _atom_site_fract_x
 _atom_site_fract_y
 _atom_site_fract_z
 _atom_site_occupancy
  K  K0  1  0.666683  0.333329  0.101834  1
  K  K1  1  0.000018  0.999985  0.250068  1
  K  K2  1  0.666662  0.333323  0.398453  1
  K  K3  1  0.333340  0.666669  0.601142  1
  K  K4  1  0.999983  0.000022  0.749956  1
  K  K5  1  0.333333  0.666666  0.898614  1
  Tb  Tb6  1  0.000000  0.999995  0.000010  1
  Tb  Tb7  1  0.000002  0.000004  0.500016  1
  Ir  Ir8  1  0.333336  0.666661  0.154404  1
  Ir  Ir9  1  0.333335  0.666667  0.345551  1
  Ir  Ir10  1  0.666666  0.333342  0.654438  1
  Ir  Ir11  1  0.666660  0.333332  0.845585  1
  O  O12  1  0.178707  0.357403  0.085912  1
  O  O13  1  0.178708  0.821289  0.085911  1
  O  O14  1  0.642591  0.821289  0.085912  1
  O  O15  1  0.056865  0.528425  0.249972  1
  O  O16  1  0.471569  0.528425  0.249974  1
  O  O17  1  0.471572  0.943136  0.249973  1
  O  O18  1  0.178698  0.357391  0.414081  1
  O  O19  1  0.178697  0.821307  0.414080  1
  O  O20  1  0.642612  0.821307  0.414081  1
  O  O21  1  0.357396  0.178708  0.585921  1
  O  O22  1  0.821303  0.178707  0.585921  1
  O  O23  1  0.821302  0.642618  0.585924  1
  O  O24  1  0.528456  0.056923  0.749999  1
  O  O25  1  0.528457  0.471546  0.750001  1
  O  O26  1  0.943074  0.471547  0.750001  1
  O  O27  1  0.357365  0.178682  0.914087  1
  O  O28  1  0.821307  0.178682  0.914089  1
  O  O29  1  0.821304  0.642622  0.914091  1
