# generated using pymatgen
data_LuBi3Pt3RhO14
_symmetry_space_group_name_H-M   'P 1'
_cell_length_a   7.37236809
_cell_length_b   7.37236826
_cell_length_c   7.37236720
_cell_angle_alpha   59.73519435
_cell_angle_beta   59.73518989
_cell_angle_gamma   59.73518908
_symmetry_Int_Tables_number   1
_chemical_formula_structural   LuBi3Pt3RhO14
_chemical_formula_sum   'Lu1 Bi3 Pt3 Rh1 O14'
_cell_volume   281.63481899
_cell_formula_units_Z   1
loop_
 _symmetry_equiv_pos_site_id
 _symmetry_equiv_pos_as_xyz
  1  'x, y, z'
loop_
 _atom_site_type_symbol
 _atom_site_label
 _atom_site_symmetry_multiplicity
 _atom_site_fract_x
 _atom_site_fract_y
 _atom_site_fract_z
 _atom_site_occupancy
  Lu  Lu0  1  0.125000  0.125000  0.125000  1
  Bi  Bi1  1  0.125000  0.625000  0.125000  1
  Bi  Bi2  1  0.625000  0.125000  0.125000  1
  Bi  Bi3  1  0.125000  0.125000  0.625000  1
  Pt  Pt4  1  0.625000  0.625000  0.125000  1
  Pt  Pt5  1  0.125000  0.625000  0.625000  1
  Pt  Pt6  1  0.625000  0.125000  0.625000  1
  Rh  Rh7  1  0.625000  0.625000  0.625000  1
  O  O8  1  0.242628  0.242628  0.242628  1
  O  O9  1  0.287774  0.721285  0.287774  1
  O  O10  1  0.962226  0.962226  0.528715  1
  O  O11  1  0.541443  0.960176  0.541443  1
  O  O12  1  0.708557  0.708557  0.289824  1
  O  O13  1  0.960176  0.541443  0.541443  1
  O  O14  1  0.708557  0.289824  0.708557  1
  O  O15  1  0.287774  0.287774  0.721285  1
  O  O16  1  0.721285  0.287774  0.287774  1
  O  O17  1  0.289824  0.708557  0.708557  1
  O  O18  1  0.962226  0.528715  0.962226  1
  O  O19  1  0.541443  0.541443  0.960176  1
  O  O20  1  0.007372  0.007372  0.007372  1
  O  O21  1  0.528715  0.962226  0.962226  1
