# generated using pymatgen
data_Pa4Hg2PdPt3
_symmetry_space_group_name_H-M   'P 1'
_cell_length_a   7.86123718
_cell_length_b   7.86123718
_cell_length_c   3.63648600
_cell_angle_alpha   90.00000000
_cell_angle_beta   90.00000000
_cell_angle_gamma   89.97552558
_symmetry_Int_Tables_number   1
_chemical_formula_structural   Pa4Hg2PdPt3
_chemical_formula_sum   'Pa4 Hg2 Pd1 Pt3'
_cell_volume   224.73135960
_cell_formula_units_Z   1
loop_
 _symmetry_equiv_pos_site_id
 _symmetry_equiv_pos_as_xyz
  1  'x, y, z'
loop_
 _atom_site_type_symbol
 _atom_site_label
 _atom_site_symmetry_multiplicity
 _atom_site_fract_x
 _atom_site_fract_y
 _atom_site_fract_z
 _atom_site_occupancy
  Pa  Pa0  1  0.324460  0.172012  0.500000  1
  Pa  Pa1  1  0.829582  0.329582  0.500000  1
  Pa  Pa2  1  0.174026  0.674026  0.500000  1
  Pa  Pa3  1  0.672012  0.824460  0.500000  1
  Hg  Hg4  1  0.995542  0.000516  0.000000  1
  Hg  Hg5  1  0.500516  0.495542  0.000000  1
  Pd  Pd6  1  0.630855  0.130855  0.000000  1
  Pt  Pt7  1  0.129385  0.370579  0.000000  1
  Pt  Pt8  1  0.870579  0.629385  0.000000  1
  Pt  Pt9  1  0.373044  0.873044  0.000000  1
