# generated using pymatgen
data_Sn14Ru5Pt
_symmetry_space_group_name_H-M   'P 1'
_cell_length_a   8.23553264
_cell_length_b   8.23553300
_cell_length_c   8.23553329
_cell_angle_alpha   109.63188948
_cell_angle_beta   109.63188765
_cell_angle_gamma   109.15035940
_symmetry_Int_Tables_number   1
_chemical_formula_structural   Sn14Ru5Pt
_chemical_formula_sum   'Sn14 Ru5 Pt1'
_cell_volume   429.97483482
_cell_formula_units_Z   1
loop_
 _symmetry_equiv_pos_site_id
 _symmetry_equiv_pos_as_xyz
  1  'x, y, z'
loop_
 _atom_site_type_symbol
 _atom_site_label
 _atom_site_symmetry_multiplicity
 _atom_site_fract_x
 _atom_site_fract_y
 _atom_site_fract_z
 _atom_site_occupancy
  Sn  Sn0  1  0.323590  0.992793  0.000000  1
  Sn  Sn1  1  0.675914  0.999946  0.000000  1
  Sn  Sn2  1  0.992793  0.323590  0.000000  1
  Sn  Sn3  1  0.999946  0.675914  0.000000  1
  Sn  Sn4  1  0.760071  0.506287  0.253784  1
  Sn  Sn5  1  0.506287  0.760071  0.253784  1
  Sn  Sn6  1  0.999946  0.999946  0.324033  1
  Sn  Sn7  1  0.323590  0.323590  0.330797  1
  Sn  Sn8  1  0.750305  0.250305  0.500000  1
  Sn  Sn9  1  0.250305  0.750305  0.500000  1
  Sn  Sn10  1  0.992793  0.992793  0.669204  1
  Sn  Sn11  1  0.675914  0.675914  0.675968  1
  Sn  Sn12  1  0.506287  0.252503  0.746216  1
  Sn  Sn13  1  0.252503  0.506287  0.746216  1
  Ru  Ru14  1  0.650121  0.650121  0.000000  1
  Ru  Ru15  1  0.343690  0.999695  0.343995  1
  Ru  Ru16  1  0.999695  0.343690  0.343995  1
  Ru  Ru17  1  0.655701  0.999695  0.656006  1
  Ru  Ru18  1  0.999695  0.655701  0.656006  1
  Pt  Pt19  1  0.340859  0.340859  0.000000  1
