# generated using pymatgen
data_Eu(MoC)4
_symmetry_space_group_name_H-M   'P 1'
_cell_length_a   6.17709518
_cell_length_b   6.17709553
_cell_length_c   6.17709560
_cell_angle_alpha   94.05706956
_cell_angle_beta   94.05708690
_cell_angle_gamma   149.14851316
_symmetry_Int_Tables_number   1
_chemical_formula_structural   Eu(MoC)4
_chemical_formula_sum   'Eu1 Mo4 C4'
_cell_volume   116.51437480
_cell_formula_units_Z   1
loop_
 _symmetry_equiv_pos_site_id
 _symmetry_equiv_pos_as_xyz
  1  'x, y, z'
loop_
 _atom_site_type_symbol
 _atom_site_label
 _atom_site_symmetry_multiplicity
 _atom_site_fract_x
 _atom_site_fract_y
 _atom_site_fract_z
 _atom_site_occupancy
  Eu  Eu0  1  0.000000  0.000000  0.000000  1
  Mo  Mo1  1  0.628597  0.819189  0.447785  1
  Mo  Mo2  1  0.371403  0.180811  0.552215  1
  Mo  Mo3  1  0.819189  0.371403  0.190591  1
  Mo  Mo4  1  0.180811  0.628597  0.809409  1
  C  C5  1  0.263257  0.399511  0.662769  1
  C  C6  1  0.736743  0.600489  0.337231  1
  C  C7  1  0.399511  0.736743  0.136253  1
  C  C8  1  0.600489  0.263257  0.863747  1
