# generated using pymatgen
data_YHo11(OsRh)2
_symmetry_space_group_name_H-M   'P 1'
_cell_length_a   6.36825661
_cell_length_b   7.29120381
_cell_length_c   9.07556000
_cell_angle_alpha   90.00000000
_cell_angle_beta   90.00000000
_cell_angle_gamma   90.25515149
_symmetry_Int_Tables_number   1
_chemical_formula_structural   YHo11(OsRh)2
_chemical_formula_sum   'Y1 Ho11 Os2 Rh2'
_cell_volume   421.39455418
_cell_formula_units_Z   1
loop_
 _symmetry_equiv_pos_site_id
 _symmetry_equiv_pos_as_xyz
  1  'x, y, z'
loop_
 _atom_site_type_symbol
 _atom_site_label
 _atom_site_symmetry_multiplicity
 _atom_site_fract_x
 _atom_site_fract_y
 _atom_site_fract_z
 _atom_site_occupancy
  Y  Y0  1  0.874653  0.537163  0.250000  1
  Ho  Ho1  1  0.631952  0.036835  0.250000  1
  Ho  Ho2  1  0.367895  0.963319  0.750000  1
  Ho  Ho3  1  0.126215  0.461988  0.750000  1
  Ho  Ho4  1  0.175404  0.179198  0.065514  1
  Ho  Ho5  1  0.824693  0.820728  0.933973  1
  Ho  Ho6  1  0.666900  0.326146  0.939071  1
  Ho  Ho7  1  0.824693  0.820728  0.566027  1
  Ho  Ho8  1  0.333193  0.673757  0.060442  1
  Ho  Ho9  1  0.175404  0.179198  0.434486  1
  Ho  Ho10  1  0.333193  0.673757  0.439558  1
  Ho  Ho11  1  0.666900  0.326146  0.560929  1
  Os  Os12  1  0.463612  0.382895  0.250000  1
  Os  Os13  1  0.534218  0.616414  0.750000  1
  Rh  Rh14  1  0.955091  0.114488  0.750000  1
  Rh  Rh15  1  0.045987  0.887241  0.250000  1
