# generated using pymatgen
data_TmLu7(Ge4Mo3)4
_symmetry_space_group_name_H-M   'P 1'
_cell_length_a   6.86189701
_cell_length_b   7.02664203
_cell_length_c   13.05645604
_cell_angle_alpha   89.99152511
_cell_angle_beta   89.99764642
_cell_angle_gamma   89.99494215
_symmetry_Int_Tables_number   1
_chemical_formula_structural   TmLu7(Ge4Mo3)4
_chemical_formula_sum   'Tm1 Lu7 Ge16 Mo12'
_cell_volume   629.53130043
_cell_formula_units_Z   1
loop_
 _symmetry_equiv_pos_site_id
 _symmetry_equiv_pos_as_xyz
  1  'x, y, z'
loop_
 _atom_site_type_symbol
 _atom_site_label
 _atom_site_symmetry_multiplicity
 _atom_site_fract_x
 _atom_site_fract_y
 _atom_site_fract_z
 _atom_site_occupancy
  Tm  Tm0  1  0.490646  0.329249  0.091709  1
  Lu  Lu1  1  0.990405  0.170961  0.408243  1
  Lu  Lu2  1  0.509606  0.670965  0.591823  1
  Lu  Lu3  1  0.009621  0.829071  0.908140  1
  Lu  Lu4  1  0.509636  0.671048  0.908082  1
  Lu  Lu5  1  0.009611  0.829037  0.591826  1
  Lu  Lu6  1  0.490382  0.329036  0.408154  1
  Lu  Lu7  1  0.990377  0.170901  0.091798  1
  Ge  Ge8  1  0.671003  0.042680  0.547591  1
  Ge  Ge9  1  0.170772  0.457380  0.952289  1
  Ge  Ge10  1  0.328780  0.956865  0.047530  1
  Ge  Ge11  1  0.828987  0.542690  0.452428  1
  Ge  Ge12  1  0.328999  0.957312  0.452428  1
  Ge  Ge13  1  0.829563  0.543004  0.047507  1
  Ge  Ge14  1  0.671117  0.042525  0.952317  1
  Ge  Ge15  1  0.170997  0.457349  0.547591  1
  Ge  Ge16  1  0.529248  0.371067  0.750006  1
  Ge  Ge17  1  0.029243  0.128928  0.749974  1
  Ge  Ge18  1  0.470681  0.629187  0.250133  1
  Ge  Ge19  1  0.970689  0.871093  0.250036  1
  Ge  Ge20  1  0.808289  0.645733  0.749987  1
  Ge  Ge21  1  0.308253  0.854226  0.749966  1
  Ge  Ge22  1  0.191397  0.354289  0.250157  1
  Ge  Ge23  1  0.692063  0.145398  0.250255  1
  Mo  Mo24  1  0.829408  0.341869  0.626181  1
  Mo  Mo25  1  0.329335  0.157986  0.873661  1
  Mo  Mo26  1  0.170262  0.658326  0.126306  1
  Mo  Mo27  1  0.670536  0.841843  0.373849  1
  Mo  Mo28  1  0.170505  0.658167  0.373870  1
  Mo  Mo29  1  0.670543  0.841838  0.126189  1
  Mo  Mo30  1  0.829548  0.341867  0.873729  1
  Mo  Mo31  1  0.329469  0.158141  0.626171  1
  Mo  Mo32  1  0.665027  0.002082  0.749980  1
  Mo  Mo33  1  0.165059  0.497883  0.749968  1
  Mo  Mo34  1  0.334884  0.997773  0.250055  1
  Mo  Mo35  1  0.835057  0.502233  0.250071  1
