# generated using pymatgen
data_TbEr3(InRh2)4
_symmetry_space_group_name_H-M   'P 1'
_cell_length_a   6.35060301
_cell_length_b   6.35062600
_cell_length_c   7.20994900
_cell_angle_alpha   89.99849331
_cell_angle_beta   89.99704075
_cell_angle_gamma   89.99889923
_symmetry_Int_Tables_number   1
_chemical_formula_structural   TbEr3(InRh2)4
_chemical_formula_sum   'Tb1 Er3 In4 Rh8'
_cell_volume   290.77943880
_cell_formula_units_Z   1
loop_
 _symmetry_equiv_pos_site_id
 _symmetry_equiv_pos_as_xyz
  1  'x, y, z'
loop_
 _atom_site_type_symbol
 _atom_site_label
 _atom_site_symmetry_multiplicity
 _atom_site_fract_x
 _atom_site_fract_y
 _atom_site_fract_z
 _atom_site_occupancy
  Tb  Tb0  1  0.249976  0.750006  0.500016  1
  Er  Er1  1  0.749974  0.250001  0.000018  1
  Er  Er2  1  0.249991  0.749993  0.000014  1
  Er  Er3  1  0.750064  0.250009  0.499989  1
  In  In4  1  0.249764  0.249977  0.999920  1
  In  In5  1  0.750236  0.749977  0.999932  1
  In  In6  1  0.250318  0.250042  0.500080  1
  In  In7  1  0.749688  0.749999  0.500076  1
  Rh  Rh8  1  0.999044  0.000924  0.248614  1
  Rh  Rh9  1  0.999024  0.499075  0.248611  1
  Rh  Rh10  1  0.500933  0.000955  0.248651  1
  Rh  Rh11  1  0.500937  0.499069  0.248635  1
  Rh  Rh12  1  0.500976  0.000963  0.751333  1
  Rh  Rh13  1  0.500967  0.499021  0.751342  1
  Rh  Rh14  1  0.999058  0.000962  0.751377  1
  Rh  Rh15  1  0.999050  0.499027  0.751394  1
