# generated using pymatgen
data_PaMn3V2P3
_symmetry_space_group_name_H-M   'P 1'
_cell_length_a   3.76859500
_cell_length_b   6.79532066
_cell_length_c   9.63007083
_cell_angle_alpha   79.91046566
_cell_angle_beta   90.00000000
_cell_angle_gamma   90.00000000
_symmetry_Int_Tables_number   1
_chemical_formula_structural   PaMn3V2P3
_chemical_formula_sum   'Pa2 Mn6 V4 P6'
_cell_volume   242.80082074
_cell_formula_units_Z   2
loop_
 _symmetry_equiv_pos_site_id
 _symmetry_equiv_pos_as_xyz
  1  'x, y, z'
loop_
 _atom_site_type_symbol
 _atom_site_label
 _atom_site_symmetry_multiplicity
 _atom_site_fract_x
 _atom_site_fract_y
 _atom_site_fract_z
 _atom_site_occupancy
  Pa  Pa0  1  0.250000  0.801504  0.790086  1
  Pa  Pa1  1  0.750000  0.198496  0.209914  1
  Mn  Mn2  1  0.250000  0.535412  0.089029  1
  Mn  Mn3  1  0.750000  0.464588  0.910971  1
  Mn  Mn4  1  0.250000  0.919905  0.088268  1
  Mn  Mn5  1  0.750000  0.080095  0.911732  1
  Mn  Mn6  1  0.250000  0.626435  0.510951  1
  Mn  Mn7  1  0.750000  0.373565  0.489049  1
  V  V8  1  0.250000  0.126852  0.497750  1
  V  V9  1  0.750000  0.873148  0.502250  1
  V  V10  1  0.250000  0.318971  0.723583  1
  V  V11  1  0.750000  0.681029  0.276417  1
  P  P12  1  0.250000  0.255614  0.976997  1
  P  P13  1  0.750000  0.744386  0.023003  1
  P  P14  1  0.250000  0.438743  0.331035  1
  P  P15  1  0.750000  0.561257  0.668965  1
  P  P16  1  0.250000  0.901100  0.328972  1
  P  P17  1  0.750000  0.098900  0.671028  1
