# generated using pymatgen
data_YEr3(Si2Os)2
_symmetry_space_group_name_H-M   'P 1'
_cell_length_a   5.69031575
_cell_length_b   5.69031636
_cell_length_c   9.98756439
_cell_angle_alpha   63.40159675
_cell_angle_beta   63.40159329
_cell_angle_gamma   43.53340086
_symmetry_Int_Tables_number   1
_chemical_formula_structural   YEr3(Si2Os)2
_chemical_formula_sum   'Y1 Er3 Si4 Os2'
_cell_volume   195.15100924
_cell_formula_units_Z   1
loop_
 _symmetry_equiv_pos_site_id
 _symmetry_equiv_pos_as_xyz
  1  'x, y, z'
loop_
 _atom_site_type_symbol
 _atom_site_label
 _atom_site_symmetry_multiplicity
 _atom_site_fract_x
 _atom_site_fract_y
 _atom_site_fract_z
 _atom_site_occupancy
  Y  Y0  1  0.813743  0.813743  0.109834  1
  Er  Er1  1  0.005915  0.005915  0.322840  1
  Er  Er2  1  0.185510  0.185510  0.888145  1
  Er  Er3  1  0.993628  0.993628  0.677705  1
  Si  Si4  1  0.356655  0.356655  0.561776  1
  Si  Si5  1  0.495236  0.495236  0.875708  1
  Si  Si6  1  0.643438  0.643438  0.439151  1
  Si  Si7  1  0.505574  0.505574  0.123627  1
  Os  Os8  1  0.729368  0.729368  0.628296  1
  Os  Os9  1  0.270933  0.270933  0.372917  1
