# generated using pymatgen
data_Dy12Co4SnIr
_symmetry_space_group_name_H-M   'P 1'
_cell_length_a   8.30390876
_cell_length_b   8.30390879
_cell_length_c   8.30390831
_cell_angle_alpha   106.97362796
_cell_angle_beta   110.33730522
_cell_angle_gamma   111.13227716
_symmetry_Int_Tables_number   1
_chemical_formula_structural   Dy12Co4SnIr
_chemical_formula_sum   'Dy12 Co4 Sn1 Ir1'
_cell_volume   440.13700257
_cell_formula_units_Z   1
loop_
 _symmetry_equiv_pos_site_id
 _symmetry_equiv_pos_as_xyz
  1  'x, y, z'
loop_
 _atom_site_type_symbol
 _atom_site_label
 _atom_site_symmetry_multiplicity
 _atom_site_fract_x
 _atom_site_fract_y
 _atom_site_fract_z
 _atom_site_occupancy
  Dy  Dy0  1  0.472395  0.288662  0.183733  1
  Dy  Dy1  1  0.104929  0.288662  0.816267  1
  Dy  Dy2  1  0.895071  0.711338  0.183733  1
  Dy  Dy3  1  0.527605  0.711338  0.816267  1
  Dy  Dy4  1  0.305042  0.619538  0.314496  1
  Dy  Dy5  1  0.305042  0.990547  0.685504  1
  Dy  Dy6  1  0.694958  0.380462  0.685504  1
  Dy  Dy7  1  0.694958  0.009453  0.314496  1
  Dy  Dy8  1  0.196274  0.212794  0.409068  1
  Dy  Dy9  1  0.803726  0.787206  0.590932  1
  Dy  Dy10  1  0.196274  0.787206  0.983479  1
  Dy  Dy11  1  0.803726  0.212794  0.016521  1
  Co  Co12  1  0.500000  0.611593  0.111593  1
  Co  Co13  1  0.500000  0.388407  0.888407  1
  Co  Co14  1  0.378338  0.000000  0.378338  1
  Co  Co15  1  0.621662  0.000000  0.621662  1
  Sn  Sn16  1  0.000000  0.500000  0.500000  1
  Ir  Ir17  1  0.000000  0.000000  0.000000  1
