# generated using pymatgen
data_HfZr3U4F28
_symmetry_space_group_name_H-M   'P 1'
_cell_length_a   5.83346101
_cell_length_b   9.47565313
_cell_length_c   12.66116900
_cell_angle_alpha   61.39516526
_cell_angle_beta   90.00330016
_cell_angle_gamma   89.98702577
_symmetry_Int_Tables_number   1
_chemical_formula_structural   HfZr3U4F28
_chemical_formula_sum   'Hf1 Zr3 U4 F28'
_cell_volume   614.43416037
_cell_formula_units_Z   1
loop_
 _symmetry_equiv_pos_site_id
 _symmetry_equiv_pos_as_xyz
  1  'x, y, z'
loop_
 _atom_site_type_symbol
 _atom_site_label
 _atom_site_symmetry_multiplicity
 _atom_site_fract_x
 _atom_site_fract_y
 _atom_site_fract_z
 _atom_site_occupancy
  Hf  Hf0  1  0.743471  0.277320  0.455148  1
  Zr  Zr1  1  0.244051  0.722271  0.045070  1
  Zr  Zr2  1  0.255956  0.722357  0.544858  1
  Zr  Zr3  1  0.756073  0.277584  0.955147  1
  U  U4  1  0.742570  0.814305  0.264152  1
  U  U5  1  0.242321  0.185831  0.235820  1
  U  U6  1  0.257896  0.185515  0.736009  1
  U  U7  1  0.757512  0.813932  0.764531  1
  F  F8  1  0.456276  0.715837  0.917996  1
  F  F9  1  0.952349  0.284448  0.578664  1
  F  F10  1  0.543904  0.283996  0.082312  1
  F  F11  1  0.043701  0.715727  0.417914  1
  F  F12  1  0.460710  0.284985  0.545003  1
  F  F13  1  0.954857  0.715430  0.952855  1
  F  F14  1  0.545270  0.714947  0.452912  1
  F  F15  1  0.045074  0.284604  0.047215  1
  F  F16  1  0.762886  0.522398  0.859051  1
  F  F17  1  0.262324  0.477405  0.640274  1
  F  F18  1  0.237335  0.477255  0.141677  1
  F  F19  1  0.737213  0.516982  0.361127  1
  F  F20  1  0.769579  0.030726  0.057874  1
  F  F21  1  0.269710  0.969505  0.442273  1
  F  F22  1  0.230550  0.969274  0.942063  1
  F  F23  1  0.731397  0.035746  0.555393  1
  F  F24  1  0.979981  0.735441  0.640519  1
  F  F25  1  0.480137  0.265120  0.859095  1
  F  F26  1  0.013997  0.265294  0.361622  1
  F  F27  1  0.519957  0.734276  0.141290  1
  F  F28  1  0.037256  0.736155  0.171910  1
  F  F29  1  0.540668  0.263442  0.331483  1
  F  F30  1  0.962101  0.263369  0.828001  1
  F  F31  1  0.462908  0.737384  0.671232  1
  F  F32  1  0.406503  0.966574  0.231088  1
  F  F33  1  0.906560  0.033754  0.269067  1
  F  F34  1  0.593668  0.033887  0.768761  1
  F  F35  1  0.093276  0.966923  0.730592  1
