# generated using pymatgen
data_Mn3Ga3(Ir2Ru)2
_symmetry_space_group_name_H-M   'P 1'
_cell_length_a   4.30400008
_cell_length_b   6.03293200
_cell_length_c   12.87663327
_cell_angle_alpha   89.99982314
_cell_angle_beta   89.97719511
_cell_angle_gamma   90.00007603
_symmetry_Int_Tables_number   1
_chemical_formula_structural   Mn3Ga3(Ir2Ru)2
_chemical_formula_sum   'Mn6 Ga6 Ir8 Ru4'
_cell_volume   334.35128267
_cell_formula_units_Z   2
loop_
 _symmetry_equiv_pos_site_id
 _symmetry_equiv_pos_as_xyz
  1  'x, y, z'
loop_
 _atom_site_type_symbol
 _atom_site_label
 _atom_site_symmetry_multiplicity
 _atom_site_fract_x
 _atom_site_fract_y
 _atom_site_fract_z
 _atom_site_occupancy
  Mn  Mn0  1  0.000023  0.000004  0.996546  1
  Mn  Mn1  1  0.499998  0.499932  0.165815  1
  Mn  Mn2  1  0.999890  0.000020  0.334184  1
  Mn  Mn3  1  0.500034  0.500032  0.503401  1
  Mn  Mn4  1  0.000020  0.000011  0.669907  1
  Mn  Mn5  1  0.500035  0.499966  0.830141  1
  Ga  Ga6  1  0.000066  0.500025  0.998647  1
  Ga  Ga7  1  0.500013  0.999949  0.166382  1
  Ga  Ga8  1  0.999925  0.500131  0.333561  1
  Ga  Ga9  1  0.500007  0.999923  0.501311  1
  Ga  Ga10  1  0.000015  0.499960  0.668092  1
  Ga  Ga11  1  0.499981  0.000057  0.831980  1
  Ir  Ir12  1  0.500109  0.251285  0.997983  1
  Ir  Ir13  1  0.499968  0.748659  0.997915  1
  Ir  Ir14  1  0.999983  0.247864  0.165884  1
  Ir  Ir15  1  0.000029  0.752013  0.165873  1
  Ir  Ir16  1  0.499867  0.252240  0.334079  1
  Ir  Ir17  1  0.499949  0.747854  0.334006  1
  Ir  Ir18  1  0.999940  0.248830  0.502030  1
  Ir  Ir19  1  0.000097  0.751158  0.502121  1
  Ru  Ru20  1  0.500055  0.249918  0.667704  1
  Ru  Ru21  1  0.500015  0.750101  0.667727  1
  Ru  Ru22  1  0.000092  0.250218  0.832361  1
  Ru  Ru23  1  0.999892  0.749851  0.832351  1
