# generated using pymatgen
data_La3Pr5(Tm3Sn4)4
_symmetry_space_group_name_H-M   'P 1'
_cell_length_a   8.08011107
_cell_length_b   8.29434949
_cell_length_c   15.49301100
_cell_angle_alpha   90.00865548
_cell_angle_beta   90.00733915
_cell_angle_gamma   89.92886226
_symmetry_Int_Tables_number   1
_chemical_formula_structural   La3Pr5(Tm3Sn4)4
_chemical_formula_sum   'La3 Pr5 Tm12 Sn16'
_cell_volume   1038.32939046
_cell_formula_units_Z   1
loop_
 _symmetry_equiv_pos_site_id
 _symmetry_equiv_pos_as_xyz
  1  'x, y, z'
loop_
 _atom_site_type_symbol
 _atom_site_label
 _atom_site_symmetry_multiplicity
 _atom_site_fract_x
 _atom_site_fract_y
 _atom_site_fract_z
 _atom_site_occupancy
  La  La0  1  0.997335  0.172968  0.404906  1
  La  La1  1  0.497303  0.327042  0.404726  1
  La  La2  1  0.502488  0.673540  0.904625  1
  Pr  Pr3  1  0.503854  0.674922  0.597091  1
  Pr  Pr4  1  0.003734  0.825593  0.596386  1
  Pr  Pr5  1  0.003422  0.825886  0.904036  1
  Pr  Pr6  1  0.496701  0.325202  0.095973  1
  Pr  Pr7  1  0.996029  0.174387  0.095828  1
  Tm  Tm8  1  0.336479  0.163143  0.626170  1
  Tm  Tm9  1  0.662847  0.836387  0.373495  1
  Tm  Tm10  1  0.669747  0.000530  0.749981  1
  Tm  Tm11  1  0.163223  0.663213  0.373492  1
  Tm  Tm12  1  0.837256  0.336352  0.873393  1
  Tm  Tm13  1  0.836479  0.337042  0.626470  1
  Tm  Tm14  1  0.830332  0.501171  0.249428  1
  Tm  Tm15  1  0.329933  0.999324  0.249301  1
  Tm  Tm16  1  0.336818  0.163178  0.873789  1
  Tm  Tm17  1  0.163033  0.663336  0.125732  1
  Tm  Tm18  1  0.663604  0.837408  0.125422  1
  Tm  Tm19  1  0.169642  0.499161  0.749898  1
  Sn  Sn20  1  0.307699  0.854267  0.749760  1
  Sn  Sn21  1  0.468130  0.627053  0.249335  1
  Sn  Sn22  1  0.032184  0.125575  0.749930  1
  Sn  Sn23  1  0.531949  0.373129  0.749886  1
  Sn  Sn24  1  0.175899  0.459984  0.543006  1
  Sn  Sn25  1  0.967826  0.873526  0.249772  1
  Sn  Sn26  1  0.691229  0.146178  0.249098  1
  Sn  Sn27  1  0.824599  0.541052  0.042221  1
  Sn  Sn28  1  0.322452  0.959171  0.042229  1
  Sn  Sn29  1  0.174785  0.456822  0.958171  1
  Sn  Sn30  1  0.675725  0.040386  0.542930  1
  Sn  Sn31  1  0.324905  0.955686  0.458450  1
  Sn  Sn32  1  0.824731  0.544116  0.458568  1
  Sn  Sn33  1  0.809505  0.646402  0.749791  1
  Sn  Sn34  1  0.191183  0.353828  0.249068  1
  Sn  Sn35  1  0.676942  0.043042  0.957646  1
