# generated using pymatgen
data_Li8TaV7(PO4)12
_symmetry_space_group_name_H-M   'P 1'
_cell_length_a   8.65507684
_cell_length_b   8.78685424
_cell_length_c   12.18626844
_cell_angle_alpha   89.92971705
_cell_angle_beta   90.01915455
_cell_angle_gamma   90.21649592
_symmetry_Int_Tables_number   1
_chemical_formula_structural   Li8TaV7(PO4)12
_chemical_formula_sum   'Li8 Ta1 V7 P12 O48'
_cell_volume   926.76930166
_cell_formula_units_Z   1
loop_
 _symmetry_equiv_pos_site_id
 _symmetry_equiv_pos_as_xyz
  1  'x, y, z'
loop_
 _atom_site_type_symbol
 _atom_site_label
 _atom_site_symmetry_multiplicity
 _atom_site_fract_x
 _atom_site_fract_y
 _atom_site_fract_z
 _atom_site_occupancy
  Li  Li0  1  0.216085  0.724087  0.182530  1
  Li  Li1  1  0.219383  0.778927  0.818317  1
  Li  Li2  1  0.282851  0.222856  0.316247  1
  Li  Li3  1  0.282360  0.277973  0.683504  1
  Li  Li4  1  0.717320  0.729448  0.313739  1
  Li  Li5  1  0.721150  0.784803  0.683312  1
  Li  Li6  1  0.782610  0.222120  0.181626  1
  Li  Li7  1  0.785857  0.278154  0.827689  1
  Ta  Ta8  1  0.754291  0.460051  0.612612  1
  V  V9  1  0.246564  0.964633  0.615162  1
  V  V10  1  0.248163  0.538616  0.383836  1
  V  V11  1  0.253666  0.036778  0.112593  1
  V  V12  1  0.254089  0.462647  0.889959  1
  V  V13  1  0.747575  0.539051  0.116630  1
  V  V14  1  0.746845  0.963573  0.885519  1
  V  V15  1  0.752148  0.035697  0.383439  1
  P  P16  1  0.044295  0.243652  0.495683  1
  P  P17  1  0.461354  0.749895  0.001184  1
  P  P18  1  0.538092  0.251277  0.002023  1
  P  P19  1  0.963291  0.750500  0.497480  1
  P  P20  1  0.104151  0.392854  0.143935  1
  P  P21  1  0.105788  0.107236  0.855757  1
  P  P22  1  0.391686  0.603891  0.649372  1
  P  P23  1  0.392619  0.897645  0.352133  1
  P  P24  1  0.603286  0.102692  0.645604  1
  P  P25  1  0.603751  0.394598  0.350373  1
  P  P26  1  0.897802  0.605041  0.854493  1
  P  P27  1  0.896831  0.897345  0.144626  1
  O  O28  1  0.055988  0.634818  0.432356  1
  O  O29  1  0.054539  0.856629  0.571821  1
  O  O30  1  0.078112  0.904398  0.154310  1
  O  O31  1  0.077097  0.600136  0.844978  1
  O  O32  1  0.143666  0.170606  0.585465  1
  O  O33  1  0.145601  0.332685  0.414935  1
  O  O34  1  0.152707  0.434962  0.024219  1
  O  O35  1  0.154724  0.063897  0.973509  1
  O  O36  1  0.165932  0.231728  0.173625  1
  O  O37  1  0.167971  0.269159  0.825221  1
  O  O38  1  0.175909  0.513920  0.219936  1
  O  O39  1  0.174522  0.986892  0.777002  1
  O  O40  1  0.328385  0.018103  0.267603  1
  O  O41  1  0.329275  0.483814  0.734273  1
  O  O42  1  0.341096  0.764619  0.682008  1
  O  O43  1  0.331215  0.738042  0.319793  1
  O  O44  1  0.343222  0.555964  0.535303  1
  O  O45  1  0.338591  0.946378  0.466015  1
  O  O46  1  0.351237  0.838920  0.079830  1
  O  O47  1  0.348820  0.660277  0.922975  1
  O  O48  1  0.426536  0.109407  0.658558  1
  O  O49  1  0.426506  0.395065  0.343570  1
  O  O50  1  0.434998  0.136838  0.066617  1
  O  O51  1  0.437626  0.364103  0.935317  1
  O  O52  1  0.555452  0.641851  0.072455  1
  O  O53  1  0.555136  0.856943  0.928789  1
  O  O54  1  0.574500  0.596320  0.658727  1
  O  O55  1  0.571068  0.896520  0.342622  1
  O  O56  1  0.637628  0.334209  0.087200  1
  O  O57  1  0.641786  0.169015  0.919234  1
  O  O58  1  0.654258  0.064876  0.530476  1
  O  O59  1  0.652451  0.432907  0.472724  1
  O  O60  1  0.667236  0.237802  0.320761  1
  O  O61  1  0.666274  0.267876  0.677735  1
  O  O62  1  0.675881  0.520923  0.278823  1
  O  O63  1  0.674325  0.986879  0.726926  1
  O  O64  1  0.828197  0.016648  0.224312  1
  O  O65  1  0.834239  0.482713  0.768810  1
  O  O66  1  0.845393  0.735479  0.178574  1
  O  O67  1  0.840555  0.762318  0.818198  1
  O  O68  1  0.840837  0.554231  0.966045  1
  O  O69  1  0.847952  0.936619  0.028040  1
  O  O70  1  0.851898  0.657618  0.579472  1
  O  O71  1  0.850253  0.830025  0.419853  1
  O  O72  1  0.928066  0.111371  0.846184  1
  O  O73  1  0.926646  0.390821  0.152578  1
  O  O74  1  0.946040  0.130722  0.432416  1
  O  O75  1  0.935745  0.357913  0.560437  1
