# generated using pymatgen
data_Ho4Sc16GaBi11
_symmetry_space_group_name_H-M   'P 1'
_cell_length_a   7.83360889
_cell_length_b   9.02982800
_cell_length_c   11.51722316
_cell_angle_alpha   90.00000000
_cell_angle_beta   90.24456900
_cell_angle_gamma   90.00000000
_symmetry_Int_Tables_number   1
_chemical_formula_structural   Ho4Sc16GaBi11
_chemical_formula_sum   'Ho4 Sc16 Ga1 Bi11'
_cell_volume   814.67649824
_cell_formula_units_Z   1
loop_
 _symmetry_equiv_pos_site_id
 _symmetry_equiv_pos_as_xyz
  1  'x, y, z'
loop_
 _atom_site_type_symbol
 _atom_site_label
 _atom_site_symmetry_multiplicity
 _atom_site_fract_x
 _atom_site_fract_y
 _atom_site_fract_z
 _atom_site_occupancy
  Ho  Ho0  1  0.316177  0.250000  0.219604  1
  Ho  Ho1  1  0.814876  0.250000  0.280887  1
  Ho  Ho2  1  0.673588  0.750000  0.788692  1
  Ho  Ho3  1  0.187896  0.750000  0.723405  1
  Sc  Sc4  1  0.351293  0.750000  0.209836  1
  Sc  Sc5  1  0.848823  0.750000  0.280039  1
  Sc  Sc6  1  0.652708  0.250000  0.779365  1
  Sc  Sc7  1  0.152070  0.250000  0.720683  1
  Sc  Sc8  1  0.683245  0.574369  0.058866  1
  Sc  Sc9  1  0.193028  0.932753  0.436834  1
  Sc  Sc10  1  0.309416  0.053127  0.939090  1
  Sc  Sc11  1  0.807009  0.433084  0.562055  1
  Sc  Sc12  1  0.309416  0.446873  0.939090  1
  Sc  Sc13  1  0.807009  0.066916  0.562055  1
  Sc  Sc14  1  0.683245  0.925631  0.058866  1
  Sc  Sc15  1  0.193028  0.567247  0.436834  1
  Sc  Sc16  1  0.482715  0.250000  0.489272  1
  Sc  Sc17  1  0.984959  0.250000  0.010306  1
  Sc  Sc18  1  0.517884  0.750000  0.511019  1
  Sc  Sc19  1  0.030100  0.750000  0.988874  1
  Ga  Ga20  1  0.403221  0.750000  0.967997  1
  Bi  Bi21  1  0.902842  0.750000  0.535698  1
  Bi  Bi22  1  0.597380  0.250000  0.033363  1
  Bi  Bi23  1  0.098319  0.250000  0.466401  1
  Bi  Bi24  1  0.563683  0.989743  0.328351  1
  Bi  Bi25  1  0.063307  0.509705  0.171765  1
  Bi  Bi26  1  0.436357  0.490479  0.672364  1
  Bi  Bi27  1  0.936530  0.008785  0.827954  1
  Bi  Bi28  1  0.436357  0.009521  0.672364  1
  Bi  Bi29  1  0.936530  0.491215  0.827954  1
  Bi  Bi30  1  0.563683  0.510257  0.328351  1
  Bi  Bi31  1  0.063307  0.990295  0.171765  1
