# generated using pymatgen
data_Tb4MgB4Ir9
_symmetry_space_group_name_H-M   'P 1'
_cell_length_a   10.95607427
_cell_length_b   10.95607310
_cell_length_c   10.95607320
_cell_angle_alpha   29.23684772
_cell_angle_beta   29.23684672
_cell_angle_gamma   29.23685528
_symmetry_Int_Tables_number   1
_chemical_formula_structural   Tb4MgB4Ir9
_chemical_formula_sum   'Tb4 Mg1 B4 Ir9'
_cell_volume   277.58424460
_cell_formula_units_Z   1
loop_
 _symmetry_equiv_pos_site_id
 _symmetry_equiv_pos_as_xyz
  1  'x, y, z'
loop_
 _atom_site_type_symbol
 _atom_site_label
 _atom_site_symmetry_multiplicity
 _atom_site_fract_x
 _atom_site_fract_y
 _atom_site_fract_z
 _atom_site_occupancy
  Tb  Tb0  1  0.149177  0.149177  0.149177  1
  Tb  Tb1  1  0.950485  0.950485  0.950485  1
  Tb  Tb2  1  0.850823  0.850823  0.850823  1
  Tb  Tb3  1  0.049515  0.049515  0.049515  1
  Mg  Mg4  1  0.500000  0.500000  0.500000  1
  B  B5  1  0.615946  0.615946  0.615946  1
  B  B6  1  0.717280  0.717280  0.717280  1
  B  B7  1  0.384054  0.384054  0.384054  1
  B  B8  1  0.282720  0.282720  0.282720  1
  Ir  Ir9  1  0.401987  0.905579  0.401987  1
  Ir  Ir10  1  0.905579  0.401987  0.401987  1
  Ir  Ir11  1  0.500000  0.500000  0.000000  1
  Ir  Ir12  1  0.500000  0.000000  0.500000  1
  Ir  Ir13  1  0.000000  0.500000  0.500000  1
  Ir  Ir14  1  0.598013  0.094421  0.598013  1
  Ir  Ir15  1  0.598013  0.598013  0.094421  1
  Ir  Ir16  1  0.094421  0.598013  0.598013  1
  Ir  Ir17  1  0.401987  0.401987  0.905579  1
