# generated using pymatgen
data_Cs6HoLu3Br18
_symmetry_space_group_name_H-M   'P 1'
_cell_length_a   10.39811501
_cell_length_b   10.39811518
_cell_length_c   10.39811492
_cell_angle_alpha   83.08520585
_cell_angle_beta   83.08520805
_cell_angle_gamma   83.08521529
_symmetry_Int_Tables_number   1
_chemical_formula_structural   Cs6HoLu3Br18
_chemical_formula_sum   'Cs6 Ho1 Lu3 Br18'
_cell_volume   1101.54173840
_cell_formula_units_Z   1
loop_
 _symmetry_equiv_pos_site_id
 _symmetry_equiv_pos_as_xyz
  1  'x, y, z'
loop_
 _atom_site_type_symbol
 _atom_site_label
 _atom_site_symmetry_multiplicity
 _atom_site_fract_x
 _atom_site_fract_y
 _atom_site_fract_z
 _atom_site_occupancy
  Cs  Cs0  1  0.588238  0.911816  0.249821  1
  Cs  Cs1  1  0.249821  0.588238  0.911816  1
  Cs  Cs2  1  0.911816  0.249821  0.588238  1
  Cs  Cs3  1  0.750017  0.411665  0.088373  1
  Cs  Cs4  1  0.088373  0.750017  0.411665  1
  Cs  Cs5  1  0.411665  0.088373  0.750017  1
  Ho  Ho6  1  0.653025  0.653025  0.653025  1
  Lu  Lu7  1  0.846479  0.846479  0.846479  1
  Lu  Lu8  1  0.345988  0.345988  0.345988  1
  Lu  Lu9  1  0.153944  0.153944  0.153944  1
  Br  Br10  1  0.096378  0.403644  0.249965  1
  Br  Br11  1  0.249965  0.096378  0.403644  1
  Br  Br12  1  0.403644  0.249965  0.096378  1
  Br  Br13  1  0.751173  0.906420  0.596159  1
  Br  Br14  1  0.596159  0.751173  0.906420  1
  Br  Br15  1  0.906420  0.596159  0.751173  1
  Br  Br16  1  0.236667  0.414465  0.576992  1
  Br  Br17  1  0.576992  0.236667  0.414465  1
  Br  Br18  1  0.414465  0.576992  0.236667  1
  Br  Br19  1  0.077155  0.914645  0.736647  1
  Br  Br20  1  0.736647  0.077155  0.914645  1
  Br  Br21  1  0.914645  0.736647  0.077155  1
  Br  Br22  1  0.765443  0.584344  0.418659  1
  Br  Br23  1  0.418659  0.765443  0.584344  1
  Br  Br24  1  0.584344  0.418659  0.765443  1
  Br  Br25  1  0.923008  0.085540  0.263331  1
  Br  Br26  1  0.263331  0.923008  0.085540  1
  Br  Br27  1  0.085540  0.263331  0.923008  1
