# generated using pymatgen
data_Sr4Zn5AgAu12
_symmetry_space_group_name_H-M   'P 1'
_cell_length_a   8.94288421
_cell_length_b   8.92665219
_cell_length_c   8.94288386
_cell_angle_alpha   57.52337242
_cell_angle_beta   57.06391782
_cell_angle_gamma   57.52337596
_symmetry_Int_Tables_number   1
_chemical_formula_structural   Sr4Zn5AgAu12
_chemical_formula_sum   'Sr4 Zn5 Ag1 Au12'
_cell_volume   474.23591074
_cell_formula_units_Z   1
loop_
 _symmetry_equiv_pos_site_id
 _symmetry_equiv_pos_as_xyz
  1  'x, y, z'
loop_
 _atom_site_type_symbol
 _atom_site_label
 _atom_site_symmetry_multiplicity
 _atom_site_fract_x
 _atom_site_fract_y
 _atom_site_fract_z
 _atom_site_occupancy
  Sr  Sr0  1  0.904188  0.906775  0.906896  1
  Sr  Sr1  1  0.407687  0.410971  0.402307  1
  Sr  Sr2  1  0.097693  0.089029  0.092313  1
  Sr  Sr3  1  0.593104  0.593225  0.595812  1
  Zn  Zn4  1  0.940006  0.557695  0.752867  1
  Zn  Zn5  1  0.747133  0.942305  0.559994  1
  Zn  Zn6  1  0.438114  0.250000  0.061886  1
  Zn  Zn7  1  0.061697  0.436078  0.254769  1
  Zn  Zn8  1  0.245231  0.063922  0.438303  1
  Ag  Ag9  1  0.571186  0.750000  0.928814  1
  Au  Au10  1  0.483226  0.862612  0.212941  1
  Au  Au11  1  0.204128  0.480029  0.861820  1
  Au  Au12  1  0.865012  0.201591  0.481757  1
  Au  Au13  1  0.710876  0.352512  0.981841  1
  Au  Au14  1  0.980221  0.703523  0.366624  1
  Au  Au15  1  0.355615  0.985966  0.700134  1
  Au  Au16  1  0.518159  0.147488  0.789124  1
  Au  Au17  1  0.799866  0.514034  0.144385  1
  Au  Au18  1  0.133376  0.796477  0.519779  1
  Au  Au19  1  0.287059  0.637388  0.016774  1
  Au  Au20  1  0.018243  0.298409  0.634988  1
  Au  Au21  1  0.638180  0.019971  0.295872  1
