# generated using pymatgen
data_Dy4Mn4Al3CoO20
_symmetry_space_group_name_H-M   'P 1'
_cell_length_a   5.68153900
_cell_length_b   7.27304797
_cell_length_c   8.45760931
_cell_angle_alpha   89.73753373
_cell_angle_beta   90.00000000
_cell_angle_gamma   90.00000000
_symmetry_Int_Tables_number   1
_chemical_formula_structural   Dy4Mn4Al3CoO20
_chemical_formula_sum   'Dy4 Mn4 Al3 Co1 O20'
_cell_volume   349.48255891
_cell_formula_units_Z   1
loop_
 _symmetry_equiv_pos_site_id
 _symmetry_equiv_pos_as_xyz
  1  'x, y, z'
loop_
 _atom_site_type_symbol
 _atom_site_label
 _atom_site_symmetry_multiplicity
 _atom_site_fract_x
 _atom_site_fract_y
 _atom_site_fract_z
 _atom_site_occupancy
  Dy  Dy0  1  0.000000  0.370867  0.670051  1
  Dy  Dy1  1  0.000000  0.632569  0.330055  1
  Dy  Dy2  1  0.000000  0.864420  0.831124  1
  Dy  Dy3  1  0.000000  0.137727  0.169060  1
  Mn  Mn4  1  0.255187  0.500776  0.000408  1
  Mn  Mn5  1  0.746660  0.999455  0.498796  1
  Mn  Mn6  1  0.744813  0.500776  0.000408  1
  Mn  Mn7  1  0.253340  0.999455  0.498796  1
  Al  Al8  1  0.500000  0.892727  0.143914  1
  Al  Al9  1  0.500000  0.606761  0.642032  1
  Al  Al10  1  0.500000  0.393186  0.358295  1
  Co  Co11  1  0.500000  0.089845  0.851041  1
  O  O12  1  0.250497  0.895084  0.289260  1
  O  O13  1  0.241931  0.105518  0.707928  1
  O  O14  1  0.749401  0.395350  0.211464  1
  O  O15  1  0.749120  0.606358  0.789181  1
  O  O16  1  0.758069  0.105518  0.707928  1
  O  O17  1  0.749503  0.895084  0.289260  1
  O  O18  1  0.250880  0.606358  0.789181  1
  O  O19  1  0.250599  0.395350  0.211464  1
  O  O20  1  0.500000  0.344696  0.932099  1
  O  O21  1  0.500000  0.659357  0.071519  1
  O  O22  1  0.500000  0.843219  0.572338  1
  O  O23  1  0.500000  0.157664  0.428980  1
  O  O24  1  0.278148  0.999171  0.002613  1
  O  O25  1  0.719502  0.500255  0.500145  1
  O  O26  1  0.721852  0.999171  0.002613  1
  O  O27  1  0.280498  0.500255  0.500145  1
  O  O28  1  0.000000  0.163225  0.443314  1
  O  O29  1  0.000000  0.835976  0.555479  1
  O  O30  1  0.000000  0.665582  0.056971  1
  O  O31  1  0.000000  0.338245  0.944135  1
