# generated using pymatgen
data_Na16ZrSnSb8
_symmetry_space_group_name_H-M   'P 1'
_cell_length_a   10.54664792
_cell_length_b   10.54664796
_cell_length_c   10.54664800
_cell_angle_alpha   59.99999989
_cell_angle_beta   59.99999975
_cell_angle_gamma   59.99999997
_symmetry_Int_Tables_number   1
_chemical_formula_structural   Na16ZrSnSb8
_chemical_formula_sum   'Na16 Zr1 Sn1 Sb8'
_cell_volume   829.52284403
_cell_formula_units_Z   1
loop_
 _symmetry_equiv_pos_site_id
 _symmetry_equiv_pos_as_xyz
  1  'x, y, z'
loop_
 _atom_site_type_symbol
 _atom_site_label
 _atom_site_symmetry_multiplicity
 _atom_site_fract_x
 _atom_site_fract_y
 _atom_site_fract_z
 _atom_site_occupancy
  Na  Na0  1  0.625774  0.122677  0.625774  1
  Na  Na1  1  0.625774  0.625774  0.122677  1
  Na  Na2  1  0.122677  0.625774  0.625774  1
  Na  Na3  1  0.625774  0.625774  0.625774  1
  Na  Na4  1  0.024053  0.024053  0.475947  1
  Na  Na5  1  0.769108  0.230892  0.230892  1
  Na  Na6  1  0.230892  0.769108  0.769108  1
  Na  Na7  1  0.769108  0.769108  0.230892  1
  Na  Na8  1  0.769108  0.230892  0.769108  1
  Na  Na9  1  0.230892  0.769108  0.230892  1
  Na  Na10  1  0.475947  0.024053  0.475947  1
  Na  Na11  1  0.475947  0.024053  0.024053  1
  Na  Na12  1  0.024053  0.475947  0.475947  1
  Na  Na13  1  0.024053  0.475947  0.024053  1
  Na  Na14  1  0.230892  0.230892  0.769108  1
  Na  Na15  1  0.475947  0.475947  0.024053  1
  Zr  Zr16  1  0.500000  0.500000  0.500000  1
  Sn  Sn17  1  0.750000  0.750000  0.750000  1
  Sb  Sb18  1  0.414133  0.861955  0.861955  1
  Sb  Sb19  1  0.861955  0.861955  0.861955  1
  Sb  Sb20  1  0.828129  0.390624  0.390624  1
  Sb  Sb21  1  0.390624  0.390624  0.390624  1
  Sb  Sb22  1  0.390624  0.390624  0.828129  1
  Sb  Sb23  1  0.861955  0.414133  0.861955  1
  Sb  Sb24  1  0.861955  0.861955  0.414133  1
  Sb  Sb25  1  0.390624  0.828129  0.390624  1
