# generated using pymatgen
data_Tm2LuAl12Ru3Pt
_symmetry_space_group_name_H-M   'P 1'
_cell_length_a   8.79305156
_cell_length_b   8.79305105
_cell_length_c   9.52605600
_cell_angle_alpha   90.00000000
_cell_angle_beta   90.00000000
_cell_angle_gamma   120.10331030
_symmetry_Int_Tables_number   1
_chemical_formula_structural   Tm2LuAl12Ru3Pt
_chemical_formula_sum   'Tm4 Lu2 Al24 Ru6 Pt2'
_cell_volume   637.19142660
_cell_formula_units_Z   2
loop_
 _symmetry_equiv_pos_site_id
 _symmetry_equiv_pos_as_xyz
  1  'x, y, z'
loop_
 _atom_site_type_symbol
 _atom_site_label
 _atom_site_symmetry_multiplicity
 _atom_site_fract_x
 _atom_site_fract_y
 _atom_site_fract_z
 _atom_site_occupancy
  Tm  Tm0  1  0.386340  0.189849  0.750000  1
  Tm  Tm1  1  0.613660  0.810151  0.250000  1
  Tm  Tm2  1  0.810151  0.613660  0.750000  1
  Tm  Tm3  1  0.189849  0.386340  0.250000  1
  Lu  Lu4  1  0.803386  0.196614  0.750000  1
  Lu  Lu5  1  0.196614  0.803386  0.250000  1
  Al  Al6  1  0.669177  0.330823  0.973260  1
  Al  Al7  1  0.330823  0.669177  0.026740  1
  Al  Al8  1  0.330823  0.669177  0.473260  1
  Al  Al9  1  0.669177  0.330823  0.526740  1
  Al  Al10  1  0.836549  0.163451  0.420995  1
  Al  Al11  1  0.163451  0.836549  0.579005  1
  Al  Al12  1  0.324666  0.158075  0.421212  1
  Al  Al13  1  0.163451  0.836549  0.920995  1
  Al  Al14  1  0.675334  0.841925  0.578788  1
  Al  Al15  1  0.836549  0.163451  0.079005  1
  Al  Al16  1  0.841925  0.675334  0.421212  1
  Al  Al17  1  0.675334  0.841925  0.921212  1
  Al  Al18  1  0.158075  0.324666  0.578788  1
  Al  Al19  1  0.324666  0.158075  0.078788  1
  Al  Al20  1  0.158075  0.324666  0.921212  1
  Al  Al21  1  0.841925  0.675334  0.078788  1
  Al  Al22  1  0.436381  0.563619  0.750000  1
  Al  Al23  1  0.563619  0.436381  0.250000  1
  Al  Al24  1  0.122315  0.560738  0.750000  1
  Al  Al25  1  0.877685  0.439262  0.250000  1
  Al  Al26  1  0.439262  0.877685  0.750000  1
  Al  Al27  1  0.560738  0.122315  0.250000  1
  Al  Al28  1  0.000373  0.999627  0.750000  1
  Al  Al29  1  0.999627  0.000373  0.250000  1
  Ru  Ru30  1  0.000000  0.500000  0.000000  1
  Ru  Ru31  1  0.500000  0.000000  0.000000  1
  Ru  Ru32  1  0.000000  0.500000  0.500000  1
  Ru  Ru33  1  0.500000  0.000000  0.500000  1
  Ru  Ru34  1  0.000000  0.000000  0.000000  1
  Ru  Ru35  1  0.000000  0.000000  0.500000  1
  Pt  Pt36  1  0.500000  0.500000  0.000000  1
  Pt  Pt37  1  0.500000  0.500000  0.500000  1
