# generated using pymatgen
data_La6Nd14(Ir3Ru)3
_symmetry_space_group_name_H-M   'P 1'
_cell_length_a   11.29720807
_cell_length_b   11.26953810
_cell_length_c   6.62928700
_cell_angle_alpha   90.00000000
_cell_angle_beta   90.00000000
_cell_angle_gamma   90.18737464
_symmetry_Int_Tables_number   1
_chemical_formula_structural   La6Nd14(Ir3Ru)3
_chemical_formula_sum   'La6 Nd14 Ir9 Ru3'
_cell_volume   843.99863170
_cell_formula_units_Z   1
loop_
 _symmetry_equiv_pos_site_id
 _symmetry_equiv_pos_as_xyz
  1  'x, y, z'
loop_
 _atom_site_type_symbol
 _atom_site_label
 _atom_site_symmetry_multiplicity
 _atom_site_fract_x
 _atom_site_fract_y
 _atom_site_fract_z
 _atom_site_occupancy
  La  La0  1  0.091339  0.290848  0.116215  1
  La  La1  1  0.791030  0.408427  0.115851  1
  La  La2  1  0.208970  0.591573  0.115851  1
  La  La3  1  0.908661  0.709152  0.116215  1
  La  La4  1  0.413035  0.795131  0.389228  1
  La  La5  1  0.586965  0.204869  0.389228  1
  Nd  Nd6  1  0.292784  0.087733  0.386619  1
  Nd  Nd7  1  0.707216  0.912267  0.386619  1
  Nd  Nd8  1  0.411657  0.205297  0.886222  1
  Nd  Nd9  1  0.706187  0.087432  0.886038  1
  Nd  Nd10  1  0.293813  0.912568  0.886038  1
  Nd  Nd11  1  0.588343  0.794703  0.886222  1
  Nd  Nd12  1  0.089480  0.707476  0.613325  1
  Nd  Nd13  1  0.910520  0.292524  0.613325  1
  Nd  Nd14  1  0.207462  0.409553  0.613292  1
  Nd  Nd15  1  0.792538  0.590447  0.613292  1
  Nd  Nd16  1  0.000000  0.000000  0.995449  1
  Nd  Nd17  1  0.500000  0.500000  0.994925  1
  Nd  Nd18  1  0.500000  0.500000  0.496556  1
  Nd  Nd19  1  0.000000  0.000000  0.497109  1
  Ir  Ir20  1  0.153006  0.847827  0.250194  1
  Ir  Ir21  1  0.346264  0.346472  0.249681  1
  Ir  Ir22  1  0.653736  0.653528  0.249681  1
  Ir  Ir23  1  0.846994  0.152173  0.250194  1
  Ir  Ir24  1  0.346450  0.652041  0.749242  1
  Ir  Ir25  1  0.151409  0.154376  0.749642  1
  Ir  Ir26  1  0.848591  0.845624  0.749642  1
  Ir  Ir27  1  0.653550  0.347959  0.749242  1
  Ir  Ir28  1  0.000000  0.500000  0.879884  1
  Ru  Ru29  1  0.000000  0.500000  0.376631  1
  Ru  Ru30  1  0.500000  0.000000  0.126115  1
  Ru  Ru31  1  0.500000  0.000000  0.622232  1
