# generated using pymatgen
data_TbNd15CdIn3Rh4
_symmetry_space_group_name_H-M   'P 1'
_cell_length_a   9.93361253
_cell_length_b   9.93363545
_cell_length_c   9.92312130
_cell_angle_alpha   60.15165825
_cell_angle_beta   60.15168117
_cell_angle_gamma   60.18419490
_symmetry_Int_Tables_number   1
_chemical_formula_structural   TbNd15CdIn3Rh4
_chemical_formula_sum   'Tb1 Nd15 Cd1 In3 Rh4'
_cell_volume   694.93508276
_cell_formula_units_Z   1
loop_
 _symmetry_equiv_pos_site_id
 _symmetry_equiv_pos_as_xyz
  1  'x, y, z'
loop_
 _atom_site_type_symbol
 _atom_site_label
 _atom_site_symmetry_multiplicity
 _atom_site_fract_x
 _atom_site_fract_y
 _atom_site_fract_z
 _atom_site_occupancy
  Tb  Tb0  1  0.059212  0.059213  0.441233  1
  Nd  Nd1  1  0.298317  0.900556  0.899611  1
  Nd  Nd2  1  0.688927  0.311020  0.686470  1
  Nd  Nd3  1  0.309514  0.691264  0.311725  1
  Nd  Nd4  1  0.061355  0.438509  0.439692  1
  Nd  Nd5  1  0.691260  0.309517  0.311728  1
  Nd  Nd6  1  0.438509  0.061353  0.439694  1
  Nd  Nd7  1  0.439852  0.058915  0.060888  1
  Nd  Nd8  1  0.901665  0.901664  0.899657  1
  Nd  Nd9  1  0.058916  0.439851  0.060890  1
  Nd  Nd10  1  0.900556  0.298316  0.899612  1
  Nd  Nd11  1  0.311020  0.688927  0.686468  1
  Nd  Nd12  1  0.900146  0.900147  0.299687  1
  Nd  Nd13  1  0.440096  0.440096  0.061279  1
  Nd  Nd14  1  0.311932  0.311928  0.688507  1
  Nd  Nd15  1  0.687953  0.687956  0.311752  1
  Cd  Cd16  1  0.669789  0.669788  0.670426  1
  In  In17  1  0.992847  0.670106  0.668964  1
  In  In18  1  0.670106  0.992847  0.668964  1
  In  In19  1  0.669317  0.669318  0.992188  1
  Rh  Rh20  1  0.107263  0.107262  0.674294  1
  Rh  Rh21  1  0.108110  0.676553  0.107818  1
  Rh  Rh22  1  0.106785  0.106786  0.110634  1
  Rh  Rh23  1  0.676552  0.108110  0.107818  1
