# generated using pymatgen
data_Hf8Ti4Nb8Si15Ge
_symmetry_space_group_name_H-M   'P 1'
_cell_length_a   6.65469542
_cell_length_b   6.81031567
_cell_length_c   13.08673090
_cell_angle_alpha   90.07639883
_cell_angle_beta   90.00300366
_cell_angle_gamma   90.03218103
_symmetry_Int_Tables_number   1
_chemical_formula_structural   Hf8Ti4Nb8Si15Ge
_chemical_formula_sum   'Hf8 Ti4 Nb8 Si15 Ge1'
_cell_volume   593.09756699
_cell_formula_units_Z   1
loop_
 _symmetry_equiv_pos_site_id
 _symmetry_equiv_pos_as_xyz
  1  'x, y, z'
loop_
 _atom_site_type_symbol
 _atom_site_label
 _atom_site_symmetry_multiplicity
 _atom_site_fract_x
 _atom_site_fract_y
 _atom_site_fract_z
 _atom_site_occupancy
  Hf  Hf0  1  0.495838  0.672577  0.593950  1
  Hf  Hf1  1  0.995847  0.827686  0.906268  1
  Hf  Hf2  1  0.501973  0.326559  0.092594  1
  Hf  Hf3  1  0.006908  0.171021  0.408716  1
  Hf  Hf4  1  0.501608  0.326768  0.407385  1
  Hf  Hf5  1  0.006571  0.170863  0.091241  1
  Hf  Hf6  1  0.497296  0.674134  0.906187  1
  Hf  Hf7  1  0.997242  0.826266  0.593564  1
  Ti  Ti8  1  0.663108  0.171032  0.624578  1
  Ti  Ti9  1  0.163133  0.329331  0.875475  1
  Ti  Ti10  1  0.163948  0.506945  0.249599  1
  Ti  Ti11  1  0.660472  0.991040  0.250454  1
  Nb  Nb12  1  0.335945  0.827350  0.123789  1
  Nb  Nb13  1  0.836266  0.675350  0.376432  1
  Nb  Nb14  1  0.336469  0.827966  0.376293  1
  Nb  Nb15  1  0.836844  0.674683  0.123538  1
  Nb  Nb16  1  0.663089  0.171488  0.876337  1
  Nb  Nb17  1  0.163032  0.328947  0.623663  1
  Nb  Nb18  1  0.836671  0.496450  0.749714  1
  Nb  Nb19  1  0.336744  0.003918  0.750257  1
  Si  Si20  1  0.671557  0.967535  0.463586  1
  Si  Si21  1  0.171318  0.533567  0.036526  1
  Si  Si22  1  0.326135  0.038287  0.961213  1
  Si  Si23  1  0.825838  0.461783  0.538196  1
  Si  Si24  1  0.332189  0.036106  0.538914  1
  Si  Si25  1  0.831858  0.464024  0.961669  1
  Si  Si26  1  0.670760  0.964845  0.038684  1
  Si  Si27  1  0.170528  0.536125  0.461163  1
  Si  Si28  1  0.459720  0.385951  0.750163  1
  Si  Si29  1  0.959712  0.114420  0.749837  1
  Si  Si30  1  0.537316  0.614100  0.249885  1
  Si  Si31  1  0.038577  0.887963  0.250119  1
  Si  Si32  1  0.703659  0.862117  0.748490  1
  Si  Si33  1  0.203549  0.638408  0.751519  1
  Si  Si34  1  0.297723  0.141527  0.250247  1
  Ge  Ge35  1  0.800557  0.352864  0.249753  1
