# generated using pymatgen
data_HfSc3(Ta3Si4)2
_symmetry_space_group_name_H-M   'P 1'
_cell_length_a   6.69271800
_cell_length_b   6.87775995
_cell_length_c   13.08055900
_cell_angle_alpha   89.93002118
_cell_angle_beta   90.00000000
_cell_angle_gamma   90.00000000
_symmetry_Int_Tables_number   1
_chemical_formula_structural   HfSc3(Ta3Si4)2
_chemical_formula_sum   'Hf2 Sc6 Ta12 Si16'
_cell_volume   602.10955671
_cell_formula_units_Z   2
loop_
 _symmetry_equiv_pos_site_id
 _symmetry_equiv_pos_as_xyz
  1  'x, y, z'
loop_
 _atom_site_type_symbol
 _atom_site_label
 _atom_site_symmetry_multiplicity
 _atom_site_fract_x
 _atom_site_fract_y
 _atom_site_fract_z
 _atom_site_occupancy
  Hf  Hf0  1  0.498580  0.674757  0.596449  1
  Hf  Hf1  1  0.998580  0.825243  0.903551  1
  Sc  Sc2  1  0.500889  0.326154  0.095323  1
  Sc  Sc3  1  0.000889  0.173846  0.404677  1
  Sc  Sc4  1  0.500697  0.326782  0.404799  1
  Sc  Sc5  1  0.000697  0.173218  0.095201  1
  Sc  Sc6  1  0.497542  0.674333  0.905239  1
  Sc  Sc7  1  0.997542  0.825667  0.594761  1
  Ta  Ta8  1  0.661603  0.173722  0.624493  1
  Ta  Ta9  1  0.161603  0.326278  0.875507  1
  Ta  Ta10  1  0.337889  0.825949  0.124303  1
  Ta  Ta11  1  0.837889  0.674051  0.375697  1
  Ta  Ta12  1  0.339146  0.824984  0.375897  1
  Ta  Ta13  1  0.839146  0.675016  0.124103  1
  Ta  Ta14  1  0.663574  0.172355  0.875104  1
  Ta  Ta15  1  0.163574  0.327645  0.624896  1
  Ta  Ta16  1  0.836627  0.495758  0.750620  1
  Ta  Ta17  1  0.336627  0.004242  0.749380  1
  Ta  Ta18  1  0.163513  0.505949  0.249952  1
  Ta  Ta19  1  0.663513  0.994051  0.250048  1
  Si  Si20  1  0.670061  0.967660  0.460493  1
  Si  Si21  1  0.170061  0.532340  0.039507  1
  Si  Si22  1  0.329026  0.033373  0.960594  1
  Si  Si23  1  0.829026  0.466627  0.539406  1
  Si  Si24  1  0.329299  0.033272  0.539461  1
  Si  Si25  1  0.829299  0.466728  0.960539  1
  Si  Si26  1  0.671225  0.967433  0.039458  1
  Si  Si27  1  0.171225  0.532567  0.460542  1
  Si  Si28  1  0.459504  0.387423  0.750685  1
  Si  Si29  1  0.959504  0.112577  0.749315  1
  Si  Si30  1  0.541359  0.612651  0.249652  1
  Si  Si31  1  0.041359  0.887349  0.250348  1
  Si  Si32  1  0.703168  0.862243  0.749922  1
  Si  Si33  1  0.203168  0.637757  0.750078  1
  Si  Si34  1  0.296297  0.138024  0.249992  1
  Si  Si35  1  0.796297  0.361976  0.250008  1
