# generated using pymatgen
data_Ho4Er2CoNi
_symmetry_space_group_name_H-M   'P 1'
_cell_length_a   6.22983195
_cell_length_b   6.87533600
_cell_length_c   9.44765646
_cell_angle_alpha   90.00000000
_cell_angle_beta   90.06352883
_cell_angle_gamma   90.00000000
_symmetry_Int_Tables_number   1
_chemical_formula_structural   Ho4Er2CoNi
_chemical_formula_sum   'Ho8 Er4 Co2 Ni2'
_cell_volume   404.66354790
_cell_formula_units_Z   2
loop_
 _symmetry_equiv_pos_site_id
 _symmetry_equiv_pos_as_xyz
  1  'x, y, z'
loop_
 _atom_site_type_symbol
 _atom_site_label
 _atom_site_symmetry_multiplicity
 _atom_site_fract_x
 _atom_site_fract_y
 _atom_site_fract_z
 _atom_site_occupancy
  Ho  Ho0  1  0.364345  0.540842  0.250164  1
  Ho  Ho1  1  0.142427  0.036009  0.249837  1
  Ho  Ho2  1  0.674919  0.175705  0.432136  1
  Ho  Ho3  1  0.174919  0.324295  0.932136  1
  Ho  Ho4  1  0.322042  0.820154  0.565858  1
  Ho  Ho5  1  0.864345  0.959158  0.750164  1
  Ho  Ho6  1  0.642427  0.463991  0.749837  1
  Ho  Ho7  1  0.822042  0.679846  0.065858  1
  Er  Er8  1  0.674383  0.175676  0.067788  1
  Er  Er9  1  0.822546  0.679543  0.434200  1
  Er  Er10  1  0.322546  0.820457  0.934200  1
  Er  Er11  1  0.174383  0.324324  0.567788  1
  Co  Co12  1  0.551059  0.888212  0.249673  1
  Co  Co13  1  0.051059  0.611788  0.749673  1
  Ni  Ni14  1  0.948279  0.389623  0.250344  1
  Ni  Ni15  1  0.448279  0.110377  0.750344  1
