# generated using pymatgen
data_Al3ZnPd5Pt3
_symmetry_space_group_name_H-M   'P 1'
_cell_length_a   4.11381500
_cell_length_b   5.48071701
_cell_length_c   7.91677981
_cell_angle_alpha   89.31024959
_cell_angle_beta   90.00000000
_cell_angle_gamma   90.00000000
_symmetry_Int_Tables_number   1
_chemical_formula_structural   Al3ZnPd5Pt3
_chemical_formula_sum   'Al3 Zn1 Pd5 Pt3'
_cell_volume   178.48397583
_cell_formula_units_Z   1
loop_
 _symmetry_equiv_pos_site_id
 _symmetry_equiv_pos_as_xyz
  1  'x, y, z'
loop_
 _atom_site_type_symbol
 _atom_site_label
 _atom_site_symmetry_multiplicity
 _atom_site_fract_x
 _atom_site_fract_y
 _atom_site_fract_z
 _atom_site_occupancy
  Al  Al0  1  0.250000  0.187086  0.101740  1
  Al  Al1  1  0.750000  0.314449  0.603242  1
  Al  Al2  1  0.250000  0.688439  0.400055  1
  Zn  Zn3  1  0.750000  0.807366  0.896521  1
  Pd  Pd4  1  0.250000  0.044478  0.782511  1
  Pd  Pd5  1  0.750000  0.328210  0.932799  1
  Pd  Pd6  1  0.250000  0.659901  0.071098  1
  Pd  Pd7  1  0.750000  0.839908  0.565604  1
  Pd  Pd8  1  0.250000  0.165902  0.431673  1
  Pt  Pt9  1  0.750000  0.461089  0.284337  1
  Pt  Pt10  1  0.250000  0.541272  0.714750  1
  Pt  Pt11  1  0.750000  0.961901  0.215673  1
