# generated using pymatgen
data_Tm3Lu7(AlBi)3
_symmetry_space_group_name_H-M   'P 1'
_cell_length_a   8.67255700
_cell_length_b   8.69484135
_cell_length_c   6.31718200
_cell_angle_alpha   90.00000000
_cell_angle_beta   90.00000000
_cell_angle_gamma   119.70268924
_symmetry_Int_Tables_number   1
_chemical_formula_structural   Tm3Lu7(AlBi)3
_chemical_formula_sum   'Tm3 Lu7 Al3 Bi3'
_cell_volume   413.76730269
_cell_formula_units_Z   1
loop_
 _symmetry_equiv_pos_site_id
 _symmetry_equiv_pos_as_xyz
  1  'x, y, z'
loop_
 _atom_site_type_symbol
 _atom_site_label
 _atom_site_symmetry_multiplicity
 _atom_site_fract_x
 _atom_site_fract_y
 _atom_site_fract_z
 _atom_site_occupancy
  Tm  Tm0  1  0.767631  0.768847  0.250000  1
  Tm  Tm1  1  0.241551  0.226606  0.750000  1
  Tm  Tm2  1  0.016680  0.774819  0.750000  1
  Lu  Lu3  1  0.333382  0.684928  0.004248  1
  Lu  Lu4  1  0.666088  0.321897  0.495848  1
  Lu  Lu5  1  0.666088  0.321897  0.004152  1
  Lu  Lu6  1  0.333382  0.684928  0.495752  1
  Lu  Lu7  1  0.232066  0.985291  0.250000  1
  Lu  Lu8  1  0.758936  0.002352  0.750000  1
  Lu  Lu9  1  0.983048  0.229601  0.250000  1
  Al  Al10  1  0.599156  0.999160  0.250000  1
  Al  Al11  1  0.406626  0.004640  0.750000  1
  Al  Al12  1  0.994030  0.598881  0.250000  1
  Bi  Bi13  1  0.386035  0.391400  0.250000  1
  Bi  Bi14  1  0.608570  0.606415  0.750000  1
  Bi  Bi15  1  0.006731  0.398335  0.750000  1
