# generated using pymatgen
data_Mn2Si2Tc3Ru
_symmetry_space_group_name_H-M   'P 1'
_cell_length_a   4.18587400
_cell_length_b   5.96586816
_cell_length_c   12.57722034
_cell_angle_alpha   90.02653991
_cell_angle_beta   89.99885108
_cell_angle_gamma   90.00024817
_symmetry_Int_Tables_number   1
_chemical_formula_structural   Mn2Si2Tc3Ru
_chemical_formula_sum   'Mn6 Si6 Tc9 Ru3'
_cell_volume   314.08299652
_cell_formula_units_Z   3
loop_
 _symmetry_equiv_pos_site_id
 _symmetry_equiv_pos_as_xyz
  1  'x, y, z'
loop_
 _atom_site_type_symbol
 _atom_site_label
 _atom_site_symmetry_multiplicity
 _atom_site_fract_x
 _atom_site_fract_y
 _atom_site_fract_z
 _atom_site_occupancy
  Mn  Mn0  1  0.999999  0.000086  0.001784  1
  Mn  Mn1  1  0.499714  0.500347  0.166314  1
  Mn  Mn2  1  0.999793  0.000044  0.333461  1
  Mn  Mn3  1  0.499997  0.499380  0.499166  1
  Mn  Mn4  1  0.000282  0.002147  0.664580  1
  Mn  Mn5  1  0.500309  0.498497  0.834324  1
  Si  Si6  1  0.000006  0.500448  0.998028  1
  Si  Si7  1  0.499683  0.999574  0.166069  1
  Si  Si8  1  0.999667  0.500461  0.333702  1
  Si  Si9  1  0.499999  0.998915  0.501562  1
  Si  Si10  1  0.000302  0.502336  0.668584  1
  Si  Si11  1  0.500317  0.998435  0.832227  1
  Tc  Tc12  1  0.500007  0.250645  0.998413  1
  Tc  Tc13  1  0.500003  0.750723  0.998257  1
  Tc  Tc14  1  0.999758  0.250019  0.165857  1
  Tc  Tc15  1  0.999757  0.749404  0.165856  1
  Tc  Tc16  1  0.499748  0.250267  0.333642  1
  Tc  Tc17  1  0.499748  0.750940  0.333825  1
  Tc  Tc18  1  0.999994  0.250357  0.501353  1
  Tc  Tc19  1  0.000006  0.750186  0.501894  1
  Tc  Tc20  1  0.500222  0.248205  0.667685  1
  Ru  Ru21  1  0.500225  0.748492  0.667869  1
  Ru  Ru22  1  0.000236  0.250701  0.833157  1
  Ru  Ru23  1  0.000227  0.749392  0.832393  1
