# generated using pymatgen
data_Dy3HfGa2Ir3
_symmetry_space_group_name_H-M   'P 1'
_cell_length_a   7.16676101
_cell_length_b   7.16676154
_cell_length_c   4.14208400
_cell_angle_alpha   90.00000000
_cell_angle_beta   90.00000000
_cell_angle_gamma   121.24044376
_symmetry_Int_Tables_number   1
_chemical_formula_structural   Dy3HfGa2Ir3
_chemical_formula_sum   'Dy3 Hf1 Ga2 Ir3'
_cell_volume   181.89890007
_cell_formula_units_Z   1
loop_
 _symmetry_equiv_pos_site_id
 _symmetry_equiv_pos_as_xyz
  1  'x, y, z'
loop_
 _atom_site_type_symbol
 _atom_site_label
 _atom_site_symmetry_multiplicity
 _atom_site_fract_x
 _atom_site_fract_y
 _atom_site_fract_z
 _atom_site_occupancy
  Dy  Dy0  1  0.391663  0.391663  0.500000  1
  Dy  Dy1  1  0.579851  0.012132  0.500000  1
  Dy  Dy2  1  0.012132  0.579851  0.500000  1
  Hf  Hf3  1  0.761866  0.761866  0.000000  1
  Ga  Ga4  1  0.248633  0.999124  0.000000  1
  Ga  Ga5  1  0.999124  0.248633  0.000000  1
  Ir  Ir6  1  0.669343  0.343371  0.000000  1
  Ir  Ir7  1  0.343371  0.669343  0.000000  1
  Ir  Ir8  1  0.994019  0.994019  0.500000  1
