# generated using pymatgen
data_La7TbY2Si8O3
_symmetry_space_group_name_H-M   'P 1'
_cell_length_a   10.77066780
_cell_length_b   10.78410535
_cell_length_c   4.56824500
_cell_angle_alpha   90.00000000
_cell_angle_beta   90.00000000
_cell_angle_gamma   120.04128220
_symmetry_Int_Tables_number   1
_chemical_formula_structural   La7TbY2Si8O3
_chemical_formula_sum   'La7 Tb1 Y2 Si8 O3'
_cell_volume   459.33121590
_cell_formula_units_Z   1
loop_
 _symmetry_equiv_pos_site_id
 _symmetry_equiv_pos_as_xyz
  1  'x, y, z'
loop_
 _atom_site_type_symbol
 _atom_site_label
 _atom_site_symmetry_multiplicity
 _atom_site_fract_x
 _atom_site_fract_y
 _atom_site_fract_z
 _atom_site_occupancy
  La  La0  1  0.211786  0.788549  0.000000  1
  La  La1  1  0.576539  0.788268  0.000000  1
  La  La2  1  0.788214  0.576765  0.000000  1
  La  La3  1  0.000000  0.000000  0.000000  1
  La  La4  1  0.211786  0.423235  0.000000  1
  La  La5  1  0.423461  0.211732  0.000000  1
  La  La6  1  0.788214  0.211451  0.000000  1
  Tb  Tb7  1  0.000000  0.500000  0.500000  1
  Y  Y8  1  0.500000  0.500000  0.500000  1
  Y  Y9  1  0.500000  0.000000  0.500000  1
  Si  Si10  1  0.000000  0.777206  0.500000  1
  Si  Si11  1  0.000000  0.222794  0.500000  1
  Si  Si12  1  0.222866  0.222896  0.500000  1
  Si  Si13  1  0.777134  0.000031  0.500000  1
  Si  Si14  1  0.333776  0.666888  0.500000  1
  Si  Si15  1  0.222866  0.999969  0.500000  1
  Si  Si16  1  0.666224  0.333112  0.500000  1
  Si  Si17  1  0.777134  0.777104  0.500000  1
  O  O18  1  0.000000  0.500000  0.000000  1
  O  O19  1  0.500000  0.500000  0.000000  1
  O  O20  1  0.500000  0.000000  0.000000  1
