# generated using pymatgen
data_TmPu3(NiP)4
_symmetry_space_group_name_H-M   'P 1'
_cell_length_a   3.94249100
_cell_length_b   3.94248957
_cell_length_c   15.51063000
_cell_angle_alpha   90.00000000
_cell_angle_beta   90.00000000
_cell_angle_gamma   120.00000359
_symmetry_Int_Tables_number   1
_chemical_formula_structural   TmPu3(NiP)4
_chemical_formula_sum   'Tm1 Pu3 Ni4 P4'
_cell_volume   208.78597303
_cell_formula_units_Z   1
loop_
 _symmetry_equiv_pos_site_id
 _symmetry_equiv_pos_as_xyz
  1  'x, y, z'
loop_
 _atom_site_type_symbol
 _atom_site_label
 _atom_site_symmetry_multiplicity
 _atom_site_fract_x
 _atom_site_fract_y
 _atom_site_fract_z
 _atom_site_occupancy
  Tm  Tm0  1  0.000000  0.000000  0.750000  1
  Pu  Pu1  1  0.000000  0.000000  0.503498  1
  Pu  Pu2  1  0.000000  0.000000  0.996502  1
  Pu  Pu3  1  0.000000  0.000000  0.250000  1
  Ni  Ni4  1  0.333333  0.666667  0.375996  1
  Ni  Ni5  1  0.666667  0.333333  0.636982  1
  Ni  Ni6  1  0.666667  0.333333  0.863018  1
  Ni  Ni7  1  0.333333  0.666667  0.124004  1
  P  P8  1  0.333333  0.666667  0.874915  1
  P  P9  1  0.666667  0.333333  0.121641  1
  P  P10  1  0.666667  0.333333  0.378359  1
  P  P11  1  0.333333  0.666667  0.625085  1
