# generated using pymatgen
data_CeDy5Al24(CoOs3)2
_symmetry_space_group_name_H-M   'P 1'
_cell_length_a   8.80636100
_cell_length_b   8.80636067
_cell_length_c   9.46582200
_cell_angle_alpha   90.00000000
_cell_angle_beta   90.00000000
_cell_angle_gamma   119.99916790
_symmetry_Int_Tables_number   1
_chemical_formula_structural   CeDy5Al24(CoOs3)2
_chemical_formula_sum   'Ce1 Dy5 Al24 Co2 Os6'
_cell_volume   635.74881506
_cell_formula_units_Z   1
loop_
 _symmetry_equiv_pos_site_id
 _symmetry_equiv_pos_as_xyz
  1  'x, y, z'
loop_
 _atom_site_type_symbol
 _atom_site_label
 _atom_site_symmetry_multiplicity
 _atom_site_fract_x
 _atom_site_fract_y
 _atom_site_fract_z
 _atom_site_occupancy
  Ce  Ce0  1  0.805194  0.194806  0.750000  1
  Dy  Dy1  1  0.195017  0.388425  0.250000  1
  Dy  Dy2  1  0.807041  0.610221  0.750000  1
  Dy  Dy3  1  0.611575  0.804983  0.250000  1
  Dy  Dy4  1  0.389779  0.192959  0.750000  1
  Dy  Dy5  1  0.192671  0.807329  0.250000  1
  Al  Al6  1  0.333050  0.666950  0.013924  1
  Al  Al7  1  0.665847  0.334153  0.986789  1
  Al  Al8  1  0.665847  0.334153  0.513211  1
  Al  Al9  1  0.333050  0.666950  0.486076  1
  Al  Al10  1  0.160139  0.318876  0.575762  1
  Al  Al11  1  0.841519  0.681996  0.423814  1
  Al  Al12  1  0.681124  0.839861  0.575762  1
  Al  Al13  1  0.841519  0.681996  0.076186  1
  Al  Al14  1  0.318004  0.158481  0.423814  1
  Al  Al15  1  0.160139  0.318876  0.924238  1
  Al  Al16  1  0.159110  0.840890  0.575450  1
  Al  Al17  1  0.318004  0.158481  0.076186  1
  Al  Al18  1  0.840862  0.159138  0.422822  1
  Al  Al19  1  0.681124  0.839861  0.924238  1
  Al  Al20  1  0.840862  0.159138  0.077178  1
  Al  Al21  1  0.159110  0.840890  0.924550  1
  Al  Al22  1  0.560517  0.120086  0.250000  1
  Al  Al23  1  0.437716  0.876313  0.750000  1
  Al  Al24  1  0.879914  0.439483  0.250000  1
  Al  Al25  1  0.123687  0.562284  0.750000  1
  Al  Al26  1  0.560911  0.439089  0.250000  1
  Al  Al27  1  0.439476  0.560524  0.750000  1
  Al  Al28  1  0.999503  0.000497  0.250000  1
  Al  Al29  1  0.000492  0.999508  0.750000  1
  Co  Co30  1  0.999835  0.000165  0.999571  1
  Co  Co31  1  0.999835  0.000165  0.500429  1
  Os  Os32  1  0.499805  0.000519  0.999206  1
  Os  Os33  1  0.999481  0.500195  0.999206  1
  Os  Os34  1  0.499805  0.000519  0.500794  1
  Os  Os35  1  0.499476  0.500524  0.000921  1
  Os  Os36  1  0.999481  0.500195  0.500794  1
  Os  Os37  1  0.499476  0.500524  0.499079  1
