# generated using pymatgen
data_TaAgP2F12
_symmetry_space_group_name_H-M   'P 1'
_cell_length_a   8.67285808
_cell_length_b   8.99991700
_cell_length_c   8.31572766
_cell_angle_alpha   90.00000000
_cell_angle_beta   118.39757623
_cell_angle_gamma   90.00000000
_symmetry_Int_Tables_number   1
_chemical_formula_structural   TaAgP2F12
_chemical_formula_sum   'Ta2 Ag2 P4 F24'
_cell_volume   570.97900244
_cell_formula_units_Z   2
loop_
 _symmetry_equiv_pos_site_id
 _symmetry_equiv_pos_as_xyz
  1  'x, y, z'
loop_
 _atom_site_type_symbol
 _atom_site_label
 _atom_site_symmetry_multiplicity
 _atom_site_fract_x
 _atom_site_fract_y
 _atom_site_fract_z
 _atom_site_occupancy
  Ta  Ta0  1  0.000000  0.500000  0.500000  1
  Ta  Ta1  1  0.000000  0.000000  0.000000  1
  Ag  Ag2  1  0.000000  0.000000  0.500000  1
  Ag  Ag3  1  0.000000  0.500000  0.000000  1
  P  P4  1  0.685665  0.027061  0.345609  1
  P  P5  1  0.314335  0.527061  0.154391  1
  P  P6  1  0.314335  0.972939  0.654391  1
  P  P7  1  0.685665  0.472939  0.845609  1
  F  F8  1  0.159111  0.421516  0.737664  1
  F  F9  1  0.840889  0.921516  0.762336  1
  F  F10  1  0.840889  0.578484  0.262336  1
  F  F11  1  0.159111  0.078484  0.237664  1
  F  F12  1  0.136869  0.413040  0.396969  1
  F  F13  1  0.863131  0.913040  0.103031  1
  F  F14  1  0.863131  0.586960  0.603031  1
  F  F15  1  0.136869  0.086960  0.896969  1
  F  F16  1  0.137006  0.680212  0.555001  1
  F  F17  1  0.862994  0.180212  0.944999  1
  F  F18  1  0.862994  0.319788  0.444999  1
  F  F19  1  0.137006  0.819788  0.055001  1
  F  F20  1  0.596644  0.114438  0.441707  1
  F  F21  1  0.403356  0.614438  0.058293  1
  F  F22  1  0.403356  0.885562  0.558293  1
  F  F23  1  0.596644  0.385562  0.941707  1
  F  F24  1  0.599722  0.105570  0.154693  1
  F  F25  1  0.400278  0.605570  0.345307  1
  F  F26  1  0.400278  0.894430  0.845307  1
  F  F27  1  0.599722  0.394430  0.654693  1
  F  F28  1  0.576966  0.879454  0.296176  1
  F  F29  1  0.423034  0.379454  0.203824  1
  F  F30  1  0.423034  0.120546  0.703824  1
  F  F31  1  0.576966  0.620546  0.796176  1
