# generated using pymatgen
data_TmSc6CoBr12
_symmetry_space_group_name_H-M   'P 1'
_cell_length_a   8.78844933
_cell_length_b   8.78844902
_cell_length_c   8.78844918
_cell_angle_alpha   106.81158870
_cell_angle_beta   106.81158728
_cell_angle_gamma   106.81159696
_symmetry_Int_Tables_number   1
_chemical_formula_structural   TmSc6CoBr12
_chemical_formula_sum   'Tm1 Sc6 Co1 Br12'
_cell_volume   568.18489600
_cell_formula_units_Z   1
loop_
 _symmetry_equiv_pos_site_id
 _symmetry_equiv_pos_as_xyz
  1  'x, y, z'
loop_
 _atom_site_type_symbol
 _atom_site_label
 _atom_site_symmetry_multiplicity
 _atom_site_fract_x
 _atom_site_fract_y
 _atom_site_fract_z
 _atom_site_occupancy
  Tm  Tm0  1  0.500000  0.500000  0.500000  1
  Sc  Sc1  1  0.294584  0.092556  0.020677  1
  Sc  Sc2  1  0.092556  0.020677  0.294584  1
  Sc  Sc3  1  0.020677  0.294584  0.092556  1
  Sc  Sc4  1  0.705416  0.907444  0.979323  1
  Sc  Sc5  1  0.907444  0.979323  0.705416  1
  Sc  Sc6  1  0.979323  0.705416  0.907444  1
  Co  Co7  1  0.000000  0.000000  0.000000  1
  Br  Br8  1  0.219136  0.069682  0.680621  1
  Br  Br9  1  0.069682  0.680621  0.219136  1
  Br  Br10  1  0.680621  0.219136  0.069682  1
  Br  Br11  1  0.780864  0.930318  0.319379  1
  Br  Br12  1  0.930318  0.319379  0.780864  1
  Br  Br13  1  0.319379  0.780864  0.930318  1
  Br  Br14  1  0.381918  0.456887  0.154746  1
  Br  Br15  1  0.456887  0.154746  0.381918  1
  Br  Br16  1  0.154746  0.381918  0.456887  1
  Br  Br17  1  0.618082  0.543113  0.845254  1
  Br  Br18  1  0.543113  0.845254  0.618082  1
  Br  Br19  1  0.845254  0.618082  0.543113  1
