# generated using pymatgen
data_Sm4TmCo4(P4Ru5)3
_symmetry_space_group_name_H-M   'P 1'
_cell_length_a   12.51775541
_cell_length_b   12.52332474
_cell_length_c   3.88762100
_cell_angle_alpha   90.00000000
_cell_angle_beta   90.00000000
_cell_angle_gamma   120.01472348
_symmetry_Int_Tables_number   1
_chemical_formula_structural   Sm4TmCo4(P4Ru5)3
_chemical_formula_sum   'Sm4 Tm1 Co4 P12 Ru15'
_cell_volume   527.71106724
_cell_formula_units_Z   1
loop_
 _symmetry_equiv_pos_site_id
 _symmetry_equiv_pos_as_xyz
  1  'x, y, z'
loop_
 _atom_site_type_symbol
 _atom_site_label
 _atom_site_symmetry_multiplicity
 _atom_site_fract_x
 _atom_site_fract_y
 _atom_site_fract_z
 _atom_site_occupancy
  Sm  Sm0  1  0.666716  0.333826  0.000000  1
  Sm  Sm1  1  0.333284  0.667112  0.000000  1
  Sm  Sm2  1  0.181985  0.181749  0.500000  1
  Sm  Sm3  1  0.818015  0.999764  0.500000  1
  Tm  Tm4  1  0.000000  0.817449  0.500000  1
  Co  Co5  1  0.720299  0.718977  0.500000  1
  Co  Co6  1  0.279701  0.998679  0.500000  1
  Co  Co7  1  0.000000  0.281779  0.500000  1
  Co  Co8  1  0.000000  0.998412  0.000000  1
  P  P9  1  0.371841  0.371763  0.000000  1
  P  P10  1  0.628159  0.999922  0.000000  1
  P  P11  1  0.000000  0.629794  0.000000  1
  P  P12  1  0.837848  0.311719  0.500000  1
  P  P13  1  0.688935  0.526991  0.500000  1
  P  P14  1  0.472419  0.161446  0.500000  1
  P  P15  1  0.311065  0.838056  0.500000  1
  P  P16  1  0.527581  0.689028  0.500000  1
  P  P17  1  0.162152  0.473871  0.500000  1
  P  P18  1  0.822789  0.820725  0.000000  1
  P  P19  1  0.177211  0.997936  0.000000  1
  P  P20  1  0.000000  0.179547  0.000000  1
  Ru  Ru21  1  0.822001  0.195003  0.000000  1
  Ru  Ru22  1  0.807578  0.629217  0.000000  1
  Ru  Ru23  1  0.371816  0.176600  0.000000  1
  Ru  Ru24  1  0.192422  0.821641  0.000000  1
  Ru  Ru25  1  0.628184  0.804785  0.000000  1
  Ru  Ru26  1  0.177999  0.373003  0.000000  1
  Ru  Ru27  1  0.558087  0.557084  0.000000  1
  Ru  Ru28  1  0.441913  0.998997  0.000000  1
  Ru  Ru29  1  0.000000  0.443502  0.000000  1
  Ru  Ru30  1  0.638008  0.125800  0.500000  1
  Ru  Ru31  1  0.874227  0.513425  0.500000  1
  Ru  Ru32  1  0.486818  0.361114  0.500000  1
  Ru  Ru33  1  0.125773  0.639198  0.500000  1
  Ru  Ru34  1  0.513182  0.874295  0.500000  1
  Ru  Ru35  1  0.361992  0.487791  0.500000  1
