# generated using pymatgen
data_Nd5Y3Si12(IrRh)2
_symmetry_space_group_name_H-M   'P 1'
_cell_length_a   8.23563500
_cell_length_b   8.23563637
_cell_length_c   8.22064100
_cell_angle_alpha   90.00000000
_cell_angle_beta   90.00000000
_cell_angle_gamma   119.99999047
_symmetry_Int_Tables_number   1
_chemical_formula_structural   Nd5Y3Si12(IrRh)2
_chemical_formula_sum   'Nd5 Y3 Si12 Ir2 Rh2'
_cell_volume   482.87042872
_cell_formula_units_Z   1
loop_
 _symmetry_equiv_pos_site_id
 _symmetry_equiv_pos_as_xyz
  1  'x, y, z'
loop_
 _atom_site_type_symbol
 _atom_site_label
 _atom_site_symmetry_multiplicity
 _atom_site_fract_x
 _atom_site_fract_y
 _atom_site_fract_z
 _atom_site_occupancy
  Nd  Nd0  1  0.000000  0.000000  0.248484  1
  Nd  Nd1  1  0.000000  0.000000  0.751350  1
  Nd  Nd2  1  0.506255  0.493745  0.250402  1
  Nd  Nd3  1  0.506255  0.012511  0.250402  1
  Nd  Nd4  1  0.987489  0.493745  0.250402  1
  Y  Y5  1  0.491601  0.508399  0.749579  1
  Y  Y6  1  0.491601  0.983200  0.749579  1
  Y  Y7  1  0.016800  0.508399  0.749579  1
  Si  Si8  1  0.167123  0.832877  0.505453  1
  Si  Si9  1  0.167123  0.334246  0.505453  1
  Si  Si10  1  0.665754  0.832877  0.505453  1
  Si  Si11  1  0.831951  0.168049  0.505018  1
  Si  Si12  1  0.831951  0.663901  0.505018  1
  Si  Si13  1  0.336099  0.168049  0.505018  1
  Si  Si14  1  0.831790  0.168210  0.996350  1
  Si  Si15  1  0.831790  0.663581  0.996350  1
  Si  Si16  1  0.336419  0.168210  0.996350  1
  Si  Si17  1  0.167048  0.832952  0.993493  1
  Si  Si18  1  0.167048  0.334095  0.993493  1
  Si  Si19  1  0.665905  0.832952  0.993493  1
  Ir  Ir20  1  0.333333  0.666667  0.487130  1
  Ir  Ir21  1  0.666667  0.333333  0.538604  1
  Rh  Rh22  1  0.666667  0.333333  0.954127  1
  Rh  Rh23  1  0.333333  0.666667  0.019417  1
