# generated using pymatgen
data_Tb4Ga18(OsPd)3
_symmetry_space_group_name_H-M   'P 1'
_cell_length_a   7.63132083
_cell_length_b   7.63132044
_cell_length_c   9.58350637
_cell_angle_alpha   89.91160569
_cell_angle_beta   89.91160729
_cell_angle_gamma   119.88644821
_symmetry_Int_Tables_number   1
_chemical_formula_structural   Tb4Ga18(OsPd)3
_chemical_formula_sum   'Tb4 Ga18 Os3 Pd3'
_cell_volume   483.89173329
_cell_formula_units_Z   1
loop_
 _symmetry_equiv_pos_site_id
 _symmetry_equiv_pos_as_xyz
  1  'x, y, z'
loop_
 _atom_site_type_symbol
 _atom_site_label
 _atom_site_symmetry_multiplicity
 _atom_site_fract_x
 _atom_site_fract_y
 _atom_site_fract_z
 _atom_site_occupancy
  Tb  Tb0  1  0.995587  0.668448  0.252260  1
  Tb  Tb1  1  0.002817  0.330506  0.746815  1
  Tb  Tb2  1  0.669494  0.997183  0.253185  1
  Tb  Tb3  1  0.331552  0.004413  0.747740  1
  Ga  Ga4  1  0.132084  0.129378  0.250237  1
  Ga  Ga5  1  0.870622  0.867916  0.749763  1
  Ga  Ga6  1  0.004789  0.337453  0.080305  1
  Ga  Ga7  1  0.002149  0.664914  0.919276  1
  Ga  Ga8  1  0.999968  0.661322  0.578012  1
  Ga  Ga9  1  0.338678  0.000032  0.421988  1
  Ga  Ga10  1  0.001001  0.338825  0.420877  1
  Ga  Ga11  1  0.661175  0.998999  0.579123  1
  Ga  Ga12  1  0.662547  0.995211  0.919695  1
  Ga  Ga13  1  0.335086  0.997851  0.080724  1
  Ga  Ga14  1  0.339600  0.339136  0.563320  1
  Ga  Ga15  1  0.660864  0.660400  0.436680  1
  Ga  Ga16  1  0.661159  0.665966  0.068385  1
  Ga  Ga17  1  0.334034  0.338841  0.931615  1
  Ga  Ga18  1  0.336756  0.550347  0.250857  1
  Ga  Ga19  1  0.665721  0.455355  0.747458  1
  Ga  Ga20  1  0.544645  0.334279  0.252542  1
  Ga  Ga21  1  0.449653  0.663244  0.749143  1
  Os  Os22  1  0.327380  0.672620  0.000000  1
  Os  Os23  1  0.327296  0.672704  0.500000  1
  Os  Os24  1  0.672911  0.327089  0.500000  1
  Pd  Pd25  1  0.671707  0.328293  0.000000  1
  Pd  Pd26  1  0.001081  0.998919  0.000000  1
  Pd  Pd27  1  0.999648  0.000352  0.500000  1
