# generated using pymatgen
data_Tb2YSn3GeIr2
_symmetry_space_group_name_H-M   'P 1'
_cell_length_a   7.41542900
_cell_length_b   7.41443352
_cell_length_c   4.18711900
_cell_angle_alpha   90.00000000
_cell_angle_beta   90.00000000
_cell_angle_gamma   120.00389887
_symmetry_Int_Tables_number   1
_chemical_formula_structural   Tb2YSn3GeIr2
_chemical_formula_sum   'Tb2 Y1 Sn3 Ge1 Ir2'
_cell_volume   199.36234276
_cell_formula_units_Z   1
loop_
 _symmetry_equiv_pos_site_id
 _symmetry_equiv_pos_as_xyz
  1  'x, y, z'
loop_
 _atom_site_type_symbol
 _atom_site_label
 _atom_site_symmetry_multiplicity
 _atom_site_fract_x
 _atom_site_fract_y
 _atom_site_fract_z
 _atom_site_occupancy
  Tb  Tb0  1  0.987405  0.586633  0.000000  1
  Tb  Tb1  1  0.413360  0.400730  0.000000  1
  Y  Y2  1  0.599296  0.012562  0.000000  1
  Sn  Sn3  1  0.257897  0.013779  0.500000  1
  Sn  Sn4  1  0.986092  0.243988  0.500000  1
  Sn  Sn5  1  0.755937  0.742165  0.500000  1
  Ge  Ge6  1  0.333358  0.666757  0.500000  1
  Ir  Ir7  1  0.666660  0.333428  0.500000  1
  Ir  Ir8  1  0.999993  0.999960  0.000000  1
