# generated using pymatgen
data_Ca5Tb2YbBi6
_symmetry_space_group_name_H-M   'P 1'
_cell_length_a   8.31084644
_cell_length_b   8.31298794
_cell_length_c   8.39286152
_cell_angle_alpha   109.53974770
_cell_angle_beta   109.53066217
_cell_angle_gamma   109.05976786
_symmetry_Int_Tables_number   1
_chemical_formula_structural   Ca5Tb2YbBi6
_chemical_formula_sum   'Ca5 Tb2 Yb1 Bi6'
_cell_volume   447.91257867
_cell_formula_units_Z   1
loop_
 _symmetry_equiv_pos_site_id
 _symmetry_equiv_pos_as_xyz
  1  'x, y, z'
loop_
 _atom_site_type_symbol
 _atom_site_label
 _atom_site_symmetry_multiplicity
 _atom_site_fract_x
 _atom_site_fract_y
 _atom_site_fract_z
 _atom_site_occupancy
  Ca  Ca0  1  0.500193  0.002515  0.355122  1
  Ca  Ca1  1  0.502584  0.000326  0.855192  1
  Ca  Ca2  1  0.645301  0.644525  0.647597  1
  Ca  Ca3  1  0.997474  0.354631  0.497584  1
  Ca  Ca4  1  0.144613  0.145272  0.147556  1
  Tb  Tb5  1  0.999390  0.856085  0.499334  1
  Tb  Tb6  1  0.356232  0.499459  0.999549  1
  Yb  Yb7  1  0.854714  0.497547  0.997679  1
  Bi  Bi8  1  0.126676  0.748368  0.871664  1
  Bi  Bi9  1  0.882196  0.124837  0.750818  1
  Bi  Bi10  1  0.624702  0.382305  0.250537  1
  Bi  Bi11  1  0.369979  0.247760  0.628149  1
  Bi  Bi12  1  0.747657  0.869578  0.127848  1
  Bi  Bi13  1  0.248286  0.626791  0.371370  1
