# generated using pymatgen
data_Li2Tb8Hf10Si15Ge
_symmetry_space_group_name_H-M   'P 1'
_cell_length_a   7.31606574
_cell_length_b   7.32424708
_cell_length_c   13.24410707
_cell_angle_alpha   89.92225346
_cell_angle_beta   90.00385440
_cell_angle_gamma   89.66104100
_symmetry_Int_Tables_number   1
_chemical_formula_structural   Li2Tb8Hf10Si15Ge
_chemical_formula_sum   'Li2 Tb8 Hf10 Si15 Ge1'
_cell_volume   709.66807445
_cell_formula_units_Z   1
loop_
 _symmetry_equiv_pos_site_id
 _symmetry_equiv_pos_as_xyz
  1  'x, y, z'
loop_
 _atom_site_type_symbol
 _atom_site_label
 _atom_site_symmetry_multiplicity
 _atom_site_fract_x
 _atom_site_fract_y
 _atom_site_fract_z
 _atom_site_occupancy
  Li  Li0  1  0.177230  0.177490  0.000021  1
  Li  Li1  1  0.822068  0.823436  0.500299  1
  Tb  Tb2  1  0.996774  0.344998  0.212320  1
  Tb  Tb3  1  0.002283  0.654890  0.712924  1
  Tb  Tb4  1  0.148683  0.503727  0.467097  1
  Tb  Tb5  1  0.499518  0.848558  0.033477  1
  Tb  Tb6  1  0.849380  0.498431  0.965664  1
  Tb  Tb7  1  0.502255  0.149951  0.535052  1
  Tb  Tb8  1  0.344956  0.997861  0.787290  1
  Tb  Tb9  1  0.655583  0.001316  0.286841  1
  Hf  Hf10  1  0.321953  0.680542  0.249442  1
  Hf  Hf11  1  0.678272  0.321678  0.750051  1
  Hf  Hf12  1  0.140857  0.997000  0.378059  1
  Hf  Hf13  1  0.858313  0.001376  0.878299  1
  Hf  Hf14  1  0.508984  0.645074  0.623411  1
  Hf  Hf15  1  0.354842  0.490718  0.876575  1
  Hf  Hf16  1  0.490412  0.354512  0.122056  1
  Hf  Hf17  1  0.648052  0.512188  0.377876  1
  Hf  Hf18  1  0.998448  0.141777  0.621871  1
  Hf  Hf19  1  0.000787  0.857496  0.121028  1
  Si  Si20  1  0.639233  0.704480  0.818847  1
  Si  Si21  1  0.222028  0.866429  0.571911  1
  Si  Si22  1  0.134332  0.777640  0.927737  1
  Si  Si23  1  0.777889  0.134198  0.071709  1
  Si  Si24  1  0.865999  0.221853  0.428075  1
  Si  Si25  1  0.295201  0.360997  0.681018  1
  Si  Si26  1  0.703844  0.638572  0.181175  1
  Si  Si27  1  0.293701  0.048827  0.187870  1
  Si  Si28  1  0.706311  0.947760  0.690124  1
  Si  Si29  1  0.436777  0.790757  0.435424  1
  Si  Si30  1  0.209638  0.562830  0.064411  1
  Si  Si31  1  0.563225  0.209614  0.935245  1
  Si  Si32  1  0.789811  0.436197  0.564969  1
  Si  Si33  1  0.051524  0.293916  0.810126  1
  Si  Si34  1  0.948969  0.705545  0.309606  1
  Ge  Ge35  1  0.361866  0.297364  0.322098  1
