# generated using pymatgen
data_Nd3ErTh6(Si3C)2
_symmetry_space_group_name_H-M   'P 1'
_cell_length_a   8.83589000
_cell_length_b   8.83589069
_cell_length_c   6.42338200
_cell_angle_alpha   90.00000000
_cell_angle_beta   90.00000000
_cell_angle_gamma   119.99999742
_symmetry_Int_Tables_number   1
_chemical_formula_structural   Nd3ErTh6(Si3C)2
_chemical_formula_sum   'Nd3 Er1 Th6 Si6 C2'
_cell_volume   434.30519913
_cell_formula_units_Z   1
loop_
 _symmetry_equiv_pos_site_id
 _symmetry_equiv_pos_as_xyz
  1  'x, y, z'
loop_
 _atom_site_type_symbol
 _atom_site_label
 _atom_site_symmetry_multiplicity
 _atom_site_fract_x
 _atom_site_fract_y
 _atom_site_fract_z
 _atom_site_occupancy
  Nd  Nd0  1  0.666667  0.333333  0.000000  1
  Nd  Nd1  1  0.333333  0.666667  0.000000  1
  Nd  Nd2  1  0.333333  0.666667  0.500000  1
  Er  Er3  1  0.666667  0.333333  0.500000  1
  Th  Th4  1  0.768941  0.768828  0.749252  1
  Th  Th5  1  0.231172  0.000113  0.749252  1
  Th  Th6  1  0.999887  0.231059  0.749252  1
  Th  Th7  1  0.231172  0.231059  0.250748  1
  Th  Th8  1  0.768941  0.000113  0.250748  1
  Th  Th9  1  0.999887  0.768828  0.250748  1
  Si  Si10  1  0.401288  0.396813  0.744091  1
  Si  Si11  1  0.603187  0.004475  0.744091  1
  Si  Si12  1  0.995525  0.598712  0.744091  1
  Si  Si13  1  0.603187  0.598712  0.255909  1
  Si  Si14  1  0.401288  0.004475  0.255909  1
  Si  Si15  1  0.995525  0.396813  0.255909  1
  C  C16  1  0.000000  0.000000  0.000000  1
  C  C17  1  0.000000  0.000000  0.500000  1
