# generated using pymatgen
data_La3Pr5(DyIr2)2
_symmetry_space_group_name_H-M   'P 1'
_cell_length_a   6.69658738
_cell_length_b   7.28698545
_cell_length_c   9.05858484
_cell_angle_alpha   96.24389240
_cell_angle_beta   111.65072830
_cell_angle_gamma   89.65414663
_symmetry_Int_Tables_number   1
_chemical_formula_structural   La3Pr5(DyIr2)2
_chemical_formula_sum   'La3 Pr5 Dy2 Ir4'
_cell_volume   408.13905784
_cell_formula_units_Z   1
loop_
 _symmetry_equiv_pos_site_id
 _symmetry_equiv_pos_as_xyz
  1  'x, y, z'
loop_
 _atom_site_type_symbol
 _atom_site_label
 _atom_site_symmetry_multiplicity
 _atom_site_fract_x
 _atom_site_fract_y
 _atom_site_fract_z
 _atom_site_occupancy
  La  La0  1  0.795452  0.081093  0.814526  1
  La  La1  1  0.978619  0.418900  0.182591  1
  La  La2  1  0.203392  0.917420  0.183034  1
  Pr  Pr3  1  0.023788  0.576606  0.816696  1
  Pr  Pr4  1  0.214573  0.186878  0.570755  1
  Pr  Pr5  1  0.643135  0.313919  0.428658  1
  Pr  Pr6  1  0.784996  0.813533  0.430212  1
  Pr  Pr7  1  0.356108  0.686685  0.573133  1
  Dy  Dy8  1  0.437423  0.250891  0.000275  1
  Dy  Dy9  1  0.562173  0.749689  0.999396  1
  Ir  Ir10  1  0.600732  0.426673  0.791519  1
  Ir  Ir11  1  0.812703  0.073716  0.210778  1
  Ir  Ir12  1  0.396499  0.573720  0.208398  1
  Ir  Ir13  1  0.190406  0.930278  0.790029  1
