# generated using pymatgen
data_Ta4Nb4CrNiTe8
_symmetry_space_group_name_H-M   'P 1'
_cell_length_a   4.86290100
_cell_length_b   10.93804400
_cell_length_c   19.19355200
_cell_angle_alpha   90.00000000
_cell_angle_beta   90.00000000
_cell_angle_gamma   90.00000000
_symmetry_Int_Tables_number   1
_chemical_formula_structural   Ta4Nb4CrNiTe8
_chemical_formula_sum   'Ta8 Nb8 Cr2 Ni2 Te16'
_cell_volume   1020.91702888
_cell_formula_units_Z   2
loop_
 _symmetry_equiv_pos_site_id
 _symmetry_equiv_pos_as_xyz
  1  'x, y, z'
loop_
 _atom_site_type_symbol
 _atom_site_label
 _atom_site_symmetry_multiplicity
 _atom_site_fract_x
 _atom_site_fract_y
 _atom_site_fract_z
 _atom_site_occupancy
  Ta  Ta0  1  0.997484  0.689370  0.443612  1
  Ta  Ta1  1  0.997484  0.310630  0.556388  1
  Ta  Ta2  1  0.002516  0.189370  0.056388  1
  Ta  Ta3  1  0.002516  0.810630  0.943612  1
  Ta  Ta4  1  0.998499  0.401511  0.392448  1
  Ta  Ta5  1  0.998499  0.598489  0.607552  1
  Ta  Ta6  1  0.001501  0.901511  0.107552  1
  Ta  Ta7  1  0.001501  0.098489  0.892448  1
  Nb  Nb8  1  0.500141  0.564280  0.383810  1
  Nb  Nb9  1  0.500141  0.435720  0.616190  1
  Nb  Nb10  1  0.499859  0.064280  0.116190  1
  Nb  Nb11  1  0.499859  0.935720  0.883810  1
  Nb  Nb12  1  0.500167  0.704536  0.536510  1
  Nb  Nb13  1  0.500167  0.295464  0.463490  1
  Nb  Nb14  1  0.499833  0.204536  0.963490  1
  Nb  Nb15  1  0.499833  0.795464  0.036510  1
  Cr  Cr16  1  0.255084  0.500000  0.500000  1
  Cr  Cr17  1  0.744916  0.000000  0.000000  1
  Ni  Ni18  1  0.756710  0.500000  0.500000  1
  Ni  Ni19  1  0.243290  0.000000  0.000000  1
  Te  Te20  1  0.997234  0.847569  0.562257  1
  Te  Te21  1  0.997234  0.152431  0.437743  1
  Te  Te22  1  0.002766  0.347569  0.937743  1
  Te  Te23  1  0.002766  0.652431  0.062257  1
  Te  Te24  1  0.501111  0.331513  0.315949  1
  Te  Te25  1  0.501111  0.668487  0.684051  1
  Te  Te26  1  0.498889  0.831513  0.184051  1
  Te  Te27  1  0.498889  0.168487  0.815949  1
  Te  Te28  1  0.500619  0.824110  0.403797  1
  Te  Te29  1  0.500619  0.175890  0.596203  1
  Te  Te30  1  0.499381  0.324110  0.096203  1
  Te  Te31  1  0.499381  0.675890  0.903797  1
  Te  Te32  1  0.996871  0.608958  0.302149  1
  Te  Te33  1  0.996871  0.391042  0.697851  1
  Te  Te34  1  0.003129  0.108958  0.197851  1
  Te  Te35  1  0.003129  0.891042  0.802149  1
