# generated using pymatgen
data_Pr2PPt8
_symmetry_space_group_name_H-M   'P 1'
_cell_length_a   9.21702436
_cell_length_b   9.21702300
_cell_length_c   4.31934500
_cell_angle_alpha   90.00000000
_cell_angle_beta   90.00000000
_cell_angle_gamma   145.60251265
_symmetry_Int_Tables_number   1
_chemical_formula_structural   Pr2PPt8
_chemical_formula_sum   'Pr2 P1 Pt8'
_cell_volume   207.29774029
_cell_formula_units_Z   1
loop_
 _symmetry_equiv_pos_site_id
 _symmetry_equiv_pos_as_xyz
  1  'x, y, z'
loop_
 _atom_site_type_symbol
 _atom_site_label
 _atom_site_symmetry_multiplicity
 _atom_site_fract_x
 _atom_site_fract_y
 _atom_site_fract_z
 _atom_site_occupancy
  Pr  Pr0  1  0.618134  0.371651  0.500000  1
  Pr  Pr1  1  0.371651  0.618134  0.500000  1
  P  P2  1  0.224187  0.224187  0.000000  1
  Pt  Pt3  1  0.110810  0.891095  0.000000  1
  Pt  Pt4  1  0.891095  0.110810  0.000000  1
  Pt  Pt5  1  0.489883  0.985138  0.000000  1
  Pt  Pt6  1  0.985138  0.489883  0.000000  1
  Pt  Pt7  1  0.194263  0.791780  0.500000  1
  Pt  Pt8  1  0.791780  0.194263  0.500000  1
  Pt  Pt9  1  0.003394  0.003394  0.500000  1
  Pt  Pt10  1  0.633262  0.633262  0.000000  1
