# generated using pymatgen
data_Y4Be4SiIr9
_symmetry_space_group_name_H-M   'P 1'
_cell_length_a   5.47790500
_cell_length_b   5.47790485
_cell_length_c   21.67911400
_cell_angle_alpha   90.00000000
_cell_angle_beta   90.00000000
_cell_angle_gamma   119.99999489
_symmetry_Int_Tables_number   1
_chemical_formula_structural   Y4Be4SiIr9
_chemical_formula_sum   'Y8 Be8 Si2 Ir18'
_cell_volume   563.37966016
_cell_formula_units_Z   2
loop_
 _symmetry_equiv_pos_site_id
 _symmetry_equiv_pos_as_xyz
  1  'x, y, z'
loop_
 _atom_site_type_symbol
 _atom_site_label
 _atom_site_symmetry_multiplicity
 _atom_site_fract_x
 _atom_site_fract_y
 _atom_site_fract_z
 _atom_site_occupancy
  Y  Y0  1  0.333333  0.666667  0.527148  1
  Y  Y1  1  0.666667  0.333333  0.472852  1
  Y  Y2  1  0.666667  0.333333  0.027148  1
  Y  Y3  1  0.333333  0.666667  0.972852  1
  Y  Y4  1  0.333333  0.666667  0.674644  1
  Y  Y5  1  0.666667  0.333333  0.325356  1
  Y  Y6  1  0.666667  0.333333  0.174644  1
  Y  Y7  1  0.333333  0.666667  0.825356  1
  Be  Be8  1  0.333333  0.666667  0.171198  1
  Be  Be9  1  0.666667  0.333333  0.828802  1
  Be  Be10  1  0.666667  0.333333  0.671198  1
  Be  Be11  1  0.333333  0.666667  0.328802  1
  Be  Be12  1  0.000000  0.000000  0.169387  1
  Be  Be13  1  0.000000  0.000000  0.830613  1
  Be  Be14  1  0.000000  0.000000  0.669387  1
  Be  Be15  1  0.000000  0.000000  0.330613  1
  Si  Si16  1  0.000000  0.000000  0.000000  1
  Si  Si17  1  0.000000  0.000000  0.500000  1
  Ir  Ir18  1  0.167962  0.335923  0.090484  1
  Ir  Ir19  1  0.832038  0.664077  0.909516  1
  Ir  Ir20  1  0.664077  0.832038  0.090484  1
  Ir  Ir21  1  0.832038  0.664077  0.590484  1
  Ir  Ir22  1  0.335923  0.167962  0.909516  1
  Ir  Ir23  1  0.167962  0.335923  0.409516  1
  Ir  Ir24  1  0.167962  0.832038  0.090484  1
  Ir  Ir25  1  0.335923  0.167962  0.590484  1
  Ir  Ir26  1  0.832038  0.167962  0.909516  1
  Ir  Ir27  1  0.664077  0.832038  0.409516  1
  Ir  Ir28  1  0.832038  0.167962  0.590484  1
  Ir  Ir29  1  0.167962  0.832038  0.409516  1
  Ir  Ir30  1  0.165910  0.331819  0.250000  1
  Ir  Ir31  1  0.834090  0.668181  0.750000  1
  Ir  Ir32  1  0.668181  0.834090  0.250000  1
  Ir  Ir33  1  0.331819  0.165910  0.750000  1
  Ir  Ir34  1  0.165910  0.834090  0.250000  1
  Ir  Ir35  1  0.834090  0.165910  0.750000  1
