# generated using pymatgen
data_Ca3(B3Ir4)2
_symmetry_space_group_name_H-M   'P 1'
_cell_length_a   9.90609038
_cell_length_b   9.03181339
_cell_length_c   5.67120014
_cell_angle_alpha   81.23775131
_cell_angle_beta   64.30337357
_cell_angle_gamma   34.45887594
_symmetry_Int_Tables_number   1
_chemical_formula_structural   Ca3(B3Ir4)2
_chemical_formula_sum   'Ca3 B6 Ir8'
_cell_volume   236.82806082
_cell_formula_units_Z   1
loop_
 _symmetry_equiv_pos_site_id
 _symmetry_equiv_pos_as_xyz
  1  'x, y, z'
loop_
 _atom_site_type_symbol
 _atom_site_label
 _atom_site_symmetry_multiplicity
 _atom_site_fract_x
 _atom_site_fract_y
 _atom_site_fract_z
 _atom_site_occupancy
  Ca  Ca0  1  0.319578  0.319578  0.680422  1
  Ca  Ca1  1  0.680422  0.680422  0.319578  1
  Ca  Ca2  1  0.500000  0.500000  0.500000  1
  B  B3  1  0.669677  0.986516  0.013484  1
  B  B4  1  0.986516  0.669677  0.330323  1
  B  B5  1  0.330323  0.013484  0.986516  1
  B  B6  1  0.013484  0.330323  0.669677  1
  B  B7  1  0.167551  0.832449  0.167551  1
  B  B8  1  0.832449  0.167551  0.832449  1
  Ir  Ir9  1  0.584699  0.584699  0.915301  1
  Ir  Ir10  1  0.913365  0.913365  0.086635  1
  Ir  Ir11  1  0.415301  0.415301  0.084699  1
  Ir  Ir12  1  0.084699  0.084699  0.415301  1
  Ir  Ir13  1  0.915301  0.915301  0.584699  1
  Ir  Ir14  1  0.250000  0.250000  0.250000  1
  Ir  Ir15  1  0.086635  0.086635  0.913365  1
  Ir  Ir16  1  0.750000  0.750000  0.750000  1
