# generated using pymatgen
data_Li2N13
_symmetry_space_group_name_H-M   'P 1'
_cell_length_a   9.41494306
_cell_length_b   5.37860856
_cell_length_c   6.69218957
_cell_angle_alpha   76.23658734
_cell_angle_beta   70.94370786
_cell_angle_gamma   95.36287418
_symmetry_Int_Tables_number   1
_chemical_formula_structural   Li2N13
_chemical_formula_sum   'Li2 N13'
_cell_volume   305.66502547
_cell_formula_units_Z   1
loop_
 _symmetry_equiv_pos_site_id
 _symmetry_equiv_pos_as_xyz
  1  'x, y, z'
loop_
 _atom_site_type_symbol
 _atom_site_label
 _atom_site_symmetry_multiplicity
 _atom_site_fract_x
 _atom_site_fract_y
 _atom_site_fract_z
 _atom_site_occupancy
  Li  Li0  1  0.767025  0.195121  0.583773  1
  Li  Li1  1  0.002682  0.665310  0.102897  1
  N  N2  1  0.411870  0.195956  0.588626  1
  N  N3  1  0.022126  0.137780  0.232140  1
  N  N4  1  0.957890  0.299404  0.298973  1
  N  N5  1  0.440038  0.552076  0.115180  1
  N  N6  1  0.528028  0.179986  0.595511  1
  N  N7  1  0.177611  0.632415  0.595530  1
  N  N8  1  0.734533  0.790701  0.587516  1
  N  N9  1  0.085589  0.979000  0.167643  1
  N  N10  1  0.117718  0.636875  0.768422  1
  N  N11  1  0.796263  0.999803  0.886010  1
  N  N12  1  0.751248  0.579642  0.624091  1
  N  N13  1  0.841161  0.846488  0.985694  1
  N  N14  1  0.339340  0.562329  0.063231  1
