# generated using pymatgen
data_YbEu5(SiIr)4
_symmetry_space_group_name_H-M   'P 1'
_cell_length_a   5.83708362
_cell_length_b   5.83708250
_cell_length_c   13.17638500
_cell_angle_alpha   90.00000000
_cell_angle_beta   90.00000000
_cell_angle_gamma   137.20699502
_symmetry_Int_Tables_number   1
_chemical_formula_structural   YbEu5(SiIr)4
_chemical_formula_sum   'Yb1 Eu5 Si4 Ir4'
_cell_volume   304.98796531
_cell_formula_units_Z   1
loop_
 _symmetry_equiv_pos_site_id
 _symmetry_equiv_pos_as_xyz
  1  'x, y, z'
loop_
 _atom_site_type_symbol
 _atom_site_label
 _atom_site_symmetry_multiplicity
 _atom_site_fract_x
 _atom_site_fract_y
 _atom_site_fract_z
 _atom_site_occupancy
  Yb  Yb0  1  0.477568  0.522432  0.750000  1
  Eu  Eu1  1  0.765946  0.234054  0.608147  1
  Eu  Eu2  1  0.528198  0.471802  0.250000  1
  Eu  Eu3  1  0.233946  0.766054  0.395400  1
  Eu  Eu4  1  0.765946  0.234054  0.891853  1
  Eu  Eu5  1  0.233946  0.766054  0.104600  1
  Si  Si6  1  0.055944  0.944056  0.586397  1
  Si  Si7  1  0.055944  0.944056  0.913603  1
  Si  Si8  1  0.942607  0.057393  0.416170  1
  Si  Si9  1  0.942607  0.057393  0.083830  1
  Ir  Ir10  1  0.840501  0.159499  0.250000  1
  Ir  Ir11  1  0.157450  0.842550  0.750000  1
  Ir  Ir12  1  0.499699  0.500301  0.997871  1
  Ir  Ir13  1  0.499699  0.500301  0.502129  1
