# generated using pymatgen
data_CeNd2(HgAu)3
_symmetry_space_group_name_H-M   'P 1'
_cell_length_a   8.06743952
_cell_length_b   8.02386658
_cell_length_c   3.88957000
_cell_angle_alpha   90.00000000
_cell_angle_beta   90.00000000
_cell_angle_gamma   119.82149291
_symmetry_Int_Tables_number   1
_chemical_formula_structural   CeNd2(HgAu)3
_chemical_formula_sum   'Ce1 Nd2 Hg3 Au3'
_cell_volume   218.43892138
_cell_formula_units_Z   1
loop_
 _symmetry_equiv_pos_site_id
 _symmetry_equiv_pos_as_xyz
  1  'x, y, z'
loop_
 _atom_site_type_symbol
 _atom_site_label
 _atom_site_symmetry_multiplicity
 _atom_site_fract_x
 _atom_site_fract_y
 _atom_site_fract_z
 _atom_site_occupancy
  Ce  Ce0  1  0.000000  0.599344  0.500000  1
  Nd  Nd1  1  0.399188  0.400388  0.500000  1
  Nd  Nd2  1  0.600812  0.001200  0.500000  1
  Hg  Hg3  1  0.728256  0.730300  0.000000  1
  Hg  Hg4  1  0.271744  0.002044  0.000000  1
  Hg  Hg5  1  0.000000  0.267509  0.000000  1
  Au  Au6  1  0.670170  0.336347  0.000000  1
  Au  Au7  1  0.329830  0.666178  0.000000  1
  Au  Au8  1  0.000000  0.996689  0.500000  1
