# generated using pymatgen
data_YbCe5(TaSb5)2
_symmetry_space_group_name_H-M   'P 1'
_cell_length_a   9.36977500
_cell_length_b   9.33029044
_cell_length_c   6.21584200
_cell_angle_alpha   90.00000000
_cell_angle_beta   90.00000000
_cell_angle_gamma   120.14007745
_symmetry_Int_Tables_number   1
_chemical_formula_structural   YbCe5(TaSb5)2
_chemical_formula_sum   'Yb1 Ce5 Ta2 Sb10'
_cell_volume   469.93758282
_cell_formula_units_Z   1
loop_
 _symmetry_equiv_pos_site_id
 _symmetry_equiv_pos_as_xyz
  1  'x, y, z'
loop_
 _atom_site_type_symbol
 _atom_site_label
 _atom_site_symmetry_multiplicity
 _atom_site_fract_x
 _atom_site_fract_y
 _atom_site_fract_z
 _atom_site_occupancy
  Yb  Yb0  1  0.618792  0.000000  0.250000  1
  Ce  Ce1  1  0.384851  0.000000  0.750000  1
  Ce  Ce2  1  0.000936  0.618904  0.250000  1
  Ce  Ce3  1  0.997377  0.378525  0.750000  1
  Ce  Ce4  1  0.382031  0.381096  0.250000  1
  Ce  Ce5  1  0.618851  0.621475  0.750000  1
  Ta  Ta6  1  0.998488  0.000000  0.005987  1
  Ta  Ta7  1  0.998488  0.000000  0.494013  1
  Sb  Sb8  1  0.263225  0.000000  0.250000  1
  Sb  Sb9  1  0.740923  0.000000  0.750000  1
  Sb  Sb10  1  0.001257  0.264023  0.250000  1
  Sb  Sb11  1  0.000265  0.740233  0.750000  1
  Sb  Sb12  1  0.737234  0.735977  0.250000  1
  Sb  Sb13  1  0.260032  0.259767  0.750000  1
  Sb  Sb14  1  0.331820  0.665015  0.000227  1
  Sb  Sb15  1  0.666805  0.334985  0.000227  1
  Sb  Sb16  1  0.666805  0.334985  0.499773  1
  Sb  Sb17  1  0.331820  0.665015  0.499773  1
