# generated using pymatgen
data_Er2Be(SiMo)3
_symmetry_space_group_name_H-M   'P 1'
_cell_length_a   6.69211800
_cell_length_b   6.80726300
_cell_length_c   12.87696900
_cell_angle_alpha   90.00000000
_cell_angle_beta   90.00000000
_cell_angle_gamma   90.00000000
_symmetry_Int_Tables_number   1
_chemical_formula_structural   Er2Be(SiMo)3
_chemical_formula_sum   'Er8 Be4 Si12 Mo12'
_cell_volume   586.61041619
_cell_formula_units_Z   4
loop_
 _symmetry_equiv_pos_site_id
 _symmetry_equiv_pos_as_xyz
  1  'x, y, z'
loop_
 _atom_site_type_symbol
 _atom_site_label
 _atom_site_symmetry_multiplicity
 _atom_site_fract_x
 _atom_site_fract_y
 _atom_site_fract_z
 _atom_site_occupancy
  Er  Er0  1  0.500961  0.333344  0.096013  1
  Er  Er1  1  0.000961  0.166656  0.403987  1
  Er  Er2  1  0.499039  0.666656  0.596013  1
  Er  Er3  1  0.999039  0.833344  0.903987  1
  Er  Er4  1  0.499039  0.666656  0.903987  1
  Er  Er5  1  0.999039  0.833344  0.596013  1
  Er  Er6  1  0.500961  0.333344  0.403987  1
  Er  Er7  1  0.000961  0.166656  0.096013  1
  Be  Be8  1  0.543313  0.368018  0.750000  1
  Be  Be9  1  0.043313  0.131982  0.750000  1
  Be  Be10  1  0.456687  0.631982  0.250000  1
  Be  Be11  1  0.956687  0.868018  0.250000  1
  Si  Si12  1  0.661161  0.042987  0.543202  1
  Si  Si13  1  0.161161  0.457013  0.956798  1
  Si  Si14  1  0.338839  0.957013  0.043202  1
  Si  Si15  1  0.838839  0.542987  0.456798  1
  Si  Si16  1  0.338839  0.957013  0.456798  1
  Si  Si17  1  0.838839  0.542987  0.043202  1
  Si  Si18  1  0.661161  0.042987  0.956798  1
  Si  Si19  1  0.161161  0.457013  0.543202  1
  Si  Si20  1  0.794710  0.620145  0.750000  1
  Si  Si21  1  0.294710  0.879855  0.750000  1
  Si  Si22  1  0.205290  0.379855  0.250000  1
  Si  Si23  1  0.705290  0.120145  0.250000  1
  Mo  Mo24  1  0.838454  0.328195  0.628153  1
  Mo  Mo25  1  0.338454  0.171805  0.871847  1
  Mo  Mo26  1  0.161546  0.671805  0.128153  1
  Mo  Mo27  1  0.661546  0.828195  0.371847  1
  Mo  Mo28  1  0.161546  0.671805  0.371847  1
  Mo  Mo29  1  0.661546  0.828195  0.128153  1
  Mo  Mo30  1  0.838454  0.328195  0.871847  1
  Mo  Mo31  1  0.338454  0.171805  0.628153  1
  Mo  Mo32  1  0.665231  0.013594  0.750000  1
  Mo  Mo33  1  0.165231  0.486406  0.750000  1
  Mo  Mo34  1  0.334769  0.986406  0.250000  1
  Mo  Mo35  1  0.834769  0.513594  0.250000  1
