# generated using pymatgen
data_Dy5Tm2GeP11Ir17
_symmetry_space_group_name_H-M   'P 1'
_cell_length_a   12.76206055
_cell_length_b   13.04350810
_cell_length_c   3.99031700
_cell_angle_alpha   90.00000000
_cell_angle_beta   90.00000000
_cell_angle_gamma   119.47305535
_symmetry_Int_Tables_number   1
_chemical_formula_structural   Dy5Tm2GeP11Ir17
_chemical_formula_sum   'Dy5 Tm2 Ge1 P11 Ir17'
_cell_volume   578.27561033
_cell_formula_units_Z   1
loop_
 _symmetry_equiv_pos_site_id
 _symmetry_equiv_pos_as_xyz
  1  'x, y, z'
loop_
 _atom_site_type_symbol
 _atom_site_label
 _atom_site_symmetry_multiplicity
 _atom_site_fract_x
 _atom_site_fract_y
 _atom_site_fract_z
 _atom_site_occupancy
  Dy  Dy0  1  0.330906  0.662640  0.500000  1
  Dy  Dy1  1  0.668873  0.337733  0.500000  1
  Dy  Dy2  1  0.002166  0.819453  0.000000  1
  Dy  Dy3  1  0.185944  0.182389  0.000000  1
  Dy  Dy4  1  0.809436  0.000229  0.000000  1
  Tm  Tm5  1  0.997189  0.438925  0.500000  1
  Tm  Tm6  1  0.549598  0.557359  0.500000  1
  Ge  Ge7  1  0.004752  0.652099  0.500000  1
  P  P8  1  0.352800  0.342189  0.500000  1
  P  P9  1  0.643035  0.000195  0.500000  1
  P  P10  1  0.515935  0.692303  0.000000  1
  P  P11  1  0.307007  0.820553  0.000000  1
  P  P12  1  0.167993  0.478819  0.000000  1
  P  P13  1  0.485576  0.177428  0.000000  1
  P  P14  1  0.686935  0.519675  0.000000  1
  P  P15  1  0.826084  0.310455  0.000000  1
  P  P16  1  0.999264  0.173508  0.500000  1
  P  P17  1  0.823602  0.825491  0.500000  1
  P  P18  1  0.183046  0.000067  0.500000  1
  Ir  Ir19  1  0.504128  0.868132  0.000000  1
  Ir  Ir20  1  0.128540  0.640398  0.000000  1
  Ir  Ir21  1  0.358830  0.501915  0.000000  1
  Ir  Ir22  1  0.475731  0.354760  0.000000  1
  Ir  Ir23  1  0.859949  0.502562  0.000000  1
  Ir  Ir24  1  0.638316  0.135108  0.000000  1
  Ir  Ir25  1  0.464736  0.002273  0.500000  1
  Ir  Ir26  1  0.996251  0.270613  0.000000  1
  Ir  Ir27  1  0.723277  0.731793  0.000000  1
  Ir  Ir28  1  0.290683  0.001939  0.000000  1
  Ir  Ir29  1  0.622503  0.811742  0.500000  1
  Ir  Ir30  1  0.214911  0.833120  0.500000  1
  Ir  Ir31  1  0.181282  0.362857  0.500000  1
  Ir  Ir32  1  0.381387  0.172370  0.500000  1
  Ir  Ir33  1  0.802732  0.631671  0.500000  1
  Ir  Ir34  1  0.812886  0.188285  0.500000  1
  Ir  Ir35  1  0.003716  0.998952  0.500000  1
