# generated using pymatgen
data_Zr10Al2Bi4P
_symmetry_space_group_name_H-M   'P 1'
_cell_length_a   5.88804593
_cell_length_b   8.71420596
_cell_length_c   8.69758700
_cell_angle_alpha   120.06323247
_cell_angle_beta   89.96771299
_cell_angle_gamma   90.06446763
_symmetry_Int_Tables_number   1
_chemical_formula_structural   Zr10Al2Bi4P
_chemical_formula_sum   'Zr10 Al2 Bi4 P1'
_cell_volume   386.23450957
_cell_formula_units_Z   1
loop_
 _symmetry_equiv_pos_site_id
 _symmetry_equiv_pos_as_xyz
  1  'x, y, z'
loop_
 _atom_site_type_symbol
 _atom_site_label
 _atom_site_symmetry_multiplicity
 _atom_site_fract_x
 _atom_site_fract_y
 _atom_site_fract_z
 _atom_site_occupancy
  Zr  Zr0  1  0.493255  0.332390  0.659992  1
  Zr  Zr1  1  0.493255  0.672398  0.340008  1
  Zr  Zr2  1  0.008808  0.673279  0.340398  1
  Zr  Zr3  1  0.008808  0.332881  0.659602  1
  Zr  Zr4  1  0.752732  0.244788  0.000000  1
  Zr  Zr5  1  0.761335  0.756615  0.753773  1
  Zr  Zr6  1  0.761335  0.002841  0.246227  1
  Zr  Zr7  1  0.241148  0.756076  0.000000  1
  Zr  Zr8  1  0.244854  0.245037  0.262063  1
  Zr  Zr9  1  0.244854  0.982975  0.737937  1
  Al  Al10  1  0.248685  0.606074  0.608108  1
  Al  Al11  1  0.248685  0.997966  0.391892  1
  Bi  Bi12  1  0.748295  0.606660  0.000000  1
  Bi  Bi13  1  0.749971  0.401470  0.397936  1
  Bi  Bi14  1  0.749971  0.003535  0.602064  1
  Bi  Bi15  1  0.248166  0.384495  0.000000  1
  P  P16  1  0.495844  0.000522  0.000000  1
