# generated using pymatgen
data_Lu3Al2Ga3Ir
_symmetry_space_group_name_H-M   'P 1'
_cell_length_a   6.84710196
_cell_length_b   6.84710232
_cell_length_c   4.21826300
_cell_angle_alpha   90.00000000
_cell_angle_beta   90.00000000
_cell_angle_gamma   119.63111862
_symmetry_Int_Tables_number   1
_chemical_formula_structural   Lu3Al2Ga3Ir
_chemical_formula_sum   'Lu3 Al2 Ga3 Ir1'
_cell_volume   171.90172705
_cell_formula_units_Z   1
loop_
 _symmetry_equiv_pos_site_id
 _symmetry_equiv_pos_as_xyz
  1  'x, y, z'
loop_
 _atom_site_type_symbol
 _atom_site_label
 _atom_site_symmetry_multiplicity
 _atom_site_fract_x
 _atom_site_fract_y
 _atom_site_fract_z
 _atom_site_occupancy
  Lu  Lu0  1  0.586122  0.998998  0.500000  1
  Lu  Lu1  1  0.416198  0.416198  0.500000  1
  Lu  Lu2  1  0.998998  0.586122  0.500000  1
  Al  Al3  1  0.232981  0.002350  0.000000  1
  Al  Al4  1  0.002350  0.232981  0.000000  1
  Ga  Ga5  1  0.666552  0.330368  0.000000  1
  Ga  Ga6  1  0.330368  0.666552  0.000000  1
  Ga  Ga7  1  0.760557  0.760557  0.000000  1
  Ir  Ir8  1  0.005873  0.005873  0.500000  1
