# generated using pymatgen
data_Sm4Al11Ga7Ir6
_symmetry_space_group_name_H-M   'P 1'
_cell_length_a   7.55913820
_cell_length_b   7.55913822
_cell_length_c   9.62326300
_cell_angle_alpha   90.01301429
_cell_angle_beta   90.01301429
_cell_angle_gamma   119.84174006
_symmetry_Int_Tables_number   1
_chemical_formula_structural   Sm4Al11Ga7Ir6
_chemical_formula_sum   'Sm4 Al11 Ga7 Ir6'
_cell_volume   476.96651450
_cell_formula_units_Z   1
loop_
 _symmetry_equiv_pos_site_id
 _symmetry_equiv_pos_as_xyz
  1  'x, y, z'
loop_
 _atom_site_type_symbol
 _atom_site_label
 _atom_site_symmetry_multiplicity
 _atom_site_fract_x
 _atom_site_fract_y
 _atom_site_fract_z
 _atom_site_occupancy
  Sm  Sm0  1  0.996186  0.668333  0.750051  1
  Sm  Sm1  1  0.004217  0.331832  0.250690  1
  Sm  Sm2  1  0.668333  0.996186  0.750051  1
  Sm  Sm3  1  0.331832  0.004217  0.250690  1
  Al  Al4  1  0.004701  0.334141  0.571875  1
  Al  Al5  1  0.996946  0.665969  0.429404  1
  Al  Al6  1  0.997670  0.666361  0.070842  1
  Al  Al7  1  0.334126  0.002819  0.929314  1
  Al  Al8  1  0.002819  0.334126  0.929314  1
  Al  Al9  1  0.666361  0.997670  0.070842  1
  Al  Al10  1  0.665969  0.996946  0.429404  1
  Al  Al11  1  0.334141  0.004701  0.571875  1
  Al  Al12  1  0.335236  0.335236  0.054076  1
  Al  Al13  1  0.665343  0.665343  0.945745  1
  Al  Al14  1  0.660946  0.660946  0.553798  1
  Ga  Ga15  1  0.128091  0.128091  0.750783  1
  Ga  Ga16  1  0.871481  0.871481  0.250629  1
  Ga  Ga17  1  0.332760  0.332760  0.435488  1
  Ga  Ga18  1  0.337664  0.544989  0.750247  1
  Ga  Ga19  1  0.666044  0.456680  0.249758  1
  Ga  Ga20  1  0.544989  0.337664  0.750247  1
  Ga  Ga21  1  0.456680  0.666044  0.249758  1
  Ir  Ir22  1  0.673790  0.328248  0.500828  1
  Ir  Ir23  1  0.328248  0.673790  0.500828  1
  Ir  Ir24  1  0.328782  0.670881  0.000358  1
  Ir  Ir25  1  0.670881  0.328782  0.000358  1
  Ir  Ir26  1  0.995375  0.995375  0.501950  1
  Ir  Ir27  1  0.000387  0.000387  0.000792  1
