# generated using pymatgen
data_DyFeGeH
_symmetry_space_group_name_H-M   'P 1'
_cell_length_a   3.87146500
_cell_length_b   3.87146500
_cell_length_c   7.61578100
_cell_angle_alpha   90.00000000
_cell_angle_beta   90.00000000
_cell_angle_gamma   90.00000000
_symmetry_Int_Tables_number   1
_chemical_formula_structural   DyFeGeH
_chemical_formula_sum   'Dy2 Fe2 Ge2 H2'
_cell_volume   114.14716291
_cell_formula_units_Z   2
loop_
 _symmetry_equiv_pos_site_id
 _symmetry_equiv_pos_as_xyz
  1  'x, y, z'
loop_
 _atom_site_type_symbol
 _atom_site_label
 _atom_site_symmetry_multiplicity
 _atom_site_fract_x
 _atom_site_fract_y
 _atom_site_fract_z
 _atom_site_occupancy
  Dy  Dy0  1  0.500000  0.000000  0.342041  1
  Dy  Dy1  1  0.000000  0.500000  0.657959  1
  Fe  Fe2  1  0.500000  0.500000  0.000000  1
  Fe  Fe3  1  0.000000  0.000000  0.000000  1
  Ge  Ge4  1  0.500000  0.000000  0.812124  1
  Ge  Ge5  1  0.000000  0.500000  0.187876  1
  H  H6  1  0.000000  0.000000  0.500000  1
  H  H7  1  0.500000  0.500000  0.500000  1
