# generated using pymatgen
data_Gd9Y7AlCd3Pd4
_symmetry_space_group_name_H-M   'P 1'
_cell_length_a   9.76491802
_cell_length_b   9.76491742
_cell_length_c   9.77161947
_cell_angle_alpha   59.98102938
_cell_angle_beta   59.98102937
_cell_angle_gamma   60.02284462
_symmetry_Int_Tables_number   1
_chemical_formula_structural   Gd9Y7AlCd3Pd4
_chemical_formula_sum   'Gd9 Y7 Al1 Cd3 Pd4'
_cell_volume   658.77789177
_cell_formula_units_Z   1
loop_
 _symmetry_equiv_pos_site_id
 _symmetry_equiv_pos_as_xyz
  1  'x, y, z'
loop_
 _atom_site_type_symbol
 _atom_site_label
 _atom_site_symmetry_multiplicity
 _atom_site_fract_x
 _atom_site_fract_y
 _atom_site_fract_z
 _atom_site_occupancy
  Gd  Gd0  1  0.352004  0.352004  0.351834  1
  Gd  Gd1  1  0.357907  0.357907  0.932554  1
  Gd  Gd2  1  0.358235  0.932792  0.357349  1
  Gd  Gd3  1  0.932792  0.358235  0.357349  1
  Gd  Gd4  1  0.810801  0.188857  0.190484  1
  Gd  Gd5  1  0.192952  0.807845  0.808306  1
  Gd  Gd6  1  0.188857  0.810801  0.190484  1
  Gd  Gd7  1  0.807845  0.192952  0.808306  1
  Gd  Gd8  1  0.190163  0.190163  0.810435  1
  Y  Y9  1  0.807781  0.807781  0.193855  1
  Y  Y10  1  0.932622  0.567487  0.566668  1
  Y  Y11  1  0.564505  0.935136  0.935666  1
  Y  Y12  1  0.567487  0.932622  0.566668  1
  Y  Y13  1  0.935136  0.564505  0.935666  1
  Y  Y14  1  0.566832  0.566832  0.932590  1
  Y  Y15  1  0.935679  0.935679  0.563957  1
  Al  Al16  1  0.582162  0.582162  0.581854  1
  Cd  Cd17  1  0.580966  0.580966  0.254621  1
  Cd  Cd18  1  0.580517  0.255565  0.580911  1
  Cd  Cd19  1  0.255565  0.580517  0.580911  1
  Pd  Pd20  1  0.146562  0.146562  0.145915  1
  Pd  Pd21  1  0.142694  0.142694  0.567624  1
  Pd  Pd22  1  0.142629  0.567301  0.142995  1
  Pd  Pd23  1  0.567301  0.142629  0.142995  1
