# generated using pymatgen
data_Ho9Lu11Sn16
_symmetry_space_group_name_H-M   'P 1'
_cell_length_a   7.93886802
_cell_length_b   8.06385792
_cell_length_c   15.24300801
_cell_angle_alpha   90.02968197
_cell_angle_beta   90.00340955
_cell_angle_gamma   90.07106649
_symmetry_Int_Tables_number   1
_chemical_formula_structural   Ho9Lu11Sn16
_chemical_formula_sum   'Ho9 Lu11 Sn16'
_cell_volume   975.82453627
_cell_formula_units_Z   1
loop_
 _symmetry_equiv_pos_site_id
 _symmetry_equiv_pos_as_xyz
  1  'x, y, z'
loop_
 _atom_site_type_symbol
 _atom_site_label
 _atom_site_symmetry_multiplicity
 _atom_site_fract_x
 _atom_site_fract_y
 _atom_site_fract_z
 _atom_site_occupancy
  Ho  Ho0  1  0.866211  0.663519  0.877738  1
  Ho  Ho1  1  0.520457  0.321209  0.904182  1
  Ho  Ho2  1  0.020675  0.178683  0.595606  1
  Ho  Ho3  1  0.479185  0.678428  0.403887  1
  Ho  Ho4  1  0.978766  0.822487  0.097448  1
  Ho  Ho5  1  0.480663  0.677873  0.096213  1
  Ho  Ho6  1  0.979427  0.821789  0.403461  1
  Ho  Ho7  1  0.519748  0.321155  0.595403  1
  Ho  Ho8  1  0.020429  0.178354  0.903708  1
  Lu  Lu9  1  0.364600  0.837493  0.876202  1
  Lu  Lu10  1  0.865249  0.661938  0.623048  1
  Lu  Lu11  1  0.634922  0.161567  0.376678  1
  Lu  Lu12  1  0.134987  0.337945  0.123633  1
  Lu  Lu13  1  0.633803  0.161946  0.124614  1
  Lu  Lu14  1  0.134665  0.337471  0.376610  1
  Lu  Lu15  1  0.366004  0.838148  0.622735  1
  Lu  Lu16  1  0.196936  0.504730  0.749685  1
  Lu  Lu17  1  0.696222  0.995775  0.749267  1
  Lu  Lu18  1  0.803553  0.495037  0.250388  1
  Lu  Lu19  1  0.303151  0.004663  0.250007  1
  Sn  Sn20  1  0.296384  0.039386  0.041475  1
  Sn  Sn21  1  0.796813  0.460705  0.458177  1
  Sn  Sn22  1  0.704292  0.960312  0.541205  1
  Sn  Sn23  1  0.206838  0.538111  0.959000  1
  Sn  Sn24  1  0.701064  0.963702  0.958673  1
  Sn  Sn25  1  0.202662  0.539551  0.541429  1
  Sn  Sn26  1  0.296411  0.039091  0.458349  1
  Sn  Sn27  1  0.796539  0.459011  0.043058  1
  Sn  Sn28  1  0.561781  0.620019  0.748980  1
  Sn  Sn29  1  0.063047  0.881008  0.748970  1
  Sn  Sn30  1  0.437666  0.379873  0.250727  1
  Sn  Sn31  1  0.937602  0.120237  0.250057  1
  Sn  Sn32  1  0.330687  0.149518  0.749582  1
  Sn  Sn33  1  0.830205  0.350299  0.749370  1
  Sn  Sn34  1  0.668977  0.849786  0.250250  1
  Sn  Sn35  1  0.169379  0.649181  0.250184  1
