# generated using pymatgen
data_Tm2Zn2IrPb
_symmetry_space_group_name_H-M   'P 1'
_cell_length_a   4.29222200
_cell_length_b   7.09851525
_cell_length_c   8.40357751
_cell_angle_alpha   88.37698957
_cell_angle_beta   90.00000000
_cell_angle_gamma   90.00000000
_symmetry_Int_Tables_number   1
_chemical_formula_structural   Tm2Zn2IrPb
_chemical_formula_sum   'Tm4 Zn4 Ir2 Pb2'
_cell_volume   255.94086982
_cell_formula_units_Z   2
loop_
 _symmetry_equiv_pos_site_id
 _symmetry_equiv_pos_as_xyz
  1  'x, y, z'
loop_
 _atom_site_type_symbol
 _atom_site_label
 _atom_site_symmetry_multiplicity
 _atom_site_fract_x
 _atom_site_fract_y
 _atom_site_fract_z
 _atom_site_occupancy
  Tm  Tm0  1  0.250000  0.506051  0.171510  1
  Tm  Tm1  1  0.750000  0.493949  0.828490  1
  Tm  Tm2  1  0.750000  0.968183  0.735118  1
  Tm  Tm3  1  0.250000  0.031817  0.264882  1
  Zn  Zn4  1  0.250000  0.680657  0.610723  1
  Zn  Zn5  1  0.750000  0.319343  0.389277  1
  Zn  Zn6  1  0.750000  0.840090  0.070653  1
  Zn  Zn7  1  0.250000  0.159910  0.929347  1
  Ir  Ir8  1  0.250000  0.766473  0.908502  1
  Ir  Ir9  1  0.750000  0.233527  0.091498  1
  Pb  Pb10  1  0.750000  0.734347  0.406697  1
  Pb  Pb11  1  0.250000  0.265653  0.593303  1
