# generated using pymatgen
data_Rb2LiLuSb2
_symmetry_space_group_name_H-M   'P 1'
_cell_length_a   11.13606668
_cell_length_b   11.13606637
_cell_length_c   7.18996200
_cell_angle_alpha   90.00000000
_cell_angle_beta   90.00000000
_cell_angle_gamma   99.84767505
_symmetry_Int_Tables_number   1
_chemical_formula_structural   Rb2LiLuSb2
_chemical_formula_sum   'Rb8 Li4 Lu4 Sb8'
_cell_volume   878.50389817
_cell_formula_units_Z   4
loop_
 _symmetry_equiv_pos_site_id
 _symmetry_equiv_pos_as_xyz
  1  'x, y, z'
loop_
 _atom_site_type_symbol
 _atom_site_label
 _atom_site_symmetry_multiplicity
 _atom_site_fract_x
 _atom_site_fract_y
 _atom_site_fract_z
 _atom_site_occupancy
  Rb  Rb0  1  0.570653  0.929347  0.750000  1
  Rb  Rb1  1  0.929347  0.570653  0.250000  1
  Rb  Rb2  1  0.429347  0.070653  0.250000  1
  Rb  Rb3  1  0.070653  0.429347  0.750000  1
  Rb  Rb4  1  0.675658  0.324342  0.782324  1
  Rb  Rb5  1  0.824342  0.175658  0.282324  1
  Rb  Rb6  1  0.324342  0.675658  0.217676  1
  Rb  Rb7  1  0.175658  0.824342  0.717676  1
  Li  Li8  1  0.620005  0.620005  0.000000  1
  Li  Li9  1  0.879995  0.879995  0.500000  1
  Li  Li10  1  0.379995  0.379995  0.000000  1
  Li  Li11  1  0.120005  0.120005  0.500000  1
  Lu  Lu12  1  0.870152  0.870152  0.000000  1
  Lu  Lu13  1  0.629848  0.629848  0.500000  1
  Lu  Lu14  1  0.129848  0.129848  0.000000  1
  Lu  Lu15  1  0.370152  0.370152  0.500000  1
  Sb  Sb16  1  0.344216  0.155784  0.750000  1
  Sb  Sb17  1  0.155784  0.344216  0.250000  1
  Sb  Sb18  1  0.655784  0.844216  0.250000  1
  Sb  Sb19  1  0.844216  0.655784  0.750000  1
  Sb  Sb20  1  0.906320  0.093680  0.763783  1
  Sb  Sb21  1  0.593680  0.406320  0.263783  1
  Sb  Sb22  1  0.093680  0.906320  0.236217  1
  Sb  Sb23  1  0.406320  0.593680  0.736217  1
