# generated using pymatgen
data_PrNdAl20(RuRh)2
_symmetry_space_group_name_H-M   'P 1'
_cell_length_a   6.91218177
_cell_length_b   6.87667616
_cell_length_c   9.20088100
_cell_angle_alpha   90.00000000
_cell_angle_beta   90.00000000
_cell_angle_gamma   97.02218601
_symmetry_Int_Tables_number   1
_chemical_formula_structural   PrNdAl20(RuRh)2
_chemical_formula_sum   'Pr1 Nd1 Al20 Ru2 Rh2'
_cell_volume   434.06339712
_cell_formula_units_Z   1
loop_
 _symmetry_equiv_pos_site_id
 _symmetry_equiv_pos_as_xyz
  1  'x, y, z'
loop_
 _atom_site_type_symbol
 _atom_site_label
 _atom_site_symmetry_multiplicity
 _atom_site_fract_x
 _atom_site_fract_y
 _atom_site_fract_z
 _atom_site_occupancy
  Pr  Pr0  1  0.872158  0.122895  0.750000  1
  Nd  Nd1  1  0.128730  0.876839  0.250000  1
  Al  Al2  1  0.620038  0.376998  0.549373  1
  Al  Al3  1  0.379603  0.623248  0.450386  1
  Al  Al4  1  0.379603  0.623248  0.049614  1
  Al  Al5  1  0.620038  0.376998  0.950627  1
  Al  Al6  1  0.227238  0.225521  0.498669  1
  Al  Al7  1  0.772793  0.774390  0.500820  1
  Al  Al8  1  0.772793  0.774390  0.999180  1
  Al  Al9  1  0.227238  0.225521  0.001331  1
  Al  Al10  1  0.840303  0.158465  0.103082  1
  Al  Al11  1  0.160066  0.841156  0.897434  1
  Al  Al12  1  0.160066  0.841156  0.602566  1
  Al  Al13  1  0.840303  0.158465  0.396918  1
  Al  Al14  1  0.857683  0.590712  0.750000  1
  Al  Al15  1  0.142362  0.409858  0.250000  1
  Al  Al16  1  0.409279  0.140071  0.750000  1
  Al  Al17  1  0.590202  0.859932  0.250000  1
  Al  Al18  1  0.224123  0.482116  0.750000  1
  Al  Al19  1  0.776389  0.518266  0.250000  1
  Al  Al20  1  0.517211  0.777570  0.750000  1
  Al  Al21  1  0.482416  0.221955  0.250000  1
  Ru  Ru22  1  0.499731  0.999971  0.000353  1
  Ru  Ru23  1  0.499731  0.999971  0.499647  1
  Rh  Rh24  1  0.999950  0.500144  0.499803  1
  Rh  Rh25  1  0.999950  0.500144  0.000197  1
