# generated using pymatgen
data_Sc2InHgC
_symmetry_space_group_name_H-M   'P 1'
_cell_length_a   3.37922200
_cell_length_b   3.37922278
_cell_length_c   9.94033600
_cell_angle_alpha   90.00000000
_cell_angle_beta   90.00000000
_cell_angle_gamma   119.99999234
_symmetry_Int_Tables_number   1
_chemical_formula_structural   Sc2InHgC
_chemical_formula_sum   'Sc2 In1 Hg1 C1'
_cell_volume   98.30266191
_cell_formula_units_Z   1
loop_
 _symmetry_equiv_pos_site_id
 _symmetry_equiv_pos_as_xyz
  1  'x, y, z'
loop_
 _atom_site_type_symbol
 _atom_site_label
 _atom_site_symmetry_multiplicity
 _atom_site_fract_x
 _atom_site_fract_y
 _atom_site_fract_z
 _atom_site_occupancy
  Sc  Sc0  1  0.333333  0.666666  0.375718  1
  Sc  Sc1  1  0.666665  0.333333  0.620328  1
  In  In2  1  0.333333  0.666666  0.875932  1
  Hg  Hg3  1  0.666665  0.333333  0.129721  1
  C  C4  1  0.000000  0.000000  0.498302  1
