# generated using pymatgen
data_Yb6SmCo4Sn13
_symmetry_space_group_name_H-M   'P 1'
_cell_length_a   11.18276700
_cell_length_b   11.18276700
_cell_length_c   4.60981500
_cell_angle_alpha   90.00000000
_cell_angle_beta   90.00000000
_cell_angle_gamma   90.00000000
_symmetry_Int_Tables_number   1
_chemical_formula_structural   Yb6SmCo4Sn13
_chemical_formula_sum   'Yb6 Sm1 Co4 Sn13'
_cell_volume   576.47708551
_cell_formula_units_Z   1
loop_
 _symmetry_equiv_pos_site_id
 _symmetry_equiv_pos_as_xyz
  1  'x, y, z'
loop_
 _atom_site_type_symbol
 _atom_site_label
 _atom_site_symmetry_multiplicity
 _atom_site_fract_x
 _atom_site_fract_y
 _atom_site_fract_z
 _atom_site_occupancy
  Yb  Yb0  1  0.339750  0.670169  0.500000  1
  Yb  Yb1  1  0.660250  0.329831  0.500000  1
  Yb  Yb2  1  0.329831  0.339750  0.500000  1
  Yb  Yb3  1  0.670169  0.660250  0.500000  1
  Yb  Yb4  1  0.500000  0.000000  0.500000  1
  Yb  Yb5  1  0.000000  0.500000  0.500000  1
  Sm  Sm6  1  0.000000  0.000000  0.000000  1
  Co  Co7  1  0.118696  0.725520  0.000000  1
  Co  Co8  1  0.881304  0.274480  0.000000  1
  Co  Co9  1  0.274480  0.118696  0.000000  1
  Co  Co10  1  0.725520  0.881304  0.000000  1
  Sn  Sn11  1  0.284565  0.888048  0.000000  1
  Sn  Sn12  1  0.715435  0.111952  0.000000  1
  Sn  Sn13  1  0.111952  0.284565  0.000000  1
  Sn  Sn14  1  0.888048  0.715435  0.000000  1
  Sn  Sn15  1  0.078817  0.802625  0.500000  1
  Sn  Sn16  1  0.921183  0.197375  0.500000  1
  Sn  Sn17  1  0.197375  0.078817  0.500000  1
  Sn  Sn18  1  0.802625  0.921183  0.500000  1
  Sn  Sn19  1  0.522417  0.786273  0.000000  1
  Sn  Sn20  1  0.477583  0.213727  0.000000  1
  Sn  Sn21  1  0.213727  0.522417  0.000000  1
  Sn  Sn22  1  0.786273  0.477583  0.000000  1
  Sn  Sn23  1  0.500000  0.500000  0.000000  1
