# generated using pymatgen
data_Sr3Mo(P3Rh4)2
_symmetry_space_group_name_H-M   'P 1'
_cell_length_a   3.98802100
_cell_length_b   11.25852900
_cell_length_c   13.02102500
_cell_angle_alpha   90.00000000
_cell_angle_beta   90.00000000
_cell_angle_gamma   90.00000000
_symmetry_Int_Tables_number   1
_chemical_formula_structural   Sr3Mo(P3Rh4)2
_chemical_formula_sum   'Sr6 Mo2 P12 Rh16'
_cell_volume   584.63425779
_cell_formula_units_Z   2
loop_
 _symmetry_equiv_pos_site_id
 _symmetry_equiv_pos_as_xyz
  1  'x, y, z'
loop_
 _atom_site_type_symbol
 _atom_site_label
 _atom_site_symmetry_multiplicity
 _atom_site_fract_x
 _atom_site_fract_y
 _atom_site_fract_z
 _atom_site_occupancy
  Sr  Sr0  1  0.000000  0.500000  0.522059  1
  Sr  Sr1  1  0.500000  0.000000  0.477941  1
  Sr  Sr2  1  0.500000  0.820940  0.205083  1
  Sr  Sr3  1  0.500000  0.179060  0.205083  1
  Sr  Sr4  1  0.000000  0.679060  0.794917  1
  Sr  Sr5  1  0.000000  0.320940  0.794917  1
  Mo  Mo6  1  0.500000  0.500000  0.155125  1
  Mo  Mo7  1  0.000000  0.000000  0.844875  1
  P  P8  1  0.500000  0.500000  0.881903  1
  P  P9  1  0.000000  0.000000  0.118097  1
  P  P10  1  0.500000  0.500000  0.336746  1
  P  P11  1  0.000000  0.000000  0.663254  1
  P  P12  1  0.500000  0.305591  0.616386  1
  P  P13  1  0.500000  0.694409  0.616386  1
  P  P14  1  0.000000  0.194409  0.383614  1
  P  P15  1  0.000000  0.805591  0.383614  1
  P  P16  1  0.500000  0.849511  0.891140  1
  P  P17  1  0.500000  0.150489  0.891140  1
  P  P18  1  0.000000  0.650489  0.108860  1
  P  P19  1  0.000000  0.349511  0.108860  1
  Rh  Rh20  1  0.500000  0.500000  0.697017  1
  Rh  Rh21  1  0.000000  0.000000  0.302983  1
  Rh  Rh22  1  0.000000  0.500000  0.987723  1
  Rh  Rh23  1  0.500000  0.000000  0.012277  1
  Rh  Rh24  1  0.500000  0.330683  0.989533  1
  Rh  Rh25  1  0.500000  0.669317  0.989533  1
  Rh  Rh26  1  0.000000  0.169317  0.010467  1
  Rh  Rh27  1  0.000000  0.830683  0.010467  1
  Rh  Rh28  1  0.500000  0.292789  0.431411  1
  Rh  Rh29  1  0.500000  0.707211  0.431411  1
  Rh  Rh30  1  0.000000  0.207211  0.568589  1
  Rh  Rh31  1  0.000000  0.792789  0.568589  1
  Rh  Rh32  1  0.500000  0.877771  0.709390  1
  Rh  Rh33  1  0.500000  0.122229  0.709390  1
  Rh  Rh34  1  0.000000  0.622229  0.290610  1
  Rh  Rh35  1  0.000000  0.377771  0.290610  1
