# generated using pymatgen
data_Y4Tm4Re(TcB8)3
_symmetry_space_group_name_H-M   'P 1'
_cell_length_a   3.66284700
_cell_length_b   9.13100295
_cell_length_c   11.51872401
_cell_angle_alpha   90.02398903
_cell_angle_beta   90.00000000
_cell_angle_gamma   90.00000000
_symmetry_Int_Tables_number   1
_chemical_formula_structural   Y4Tm4Re(TcB8)3
_chemical_formula_sum   'Y4 Tm4 Re1 Tc3 B24'
_cell_volume   385.24906740
_cell_formula_units_Z   1
loop_
 _symmetry_equiv_pos_site_id
 _symmetry_equiv_pos_as_xyz
  1  'x, y, z'
loop_
 _atom_site_type_symbol
 _atom_site_label
 _atom_site_symmetry_multiplicity
 _atom_site_fract_x
 _atom_site_fract_y
 _atom_site_fract_z
 _atom_site_occupancy
  Y  Y0  1  0.000000  0.323464  0.414188  1
  Y  Y1  1  0.000000  0.676692  0.585718  1
  Y  Y2  1  0.000000  0.823312  0.086003  1
  Y  Y3  1  0.000000  0.177050  0.914321  1
  Tm  Tm4  1  0.000000  0.942965  0.369226  1
  Tm  Tm5  1  0.000000  0.057593  0.629876  1
  Tm  Tm6  1  0.000000  0.442926  0.130790  1
  Tm  Tm7  1  0.000000  0.556009  0.869715  1
  Re  Re8  1  0.000000  0.860705  0.819949  1
  Tc  Tc9  1  0.000000  0.639463  0.319777  1
  Tc  Tc10  1  0.000000  0.360591  0.680113  1
  Tc  Tc11  1  0.000000  0.139482  0.180266  1
  B  B12  1  0.500000  0.553818  0.432553  1
  B  B13  1  0.500000  0.446361  0.567477  1
  B  B14  1  0.500000  0.053802  0.067578  1
  B  B15  1  0.500000  0.946442  0.932759  1
  B  B16  1  0.500000  0.750176  0.418176  1
  B  B17  1  0.500000  0.250080  0.581734  1
  B  B18  1  0.500000  0.250097  0.081849  1
  B  B19  1  0.500000  0.749465  0.918391  1
  B  B20  1  0.500000  0.792539  0.265200  1
  B  B21  1  0.500000  0.207478  0.734627  1
  B  B22  1  0.500000  0.292529  0.234878  1
  B  B23  1  0.500000  0.707100  0.765267  1
  B  B24  1  0.500000  0.630139  0.185182  1
  B  B25  1  0.500000  0.369632  0.814800  1
  B  B26  1  0.500000  0.130208  0.314879  1
  B  B27  1  0.500000  0.869988  0.684952  1
  B  B28  1  0.500000  0.982147  0.212231  1
  B  B29  1  0.500000  0.018218  0.787560  1
  B  B30  1  0.500000  0.482105  0.287794  1
  B  B31  1  0.500000  0.517755  0.712345  1
  B  B32  1  0.500000  0.598272  0.027445  1
  B  B33  1  0.500000  0.401181  0.972804  1
  B  B34  1  0.500000  0.098602  0.472368  1
  B  B35  1  0.500000  0.901615  0.527208  1
