# generated using pymatgen
data_NaMgH6Ir
_symmetry_space_group_name_H-M   'P 1'
_cell_length_a   6.93494200
_cell_length_b   6.93494200
_cell_length_c   6.93494200
_cell_angle_alpha   90.00000000
_cell_angle_beta   90.00000000
_cell_angle_gamma   90.00000000
_symmetry_Int_Tables_number   1
_chemical_formula_structural   NaMgH6Ir
_chemical_formula_sum   'Na4 Mg4 H24 Ir4'
_cell_volume   333.52508205
_cell_formula_units_Z   4
loop_
 _symmetry_equiv_pos_site_id
 _symmetry_equiv_pos_as_xyz
  1  'x, y, z'
loop_
 _atom_site_type_symbol
 _atom_site_label
 _atom_site_symmetry_multiplicity
 _atom_site_fract_x
 _atom_site_fract_y
 _atom_site_fract_z
 _atom_site_occupancy
  Na  Na0  1  0.000000  0.000000  0.500000  1
  Na  Na1  1  0.000000  0.500000  0.000000  1
  Na  Na2  1  0.500000  0.000000  0.000000  1
  Na  Na3  1  0.000000  0.000000  0.000000  1
  Mg  Mg4  1  0.500000  0.500000  0.500000  1
  Mg  Mg5  1  0.000000  0.500000  0.500000  1
  Mg  Mg6  1  0.500000  0.000000  0.500000  1
  Mg  Mg7  1  0.500000  0.500000  0.000000  1
  H  H8  1  0.741903  0.741903  0.506817  1
  H  H9  1  0.258097  0.258097  0.506817  1
  H  H10  1  0.024330  0.737497  0.737497  1
  H  H11  1  0.262503  0.975670  0.737497  1
  H  H12  1  0.737497  0.024330  0.737497  1
  H  H13  1  0.975670  0.262503  0.737497  1
  H  H14  1  0.741903  0.506817  0.741903  1
  H  H15  1  0.506817  0.741903  0.741903  1
  H  H16  1  0.493183  0.258097  0.741903  1
  H  H17  1  0.258097  0.493183  0.741903  1
  H  H18  1  0.262503  0.737497  0.975670  1
  H  H19  1  0.737497  0.262503  0.975670  1
  H  H20  1  0.737497  0.737497  0.024330  1
  H  H21  1  0.262503  0.262503  0.024330  1
  H  H22  1  0.258097  0.506817  0.258097  1
  H  H23  1  0.493183  0.741903  0.258097  1
  H  H24  1  0.506817  0.258097  0.258097  1
  H  H25  1  0.741903  0.493183  0.258097  1
  H  H26  1  0.975670  0.737497  0.262503  1
  H  H27  1  0.737497  0.975670  0.262503  1
  H  H28  1  0.262503  0.024330  0.262503  1
  H  H29  1  0.024330  0.262503  0.262503  1
  H  H30  1  0.258097  0.741903  0.493183  1
  H  H31  1  0.741903  0.258097  0.493183  1
  Ir  Ir32  1  0.266841  0.733159  0.733159  1
  Ir  Ir33  1  0.733159  0.266841  0.733159  1
  Ir  Ir34  1  0.733159  0.733159  0.266841  1
  Ir  Ir35  1  0.266841  0.266841  0.266841  1
