# generated using pymatgen
data_Nd4Ga7Ge3(IrRh2)2
_symmetry_space_group_name_H-M   'P 1'
_cell_length_a   8.62049361
_cell_length_b   8.68669299
_cell_length_c   8.68669379
_cell_angle_alpha   140.91795933
_cell_angle_beta   108.32658320
_cell_angle_gamma   84.89630191
_symmetry_Int_Tables_number   1
_chemical_formula_structural   Nd4Ga7Ge3(IrRh2)2
_chemical_formula_sum   'Nd4 Ga7 Ge3 Ir2 Rh4'
_cell_volume   375.98641134
_cell_formula_units_Z   1
loop_
 _symmetry_equiv_pos_site_id
 _symmetry_equiv_pos_as_xyz
  1  'x, y, z'
loop_
 _atom_site_type_symbol
 _atom_site_label
 _atom_site_symmetry_multiplicity
 _atom_site_fract_x
 _atom_site_fract_y
 _atom_site_fract_z
 _atom_site_occupancy
  Nd  Nd0  1  0.861430  0.631768  0.229661  1
  Nd  Nd1  1  0.137585  0.364553  0.773031  1
  Nd  Nd2  1  0.409970  0.138573  0.271397  1
  Nd  Nd3  1  0.592844  0.863939  0.728905  1
  Ga  Ga4  1  0.498615  0.751519  0.249486  1
  Ga  Ga5  1  0.498615  0.249130  0.747096  1
  Ga  Ga6  1  0.213432  0.960596  0.747756  1
  Ga  Ga7  1  0.788197  0.533788  0.746904  1
  Ga  Ga8  1  0.788197  0.041293  0.254409  1
  Ga  Ga9  1  0.213432  0.465676  0.252837  1
  Ga  Ga10  1  0.075556  0.908621  0.166935  1
  Ge  Ge11  1  0.927918  0.093144  0.834774  1
  Ge  Ge12  1  0.736092  0.402994  0.333098  1
  Ge  Ge13  1  0.259584  0.593033  0.666550  1
  Ir  Ir14  1  0.453599  0.355854  0.097745  1
  Ir  Ir15  1  0.547422  0.646110  0.901311  1
  Rh  Rh16  1  0.997781  0.749136  0.746478  1
  Rh  Rh17  1  0.997781  0.251303  0.248646  1
  Rh  Rh18  1  0.255432  0.854856  0.400577  1
  Rh  Rh19  1  0.746515  0.144111  0.602403  1
