# generated using pymatgen
data_NdThCdAu2
_symmetry_space_group_name_H-M   'P 1'
_cell_length_a   3.88401100
_cell_length_b   8.17284985
_cell_length_c   8.17284985
_cell_angle_alpha   91.26483240
_cell_angle_beta   90.00000000
_cell_angle_gamma   90.00000000
_symmetry_Int_Tables_number   1
_chemical_formula_structural   NdThCdAu2
_chemical_formula_sum   'Nd2 Th2 Cd2 Au4'
_cell_volume   259.37114632
_cell_formula_units_Z   2
loop_
 _symmetry_equiv_pos_site_id
 _symmetry_equiv_pos_as_xyz
  1  'x, y, z'
loop_
 _atom_site_type_symbol
 _atom_site_label
 _atom_site_symmetry_multiplicity
 _atom_site_fract_x
 _atom_site_fract_y
 _atom_site_fract_z
 _atom_site_occupancy
  Nd  Nd0  1  0.500000  0.326697  0.173303  1
  Nd  Nd1  1  0.500000  0.673303  0.826697  1
  Th  Th2  1  0.500000  0.174311  0.674311  1
  Th  Th3  1  0.500000  0.825689  0.325689  1
  Cd  Cd4  1  0.000000  0.000000  0.000000  1
  Cd  Cd5  1  0.000000  0.500000  0.500000  1
  Au  Au6  1  0.000000  0.628221  0.128221  1
  Au  Au7  1  0.000000  0.371779  0.871779  1
  Au  Au8  1  0.000000  0.874247  0.625753  1
  Au  Au9  1  0.000000  0.125753  0.374247  1
