# generated using pymatgen
data_TiMnGaPt5
_symmetry_space_group_name_H-M   'P 1'
_cell_length_a   3.95427500
_cell_length_b   3.95427500
_cell_length_c   7.86162900
_cell_angle_alpha   90.00000000
_cell_angle_beta   90.00000000
_cell_angle_gamma   90.00000000
_symmetry_Int_Tables_number   1
_chemical_formula_structural   TiMnGaPt5
_chemical_formula_sum   'Ti1 Mn1 Ga1 Pt5'
_cell_volume   122.92671701
_cell_formula_units_Z   1
loop_
 _symmetry_equiv_pos_site_id
 _symmetry_equiv_pos_as_xyz
  1  'x, y, z'
loop_
 _atom_site_type_symbol
 _atom_site_label
 _atom_site_symmetry_multiplicity
 _atom_site_fract_x
 _atom_site_fract_y
 _atom_site_fract_z
 _atom_site_occupancy
  Ti  Ti0  1  0.000000  0.000000  0.500000  1
  Mn  Mn1  1  0.500000  0.500000  0.000000  1
  Ga  Ga2  1  0.000000  0.000000  0.000000  1
  Pt  Pt3  1  0.500000  0.500000  0.500000  1
  Pt  Pt4  1  0.500000  0.000000  0.241237  1
  Pt  Pt5  1  0.500000  0.000000  0.758763  1
  Pt  Pt6  1  0.000000  0.500000  0.241237  1
  Pt  Pt7  1  0.000000  0.500000  0.758763  1
