# generated using pymatgen
data_ErTm6ThTl3InAu8
_symmetry_space_group_name_H-M   'P 1'
_cell_length_a   8.04618699
_cell_length_b   8.04917013
_cell_length_c   7.30820802
_cell_angle_alpha   90.00897722
_cell_angle_beta   90.01205165
_cell_angle_gamma   90.33881641
_symmetry_Int_Tables_number   1
_chemical_formula_structural   ErTm6ThTl3InAu8
_chemical_formula_sum   'Er1 Tm6 Th1 Tl3 In1 Au8'
_cell_volume   473.30873560
_cell_formula_units_Z   1
loop_
 _symmetry_equiv_pos_site_id
 _symmetry_equiv_pos_as_xyz
  1  'x, y, z'
loop_
 _atom_site_type_symbol
 _atom_site_label
 _atom_site_symmetry_multiplicity
 _atom_site_fract_x
 _atom_site_fract_y
 _atom_site_fract_z
 _atom_site_occupancy
  Er  Er0  1  0.159534  0.839602  0.499774  1
  Tm  Tm1  1  0.339202  0.344645  0.000296  1
  Tm  Tm2  1  0.656290  0.659882  0.000396  1
  Tm  Tm3  1  0.680036  0.680060  0.499806  1
  Tm  Tm4  1  0.319295  0.320422  0.499666  1
  Tm  Tm5  1  0.182739  0.816925  0.000045  1
  Tm  Tm6  1  0.820636  0.179939  0.000191  1
  Th  Th7  1  0.841067  0.159926  0.499754  1
  Tl  Tl8  1  0.497607  0.997807  0.251334  1
  Tl  Tl9  1  0.002040  0.502324  0.748334  1
  Tl  Tl10  1  0.497757  0.998069  0.748581  1
  In  In11  1  0.002032  0.502809  0.251506  1
  Au  Au12  1  0.627859  0.377604  0.263978  1
  Au  Au13  1  0.368236  0.625720  0.272956  1
  Au  Au14  1  0.131175  0.126052  0.777896  1
  Au  Au15  1  0.873129  0.869475  0.778034  1
  Au  Au16  1  0.372371  0.628447  0.726600  1
  Au  Au17  1  0.624211  0.375113  0.735879  1
  Au  Au18  1  0.875925  0.865621  0.222848  1
  Au  Au19  1  0.128857  0.129560  0.222129  1
