# generated using pymatgen
data_Tb3Ho3Al24Os7Au
_symmetry_space_group_name_H-M   'P 1'
_cell_length_a   8.87090801
_cell_length_b   8.86875462
_cell_length_c   9.57520216
_cell_angle_alpha   89.80850832
_cell_angle_beta   90.18263541
_cell_angle_gamma   119.95245518
_symmetry_Int_Tables_number   1
_chemical_formula_structural   Tb3Ho3Al24Os7Au
_chemical_formula_sum   'Tb3 Ho3 Al24 Os7 Au1'
_cell_volume   652.70069247
_cell_formula_units_Z   1
loop_
 _symmetry_equiv_pos_site_id
 _symmetry_equiv_pos_as_xyz
  1  'x, y, z'
loop_
 _atom_site_type_symbol
 _atom_site_label
 _atom_site_symmetry_multiplicity
 _atom_site_fract_x
 _atom_site_fract_y
 _atom_site_fract_z
 _atom_site_occupancy
  Tb  Tb0  1  0.190457  0.386648  0.251215  1
  Tb  Tb1  1  0.809457  0.613286  0.748785  1
  Tb  Tb2  1  0.613346  0.809551  0.251231  1
  Ho  Ho3  1  0.387221  0.190606  0.748657  1
  Ho  Ho4  1  0.194824  0.805114  0.253246  1
  Ho  Ho5  1  0.805054  0.194866  0.746742  1
  Al  Al6  1  0.328485  0.671464  0.021277  1
  Al  Al7  1  0.671299  0.328456  0.978566  1
  Al  Al8  1  0.666166  0.333534  0.518045  1
  Al  Al9  1  0.333599  0.666325  0.482110  1
  Al  Al10  1  0.162722  0.325700  0.575676  1
  Al  Al11  1  0.837393  0.674229  0.424411  1
  Al  Al12  1  0.674280  0.837401  0.575651  1
  Al  Al13  1  0.848392  0.677650  0.079408  1
  Al  Al14  1  0.325749  0.162601  0.424567  1
  Al  Al15  1  0.151685  0.322300  0.920509  1
  Al  Al16  1  0.163325  0.836922  0.575161  1
  Al  Al17  1  0.322320  0.151590  0.079289  1
  Al  Al18  1  0.836769  0.163245  0.424931  1
  Al  Al19  1  0.677690  0.848395  0.920528  1
  Al  Al20  1  0.836763  0.163250  0.075808  1
  Al  Al21  1  0.163341  0.836927  0.924090  1
  Al  Al22  1  0.560710  0.121535  0.249258  1
  Al  Al23  1  0.439214  0.878746  0.750719  1
  Al  Al24  1  0.878488  0.439291  0.249278  1
  Al  Al25  1  0.121549  0.560732  0.750722  1
  Al  Al26  1  0.563721  0.436251  0.255765  1
  Al  Al27  1  0.436228  0.563447  0.744271  1
  Al  Al28  1  0.999585  0.000410  0.250390  1
  Al  Al29  1  0.000707  0.999736  0.749615  1
  Os  Os30  1  0.499894  0.000147  0.999807  1
  Os  Os31  1  0.999913  0.499936  0.999964  1
  Os  Os32  1  0.499906  0.000114  0.500159  1
  Os  Os33  1  0.999882  0.499938  0.500042  1
  Os  Os34  1  0.499896  0.499737  0.500167  1
  Os  Os35  1  0.000004  0.000006  0.999963  1
  Os  Os36  1  0.000025  0.000012  0.500050  1
  Au  Au37  1  0.499943  0.499902  0.999928  1
