# generated using pymatgen
data_Eu3Sn4Sb
_symmetry_space_group_name_H-M   'P 1'
_cell_length_a   8.77357370
_cell_length_b   8.77357290
_cell_length_c   8.77357429
_cell_angle_alpha   120.12121047
_cell_angle_beta   120.12120765
_cell_angle_gamma   89.79018527
_symmetry_Int_Tables_number   1
_chemical_formula_structural   Eu3Sn4Sb
_chemical_formula_sum   'Eu6 Sn8 Sb2'
_cell_volume   476.66695092
_cell_formula_units_Z   2
loop_
 _symmetry_equiv_pos_site_id
 _symmetry_equiv_pos_as_xyz
  1  'x, y, z'
loop_
 _atom_site_type_symbol
 _atom_site_label
 _atom_site_symmetry_multiplicity
 _atom_site_fract_x
 _atom_site_fract_y
 _atom_site_fract_z
 _atom_site_occupancy
  Eu  Eu0  1  0.250000  0.250000  0.000000  1
  Eu  Eu1  1  0.750000  0.750000  0.000000  1
  Eu  Eu2  1  0.161842  0.661842  0.823684  1
  Eu  Eu3  1  0.838158  0.338158  0.176316  1
  Eu  Eu4  1  0.661842  0.838158  0.500000  1
  Eu  Eu5  1  0.338158  0.161842  0.500000  1
  Sn  Sn6  1  0.827648  0.327648  0.787685  1
  Sn  Sn7  1  0.172352  0.672352  0.212315  1
  Sn  Sn8  1  0.539962  0.039962  0.212315  1
  Sn  Sn9  1  0.327648  0.539962  0.500000  1
  Sn  Sn10  1  0.960038  0.172352  0.500000  1
  Sn  Sn11  1  0.460038  0.960038  0.787685  1
  Sn  Sn12  1  0.672352  0.460038  0.500000  1
  Sn  Sn13  1  0.039962  0.827648  0.500000  1
  Sb  Sb14  1  0.000000  0.000000  0.000000  1
  Sb  Sb15  1  0.500000  0.500000  0.000000  1
