# generated using pymatgen
data_PF7
_symmetry_space_group_name_H-M   'P 1'
_cell_length_a   4.77966465
_cell_length_b   5.28969973
_cell_length_c   5.40376929
_cell_angle_alpha   85.07777094
_cell_angle_beta   82.76275812
_cell_angle_gamma   86.97359657
_symmetry_Int_Tables_number   1
_chemical_formula_structural   PF7
_chemical_formula_sum   'P1 F7'
_cell_volume   134.91323450
_cell_formula_units_Z   1
loop_
 _symmetry_equiv_pos_site_id
 _symmetry_equiv_pos_as_xyz
  1  'x, y, z'
loop_
 _atom_site_type_symbol
 _atom_site_label
 _atom_site_symmetry_multiplicity
 _atom_site_fract_x
 _atom_site_fract_y
 _atom_site_fract_z
 _atom_site_occupancy
  P  P0  1  0.666483  0.114579  0.424306  1
  F  F1  1  0.488653  0.884300  0.362121  1
  F  F2  1  0.844348  0.343753  0.491996  1
  F  F3  1  0.354647  0.523987  0.830142  1
  F  F4  1  0.924068  0.023427  0.241064  1
  F  F5  1  0.631948  0.013135  0.707480  1
  F  F6  1  0.077547  0.616887  0.916862  1
  F  F7  1  0.445927  0.309959  0.320075  1
