# generated using pymatgen
data_Pr3Co8MoP6
_symmetry_space_group_name_H-M   'P 1'
_cell_length_a   3.80131000
_cell_length_b   10.75523900
_cell_length_c   12.50269700
_cell_angle_alpha   90.00000000
_cell_angle_beta   90.00000000
_cell_angle_gamma   90.00000000
_symmetry_Int_Tables_number   1
_chemical_formula_structural   Pr3Co8MoP6
_chemical_formula_sum   'Pr6 Co16 Mo2 P12'
_cell_volume   511.16023368
_cell_formula_units_Z   2
loop_
 _symmetry_equiv_pos_site_id
 _symmetry_equiv_pos_as_xyz
  1  'x, y, z'
loop_
 _atom_site_type_symbol
 _atom_site_label
 _atom_site_symmetry_multiplicity
 _atom_site_fract_x
 _atom_site_fract_y
 _atom_site_fract_z
 _atom_site_occupancy
  Pr  Pr0  1  0.000000  0.500000  0.523510  1
  Pr  Pr1  1  0.500000  0.000000  0.476490  1
  Pr  Pr2  1  0.500000  0.818797  0.205347  1
  Pr  Pr3  1  0.500000  0.181203  0.205347  1
  Pr  Pr4  1  0.000000  0.681203  0.794653  1
  Pr  Pr5  1  0.000000  0.318797  0.794653  1
  Co  Co6  1  0.500000  0.500000  0.703283  1
  Co  Co7  1  0.000000  0.000000  0.296717  1
  Co  Co8  1  0.000000  0.500000  0.987826  1
  Co  Co9  1  0.500000  0.000000  0.012174  1
  Co  Co10  1  0.500000  0.332171  0.992052  1
  Co  Co11  1  0.500000  0.667829  0.992052  1
  Co  Co12  1  0.000000  0.167829  0.007948  1
  Co  Co13  1  0.000000  0.832171  0.007948  1
  Co  Co14  1  0.500000  0.295908  0.430851  1
  Co  Co15  1  0.500000  0.704092  0.430851  1
  Co  Co16  1  0.000000  0.204092  0.569149  1
  Co  Co17  1  0.000000  0.795908  0.569149  1
  Co  Co18  1  0.500000  0.880781  0.708627  1
  Co  Co19  1  0.500000  0.119219  0.708627  1
  Co  Co20  1  0.000000  0.619219  0.291373  1
  Co  Co21  1  0.000000  0.380781  0.291373  1
  Mo  Mo22  1  0.500000  0.500000  0.153883  1
  Mo  Mo23  1  0.000000  0.000000  0.846117  1
  P  P24  1  0.500000  0.500000  0.886764  1
  P  P25  1  0.000000  0.000000  0.113236  1
  P  P26  1  0.500000  0.500000  0.343064  1
  P  P27  1  0.000000  0.000000  0.656936  1
  P  P28  1  0.500000  0.305798  0.613816  1
  P  P29  1  0.500000  0.694202  0.613816  1
  P  P30  1  0.000000  0.194202  0.386184  1
  P  P31  1  0.000000  0.805798  0.386184  1
  P  P32  1  0.500000  0.846977  0.896252  1
  P  P33  1  0.500000  0.153023  0.896252  1
  P  P34  1  0.000000  0.653023  0.103748  1
  P  P35  1  0.000000  0.346977  0.103748  1
