# generated using pymatgen
data_DySc6Co6CuSn22
_symmetry_space_group_name_H-M   'P 1'
_cell_length_a   9.51820700
_cell_length_b   9.51820620
_cell_length_c   9.68009600
_cell_angle_alpha   90.00000000
_cell_angle_beta   90.00000000
_cell_angle_gamma   119.99999236
_symmetry_Int_Tables_number   1
_chemical_formula_structural   DySc6Co6CuSn22
_chemical_formula_sum   'Dy1 Sc6 Co6 Cu1 Sn22'
_cell_volume   759.48741857
_cell_formula_units_Z   1
loop_
 _symmetry_equiv_pos_site_id
 _symmetry_equiv_pos_as_xyz
  1  'x, y, z'
loop_
 _atom_site_type_symbol
 _atom_site_label
 _atom_site_symmetry_multiplicity
 _atom_site_fract_x
 _atom_site_fract_y
 _atom_site_fract_z
 _atom_site_occupancy
  Dy  Dy0  1  0.000000  0.000000  0.000000  1
  Sc  Sc1  1  0.483170  0.516830  0.308124  1
  Sc  Sc2  1  0.516830  0.483170  0.691876  1
  Sc  Sc3  1  0.483170  0.966340  0.308124  1
  Sc  Sc4  1  0.516830  0.033660  0.691876  1
  Sc  Sc5  1  0.033660  0.516830  0.308124  1
  Sc  Sc6  1  0.966340  0.483170  0.691876  1
  Co  Co7  1  0.830350  0.169650  0.199498  1
  Co  Co8  1  0.169650  0.830350  0.800502  1
  Co  Co9  1  0.830350  0.660700  0.199498  1
  Co  Co10  1  0.169650  0.339300  0.800502  1
  Co  Co11  1  0.339300  0.169650  0.199498  1
  Co  Co12  1  0.660700  0.830350  0.800502  1
  Cu  Cu13  1  0.000000  0.000000  0.500000  1
  Sn  Sn14  1  0.347815  0.000000  0.000000  1
  Sn  Sn15  1  0.652185  0.000000  0.000000  1
  Sn  Sn16  1  0.000000  0.347815  0.000000  1
  Sn  Sn17  1  0.000000  0.652185  0.000000  1
  Sn  Sn18  1  0.652185  0.652185  0.000000  1
  Sn  Sn19  1  0.347815  0.347815  0.000000  1
  Sn  Sn20  1  0.333333  0.666667  0.820656  1
  Sn  Sn21  1  0.666667  0.333333  0.179344  1
  Sn  Sn22  1  0.781469  0.218531  0.457097  1
  Sn  Sn23  1  0.218531  0.781469  0.542903  1
  Sn  Sn24  1  0.781469  0.562938  0.457097  1
  Sn  Sn25  1  0.218531  0.437062  0.542903  1
  Sn  Sn26  1  0.437062  0.218531  0.457097  1
  Sn  Sn27  1  0.562938  0.781469  0.542903  1
  Sn  Sn28  1  0.333333  0.666667  0.138507  1
  Sn  Sn29  1  0.666667  0.333333  0.861493  1
  Sn  Sn30  1  0.113694  0.886306  0.285797  1
  Sn  Sn31  1  0.886306  0.113694  0.714203  1
  Sn  Sn32  1  0.113694  0.227388  0.285797  1
  Sn  Sn33  1  0.886306  0.772612  0.714203  1
  Sn  Sn34  1  0.772612  0.886306  0.285797  1
  Sn  Sn35  1  0.227388  0.113694  0.714203  1
