# generated using pymatgen
data_Zr6In6Pd5Pt
_symmetry_space_group_name_H-M   'P 1'
_cell_length_a   7.56922600
_cell_length_b   7.56922673
_cell_length_c   7.20023500
_cell_angle_alpha   90.00000000
_cell_angle_beta   90.00000000
_cell_angle_gamma   119.99997933
_symmetry_Int_Tables_number   1
_chemical_formula_structural   Zr6In6Pd5Pt
_chemical_formula_sum   'Zr6 In6 Pd5 Pt1'
_cell_volume   357.25669815
_cell_formula_units_Z   1
loop_
 _symmetry_equiv_pos_site_id
 _symmetry_equiv_pos_as_xyz
  1  'x, y, z'
loop_
 _atom_site_type_symbol
 _atom_site_label
 _atom_site_symmetry_multiplicity
 _atom_site_fract_x
 _atom_site_fract_y
 _atom_site_fract_z
 _atom_site_occupancy
  Zr  Zr0  1  0.390432  0.412591  0.751684  1
  Zr  Zr1  1  0.022159  0.609568  0.751684  1
  Zr  Zr2  1  0.587409  0.977841  0.751684  1
  Zr  Zr3  1  0.606772  0.015376  0.249436  1
  Zr  Zr4  1  0.984624  0.591396  0.249436  1
  Zr  Zr5  1  0.408604  0.393228  0.249436  1
  In  In6  1  0.271045  0.004631  0.000350  1
  In  In7  1  0.733585  0.728955  0.000350  1
  In  In8  1  0.995369  0.266415  0.000350  1
  In  In9  1  0.730386  0.729050  0.501031  1
  In  In10  1  0.270950  0.001336  0.501031  1
  In  In11  1  0.998664  0.269614  0.501031  1
  Pd  Pd12  1  0.666667  0.333333  0.965432  1
  Pd  Pd13  1  0.000000  0.000000  0.750417  1
  Pd  Pd14  1  0.666667  0.333333  0.534435  1
  Pd  Pd15  1  0.333333  0.666667  0.460397  1
  Pd  Pd16  1  0.000000  0.000000  0.250730  1
  Pt  Pt17  1  0.333333  0.666667  0.031086  1
