# generated using pymatgen
data_Hf3Zn3Pd2Rh
_symmetry_space_group_name_H-M   'P 1'
_cell_length_a   7.30297400
_cell_length_b   7.30297040
_cell_length_c   3.32861100
_cell_angle_alpha   90.00000000
_cell_angle_beta   90.00000000
_cell_angle_gamma   119.99999821
_symmetry_Int_Tables_number   1
_chemical_formula_structural   Hf3Zn3Pd2Rh
_chemical_formula_sum   'Hf3 Zn3 Pd2 Rh1'
_cell_volume   153.74215993
_cell_formula_units_Z   1
loop_
 _symmetry_equiv_pos_site_id
 _symmetry_equiv_pos_as_xyz
  1  'x, y, z'
loop_
 _atom_site_type_symbol
 _atom_site_label
 _atom_site_symmetry_multiplicity
 _atom_site_fract_x
 _atom_site_fract_y
 _atom_site_fract_z
 _atom_site_occupancy
  Hf  Hf0  1  0.401112  0.011313  0.500000  1
  Hf  Hf1  1  0.988689  0.389799  0.500000  1
  Hf  Hf2  1  0.610200  0.598889  0.500000  1
  Zn  Zn3  1  0.723972  0.996440  0.000000  1
  Zn  Zn4  1  0.003559  0.727532  0.000000  1
  Zn  Zn5  1  0.272468  0.276028  0.000000  1
  Pd  Pd6  1  0.333333  0.666666  0.000000  1
  Pd  Pd7  1  0.000000  0.000000  0.500000  1
  Rh  Rh8  1  0.666666  0.333333  0.000000  1
