# generated using pymatgen
data_NaLu4Be4P8Ir19
_symmetry_space_group_name_H-M   'P 1'
_cell_length_a   12.58989900
_cell_length_b   12.49877289
_cell_length_c   3.94063500
_cell_angle_alpha   90.00000000
_cell_angle_beta   90.00000000
_cell_angle_gamma   120.14332678
_symmetry_Int_Tables_number   1
_chemical_formula_structural   NaLu4Be4P8Ir19
_chemical_formula_sum   'Na1 Lu4 Be4 P8 Ir19'
_cell_volume   536.23779332
_cell_formula_units_Z   1
loop_
 _symmetry_equiv_pos_site_id
 _symmetry_equiv_pos_as_xyz
  1  'x, y, z'
loop_
 _atom_site_type_symbol
 _atom_site_label
 _atom_site_symmetry_multiplicity
 _atom_site_fract_x
 _atom_site_fract_y
 _atom_site_fract_z
 _atom_site_occupancy
  Na  Na0  1  0.182803  0.189228  0.000000  1
  Lu  Lu1  1  0.334774  0.667850  0.500000  1
  Lu  Lu2  1  0.678637  0.331248  0.500000  1
  Lu  Lu3  1  0.811443  0.000233  0.000000  1
  Lu  Lu4  1  0.005355  0.818643  0.000000  1
  Be  Be5  1  0.314912  0.837041  0.000000  1
  Be  Be6  1  0.163529  0.475973  0.000000  1
  Be  Be7  1  0.520241  0.683790  0.000000  1
  Be  Be8  1  0.831931  0.308035  0.000000  1
  P  P9  1  0.483677  0.176700  0.000000  1
  P  P10  1  0.697394  0.517788  0.000000  1
  P  P11  1  0.359596  0.372431  0.500000  1
  P  P12  1  0.626289  0.992432  0.500000  1
  P  P13  1  0.007096  0.632381  0.500000  1
  P  P14  1  0.818015  0.820460  0.500000  1
  P  P15  1  0.182296  0.003840  0.500000  1
  P  P16  1  0.998296  0.182810  0.500000  1
  Ir  Ir17  1  0.192220  0.819322  0.500000  1
  Ir  Ir18  1  0.179257  0.380097  0.500000  1
  Ir  Ir19  1  0.625317  0.805579  0.500000  1
  Ir  Ir20  1  0.809706  0.185032  0.500000  1
  Ir  Ir21  1  0.383246  0.191989  0.500000  1
  Ir  Ir22  1  0.810587  0.624544  0.500000  1
  Ir  Ir23  1  0.128523  0.640201  0.000000  1
  Ir  Ir24  1  0.357156  0.484560  0.000000  1
  Ir  Ir25  1  0.511729  0.867897  0.000000  1
  Ir  Ir26  1  0.633063  0.129392  0.000000  1
  Ir  Ir27  1  0.500701  0.369663  0.000000  1
  Ir  Ir28  1  0.874701  0.510003  0.000000  1
  Ir  Ir29  1  0.546361  0.553325  0.500000  1
  Ir  Ir30  1  0.442789  0.988983  0.500000  1
  Ir  Ir31  1  0.992562  0.442678  0.500000  1
  Ir  Ir32  1  0.718724  0.714157  0.000000  1
  Ir  Ir33  1  0.285398  0.005010  0.000000  1
  Ir  Ir34  1  0.994173  0.278479  0.000000  1
  Ir  Ir35  1  0.997498  0.998203  0.500000  1
