# generated using pymatgen
data_Tb3Pr2YOsI10
_symmetry_space_group_name_H-M   'P 1'
_cell_length_a   7.85811501
_cell_length_b   9.92360881
_cell_length_c   9.86589686
_cell_angle_alpha   106.60290448
_cell_angle_beta   96.09175700
_cell_angle_gamma   105.04948172
_symmetry_Int_Tables_number   1
_chemical_formula_structural   Tb3Pr2YOsI10
_chemical_formula_sum   'Tb3 Pr2 Y1 Os1 I10'
_cell_volume   698.34293890
_cell_formula_units_Z   1
loop_
 _symmetry_equiv_pos_site_id
 _symmetry_equiv_pos_as_xyz
  1  'x, y, z'
loop_
 _atom_site_type_symbol
 _atom_site_label
 _atom_site_symmetry_multiplicity
 _atom_site_fract_x
 _atom_site_fract_y
 _atom_site_fract_z
 _atom_site_occupancy
  Tb  Tb0  1  0.968974  0.288471  0.086430  1
  Tb  Tb1  1  0.030957  0.711505  0.913601  1
  Tb  Tb2  1  0.351623  0.126069  0.167480  1
  Pr  Pr3  1  0.115017  0.043659  0.766986  1
  Pr  Pr4  1  0.884936  0.956374  0.233002  1
  Y  Y5  1  0.648285  0.873858  0.832473  1
  Os  Os6  1  0.999976  0.000006  0.000002  1
  I  I7  1  0.346571  0.446190  0.269532  1
  I  I8  1  0.653417  0.553928  0.730495  1
  I  I9  1  0.264850  0.088736  0.455104  1
  I  I10  1  0.735116  0.911245  0.544991  1
  I  I11  1  0.084649  0.377179  0.824132  1
  I  I12  1  0.915339  0.622821  0.175858  1
  I  I13  1  0.450753  0.817787  0.088994  1
  I  I14  1  0.549318  0.182143  0.910897  1
  I  I15  1  0.777190  0.260226  0.342646  1
  I  I16  1  0.223028  0.739802  0.657376  1
