# generated using pymatgen
data_DyEr(ScRh)2
_symmetry_space_group_name_H-M   'P 1'
_cell_length_a   4.22265800
_cell_length_b   7.19970500
_cell_length_c   8.69105000
_cell_angle_alpha   90.00000000
_cell_angle_beta   90.00000000
_cell_angle_gamma   90.00000000
_symmetry_Int_Tables_number   1
_chemical_formula_structural   DyEr(ScRh)2
_chemical_formula_sum   'Dy2 Er2 Sc4 Rh4'
_cell_volume   264.22436274
_cell_formula_units_Z   2
loop_
 _symmetry_equiv_pos_site_id
 _symmetry_equiv_pos_as_xyz
  1  'x, y, z'
loop_
 _atom_site_type_symbol
 _atom_site_label
 _atom_site_symmetry_multiplicity
 _atom_site_fract_x
 _atom_site_fract_y
 _atom_site_fract_z
 _atom_site_occupancy
  Dy  Dy0  1  0.250000  0.981254  0.326495  1
  Dy  Dy1  1  0.250000  0.481254  0.173505  1
  Er  Er2  1  0.750000  0.019637  0.674136  1
  Er  Er3  1  0.750000  0.519637  0.825864  1
  Sc  Sc4  1  0.250000  0.360177  0.568901  1
  Sc  Sc5  1  0.250000  0.860177  0.931099  1
  Sc  Sc6  1  0.750000  0.638781  0.433535  1
  Sc  Sc7  1  0.750000  0.138781  0.066465  1
  Rh  Rh8  1  0.250000  0.243673  0.898859  1
  Rh  Rh9  1  0.250000  0.743673  0.601141  1
  Rh  Rh10  1  0.750000  0.756481  0.098616  1
  Rh  Rh11  1  0.750000  0.256481  0.401384  1
