# generated using pymatgen
data_Dy8Ta3TiNb7Si16Mo
_symmetry_space_group_name_H-M   'P 1'
_cell_length_a   7.05818386
_cell_length_b   7.05818228
_cell_length_c   13.00358400
_cell_angle_alpha   89.94838804
_cell_angle_beta   90.05161195
_cell_angle_gamma   89.98032064
_symmetry_Int_Tables_number   1
_chemical_formula_structural   Dy8Ta3TiNb7Si16Mo
_chemical_formula_sum   'Dy8 Ta3 Ti1 Nb7 Si16 Mo1'
_cell_volume   647.81131123
_cell_formula_units_Z   1
loop_
 _symmetry_equiv_pos_site_id
 _symmetry_equiv_pos_as_xyz
  1  'x, y, z'
loop_
 _atom_site_type_symbol
 _atom_site_label
 _atom_site_symmetry_multiplicity
 _atom_site_fract_x
 _atom_site_fract_y
 _atom_site_fract_z
 _atom_site_occupancy
  Dy  Dy0  1  0.998946  0.657925  0.032573  1
  Dy  Dy1  1  0.002703  0.341778  0.532025  1
  Dy  Dy2  1  0.656874  0.997601  0.968841  1
  Dy  Dy3  1  0.159463  0.502566  0.783006  1
  Dy  Dy4  1  0.840929  0.497303  0.280948  1
  Dy  Dy5  1  0.502668  0.159003  0.217544  1
  Dy  Dy6  1  0.498187  0.842601  0.717758  1
  Dy  Dy7  1  0.342198  0.001357  0.467331  1
  Ta  Ta8  1  0.672051  0.671490  0.499663  1
  Ta  Ta9  1  0.828495  0.171719  0.749749  1
  Ta  Ta10  1  0.171102  0.828269  0.249175  1
  Ti  Ti11  1  0.654076  0.491924  0.876398  1
  Nb  Nb12  1  0.346971  0.507124  0.376285  1
  Nb  Nb13  1  0.845167  0.991098  0.373799  1
  Nb  Nb14  1  0.008517  0.152959  0.126101  1
  Nb  Nb15  1  0.992587  0.847104  0.626276  1
  Nb  Nb16  1  0.508404  0.345643  0.623950  1
  Nb  Nb17  1  0.153575  0.005825  0.874939  1
  Nb  Nb18  1  0.328974  0.327736  0.000076  1
  Si  Si19  1  0.045795  0.706820  0.436178  1
  Si  Si20  1  0.950914  0.294141  0.935439  1
  Si  Si21  1  0.706046  0.045004  0.563684  1
  Si  Si22  1  0.209882  0.457249  0.186141  1
  Si  Si23  1  0.792925  0.544984  0.687269  1
  Si  Si24  1  0.455792  0.208963  0.814160  1
  Si  Si25  1  0.543827  0.792648  0.311680  1
  Si  Si26  1  0.294027  0.951094  0.064344  1
  Si  Si27  1  0.793344  0.866207  0.181237  1
  Si  Si28  1  0.297065  0.633689  0.567610  1
  Si  Si29  1  0.699795  0.370776  0.066771  1
  Si  Si30  1  0.633917  0.297090  0.432148  1
  Si  Si31  1  0.370098  0.701895  0.934226  1
  Si  Si32  1  0.133318  0.203556  0.317176  1
  Si  Si33  1  0.203624  0.133835  0.682830  1
  Si  Si34  1  0.865142  0.796350  0.818146  1
  Mo  Mo35  1  0.492608  0.654677  0.124523  1
