# generated using pymatgen
data_LaPr5(PtI3)2
_symmetry_space_group_name_H-M   'P 1'
_cell_length_a   10.97379290
_cell_length_b   10.99000321
_cell_length_c   10.99000361
_cell_angle_alpha   109.51805602
_cell_angle_beta   109.54138869
_cell_angle_gamma   109.41402335
_symmetry_Int_Tables_number   1
_chemical_formula_structural   LaPr5(PtI3)2
_chemical_formula_sum   'La2 Pr10 Pt4 I12'
_cell_volume   1019.55135318
_cell_formula_units_Z   2
loop_
 _symmetry_equiv_pos_site_id
 _symmetry_equiv_pos_as_xyz
  1  'x, y, z'
loop_
 _atom_site_type_symbol
 _atom_site_label
 _atom_site_symmetry_multiplicity
 _atom_site_fract_x
 _atom_site_fract_y
 _atom_site_fract_z
 _atom_site_occupancy
  La  La0  1  0.271027  0.019269  0.040842  1
  La  La1  1  0.228973  0.269814  0.748242  1
  Pr  Pr2  1  0.459378  0.479581  0.230640  1
  Pr  Pr3  1  0.753536  0.231262  0.272369  1
  Pr  Pr4  1  0.746464  0.018833  0.477726  1
  Pr  Pr5  1  0.230723  0.460113  0.478374  1
  Pr  Pr6  1  0.269277  0.747651  0.229391  1
  Pr  Pr7  1  0.040622  0.271261  0.020203  1
  Pr  Pr8  1  0.021176  0.041881  0.270576  1
  Pr  Pr9  1  0.478824  0.749400  0.020704  1
  Pr  Pr10  1  0.481839  0.230905  0.461996  1
  Pr  Pr11  1  0.018161  0.480158  0.749066  1
  Pt  Pt12  1  0.251067  0.249710  0.250228  1
  Pt  Pt13  1  0.499289  0.000590  0.250174  1
  Pt  Pt14  1  0.000711  0.250886  0.501301  1
  Pt  Pt15  1  0.248933  0.499162  0.998644  1
  I  I16  1  0.250030  0.755879  0.739591  1
  I  I17  1  0.517899  0.511165  0.757860  1
  I  I18  1  0.982101  0.739961  0.993266  1
  I  I19  1  0.741738  0.249850  0.758126  1
  I  I20  1  0.986596  0.982155  0.740019  1
  I  I21  1  0.249970  0.989561  0.505849  1
  I  I22  1  0.758262  0.516388  0.508112  1
  I  I23  1  0.513404  0.253423  0.995559  1
  I  I24  1  0.757700  0.742368  0.250057  1
  I  I25  1  0.742300  0.992357  0.984669  1
  I  I26  1  0.991663  0.508279  0.249801  1
  I  I27  1  0.508337  0.758138  0.516615  1
