# generated using pymatgen
data_Ac3ScSb5
_symmetry_space_group_name_H-M   'P 1'
_cell_length_a   9.89505512
_cell_length_b   9.89505596
_cell_length_c   6.61415601
_cell_angle_alpha   89.99774400
_cell_angle_beta   89.99775023
_cell_angle_gamma   119.98282285
_symmetry_Int_Tables_number   1
_chemical_formula_structural   Ac3ScSb5
_chemical_formula_sum   'Ac6 Sc2 Sb10'
_cell_volume   560.94035173
_cell_formula_units_Z   2
loop_
 _symmetry_equiv_pos_site_id
 _symmetry_equiv_pos_as_xyz
  1  'x, y, z'
loop_
 _atom_site_type_symbol
 _atom_site_label
 _atom_site_symmetry_multiplicity
 _atom_site_fract_x
 _atom_site_fract_y
 _atom_site_fract_z
 _atom_site_occupancy
  Ac  Ac0  1  0.618109  0.000015  0.249991  1
  Ac  Ac1  1  0.000015  0.618109  0.249991  1
  Ac  Ac2  1  0.381798  0.381798  0.249993  1
  Ac  Ac3  1  0.381886  0.999982  0.749996  1
  Ac  Ac4  1  0.999983  0.381885  0.749996  1
  Ac  Ac5  1  0.618196  0.618196  0.749985  1
  Sc  Sc6  1  0.999981  0.999981  0.000085  1
  Sc  Sc7  1  0.000064  0.000064  0.500025  1
  Sb  Sb8  1  0.666644  0.333348  0.999993  1
  Sb  Sb9  1  0.333349  0.666644  0.999993  1
  Sb  Sb10  1  0.747903  0.747903  0.250016  1
  Sb  Sb11  1  0.252030  0.999975  0.249996  1
  Sb  Sb12  1  0.999975  0.252030  0.249996  1
  Sb  Sb13  1  0.666654  0.333346  0.499990  1
  Sb  Sb14  1  0.333346  0.666654  0.499990  1
  Sb  Sb15  1  0.252091  0.252092  0.749990  1
  Sb  Sb16  1  0.747967  0.000014  0.749987  1
  Sb  Sb17  1  0.000015  0.747966  0.749987  1
