# generated using pymatgen
data_Er4CoTc3B16
_symmetry_space_group_name_H-M   'P 1'
_cell_length_a   3.53729400
_cell_length_b   5.93921250
_cell_length_c   11.49497097
_cell_angle_alpha   89.95281707
_cell_angle_beta   90.00000000
_cell_angle_gamma   90.00000000
_symmetry_Int_Tables_number   1
_chemical_formula_structural   Er4CoTc3B16
_chemical_formula_sum   'Er4 Co1 Tc3 B16'
_cell_volume   241.49478328
_cell_formula_units_Z   1
loop_
 _symmetry_equiv_pos_site_id
 _symmetry_equiv_pos_as_xyz
  1  'x, y, z'
loop_
 _atom_site_type_symbol
 _atom_site_label
 _atom_site_symmetry_multiplicity
 _atom_site_fract_x
 _atom_site_fract_y
 _atom_site_fract_z
 _atom_site_occupancy
  Er  Er0  1  0.500000  0.374599  0.146543  1
  Er  Er1  1  0.500000  0.628652  0.851854  1
  Er  Er2  1  0.500000  0.127866  0.652231  1
  Er  Er3  1  0.500000  0.872268  0.346937  1
  Co  Co4  1  0.500000  0.862004  0.092107  1
  Tc  Tc5  1  0.500000  0.366656  0.411414  1
  Tc  Tc6  1  0.500000  0.632099  0.586385  1
  Tc  Tc7  1  0.500000  0.132918  0.913823  1
  B  B8  1  0.000000  0.112124  0.048073  1
  B  B9  1  0.000000  0.885548  0.953814  1
  B  B10  1  0.000000  0.386062  0.547055  1
  B  B11  1  0.000000  0.614129  0.451811  1
  B  B12  1  0.000000  0.134549  0.468397  1
  B  B13  1  0.000000  0.865259  0.530920  1
  B  B14  1  0.000000  0.365864  0.970224  1
  B  B15  1  0.000000  0.637926  0.032461  1
  B  B16  1  0.000000  0.023445  0.191330  1
  B  B17  1  0.000000  0.973887  0.808517  1
  B  B18  1  0.000000  0.476509  0.693294  1
  B  B19  1  0.000000  0.526488  0.305432  1
  B  B20  1  0.000000  0.211309  0.312965  1
  B  B21  1  0.000000  0.786856  0.686262  1
  B  B22  1  0.000000  0.287059  0.815509  1
  B  B23  1  0.000000  0.715926  0.182641  1
