# generated using pymatgen
data_TmPa2(SnRh)3
_symmetry_space_group_name_H-M   'P 1'
_cell_length_a   7.37843900
_cell_length_b   7.46825897
_cell_length_c   4.00394900
_cell_angle_alpha   90.00000000
_cell_angle_beta   90.00000000
_cell_angle_gamma   119.60294021
_symmetry_Int_Tables_number   1
_chemical_formula_structural   TmPa2(SnRh)3
_chemical_formula_sum   'Tm1 Pa2 Sn3 Rh3'
_cell_volume   191.83453339
_cell_formula_units_Z   1
loop_
 _symmetry_equiv_pos_site_id
 _symmetry_equiv_pos_as_xyz
  1  'x, y, z'
loop_
 _atom_site_type_symbol
 _atom_site_label
 _atom_site_symmetry_multiplicity
 _atom_site_fract_x
 _atom_site_fract_y
 _atom_site_fract_z
 _atom_site_occupancy
  Tm  Tm0  1  0.407675  0.000000  0.000000  1
  Pa  Pa1  1  0.001382  0.412745  0.000000  1
  Pa  Pa2  1  0.588636  0.587255  0.000000  1
  Sn  Sn3  1  0.256196  0.246048  0.500000  1
  Sn  Sn4  1  0.010149  0.753952  0.500000  1
  Sn  Sn5  1  0.734712  0.000000  0.500000  1
  Rh  Rh6  1  0.682444  0.353258  0.500000  1
  Rh  Rh7  1  0.329185  0.646742  0.500000  1
  Rh  Rh8  1  0.989622  0.000000  0.000000  1
