# generated using pymatgen
data_PrY9(Si2Hg)2
_symmetry_space_group_name_H-M   'P 1'
_cell_length_a   7.61493080
_cell_length_b   7.61493021
_cell_length_c   8.98828259
_cell_angle_alpha   115.03376060
_cell_angle_beta   115.03376300
_cell_angle_gamma   90.13903431
_symmetry_Int_Tables_number   1
_chemical_formula_structural   PrY9(Si2Hg)2
_chemical_formula_sum   'Pr1 Y9 Si4 Hg2'
_cell_volume   417.29274373
_cell_formula_units_Z   1
loop_
 _symmetry_equiv_pos_site_id
 _symmetry_equiv_pos_as_xyz
  1  'x, y, z'
loop_
 _atom_site_type_symbol
 _atom_site_label
 _atom_site_symmetry_multiplicity
 _atom_site_fract_x
 _atom_site_fract_y
 _atom_site_fract_z
 _atom_site_occupancy
  Pr  Pr0  1  0.528336  0.028336  0.712061  1
  Y  Y1  1  0.501339  0.499739  0.002021  1
  Y  Y2  1  0.999739  0.001339  0.002021  1
  Y  Y3  1  0.967988  0.811931  0.279533  1
  Y  Y4  1  0.311931  0.467988  0.279533  1
  Y  Y5  1  0.808880  0.308880  0.278962  1
  Y  Y6  1  0.468531  0.968531  0.277121  1
  Y  Y7  1  0.030963  0.191606  0.722419  1
  Y  Y8  1  0.691606  0.530963  0.722419  1
  Y  Y9  1  0.188776  0.688776  0.722845  1
  Si  Si10  1  0.625439  0.872705  0.001985  1
  Si  Si11  1  0.372705  0.125439  0.001985  1
  Si  Si12  1  0.878673  0.378673  0.003735  1
  Si  Si13  1  0.126113  0.626113  0.002021  1
  Hg  Hg14  1  0.754446  0.744536  0.495670  1
  Hg  Hg15  1  0.244536  0.254446  0.495670  1
