# generated using pymatgen
data_La20Ga5Si6Rh
_symmetry_space_group_name_H-M   'P 1'
_cell_length_a   7.89290211
_cell_length_b   7.88691389
_cell_length_c   14.47090500
_cell_angle_alpha   89.79081353
_cell_angle_beta   89.87392294
_cell_angle_gamma   90.46326892
_symmetry_Int_Tables_number   1
_chemical_formula_structural   La20Ga5Si6Rh
_chemical_formula_sum   'La20 Ga5 Si6 Rh1'
_cell_volume   900.78539725
_cell_formula_units_Z   1
loop_
 _symmetry_equiv_pos_site_id
 _symmetry_equiv_pos_as_xyz
  1  'x, y, z'
loop_
 _atom_site_type_symbol
 _atom_site_label
 _atom_site_symmetry_multiplicity
 _atom_site_fract_x
 _atom_site_fract_y
 _atom_site_fract_z
 _atom_site_occupancy
  La  La0  1  0.814382  0.833060  0.606117  1
  La  La1  1  0.183908  0.832630  0.102431  1
  La  La2  1  0.165353  0.814370  0.396915  1
  La  La3  1  0.999742  0.498563  0.721985  1
  La  La4  1  0.834138  0.187567  0.393619  1
  La  La5  1  0.677467  0.657780  0.391077  1
  La  La6  1  0.668624  0.314629  0.608398  1
  La  La7  1  0.331767  0.685230  0.606118  1
  La  La8  1  0.993791  0.500639  0.218555  1
  La  La9  1  0.662943  0.680928  0.108108  1
  La  La10  1  0.685249  0.330586  0.891539  1
  La  La11  1  0.831548  0.813559  0.894329  1
  La  La12  1  0.322526  0.341026  0.393455  1
  La  La13  1  0.185997  0.167630  0.605645  1
  La  La14  1  0.811232  0.163727  0.106568  1
  La  La15  1  0.314357  0.666182  0.893673  1
  La  La16  1  0.345421  0.323795  0.107371  1
  La  La17  1  0.511913  0.999906  0.281704  1
  La  La18  1  0.166580  0.184976  0.894607  1
  La  La19  1  0.500403  0.002429  0.777693  1
  Ga  Ga20  1  0.997807  0.499059  0.503734  1
  Ga  Ga21  1  0.500057  0.999356  0.497287  1
  Ga  Ga22  1  0.499183  0.998951  0.996267  1
  Ga  Ga23  1  0.121451  0.115537  0.249071  1
  Ga  Ga24  1  0.998584  0.497680  0.003051  1
  Si  Si25  1  0.113160  0.885814  0.750138  1
  Si  Si26  1  0.385400  0.387170  0.750060  1
  Si  Si27  1  0.378014  0.621801  0.249462  1
  Si  Si28  1  0.886548  0.881737  0.250802  1
  Si  Si29  1  0.612173  0.614977  0.749689  1
  Si  Si30  1  0.887158  0.112531  0.750221  1
  Rh  Rh31  1  0.613121  0.386172  0.250312  1
