# generated using pymatgen
data_Lu2Si3Rh
_symmetry_space_group_name_H-M   'P 1'
_cell_length_a   8.10982900
_cell_length_b   8.10982931
_cell_length_c   7.68813300
_cell_angle_alpha   90.00000000
_cell_angle_beta   90.00000000
_cell_angle_gamma   120.00000283
_symmetry_Int_Tables_number   1
_chemical_formula_structural   Lu2Si3Rh
_chemical_formula_sum   'Lu8 Si12 Rh4'
_cell_volume   437.89997205
_cell_formula_units_Z   4
loop_
 _symmetry_equiv_pos_site_id
 _symmetry_equiv_pos_as_xyz
  1  'x, y, z'
loop_
 _atom_site_type_symbol
 _atom_site_label
 _atom_site_symmetry_multiplicity
 _atom_site_fract_x
 _atom_site_fract_y
 _atom_site_fract_z
 _atom_site_occupancy
  Lu  Lu0  1  0.981607  0.490804  0.250000  1
  Lu  Lu1  1  0.509196  0.490804  0.250000  1
  Lu  Lu2  1  0.490804  0.981607  0.750000  1
  Lu  Lu3  1  0.018393  0.509196  0.750000  1
  Lu  Lu4  1  0.490804  0.509196  0.750000  1
  Lu  Lu5  1  0.509196  0.018393  0.250000  1
  Lu  Lu6  1  0.000000  0.000000  0.750000  1
  Lu  Lu7  1  0.000000  0.000000  0.250000  1
  Si  Si8  1  0.166744  0.833256  0.499775  1
  Si  Si9  1  0.166744  0.333487  0.499775  1
  Si  Si10  1  0.666513  0.833256  0.499775  1
  Si  Si11  1  0.333487  0.166744  0.999775  1
  Si  Si12  1  0.833256  0.666513  0.500225  1
  Si  Si13  1  0.833256  0.166744  0.999775  1
  Si  Si14  1  0.833256  0.666513  0.999775  1
  Si  Si15  1  0.166744  0.333487  0.000225  1
  Si  Si16  1  0.666513  0.833256  0.000225  1
  Si  Si17  1  0.333487  0.166744  0.500225  1
  Si  Si18  1  0.833256  0.166744  0.500225  1
  Si  Si19  1  0.166744  0.833256  0.000225  1
  Rh  Rh20  1  0.333333  0.666667  0.034431  1
  Rh  Rh21  1  0.666667  0.333333  0.965569  1
  Rh  Rh22  1  0.666667  0.333333  0.534431  1
  Rh  Rh23  1  0.333333  0.666667  0.465569  1
