# generated using pymatgen
data_Rb4Ba2ZrBi4
_symmetry_space_group_name_H-M   'P 1'
_cell_length_a   11.70609455
_cell_length_b   11.70609448
_cell_length_c   8.81635093
_cell_angle_alpha   88.60739252
_cell_angle_beta   88.60739518
_cell_angle_gamma   60.43229818
_symmetry_Int_Tables_number   1
_chemical_formula_structural   Rb4Ba2ZrBi4
_chemical_formula_sum   'Rb8 Ba4 Zr2 Bi8'
_cell_volume   1050.38166360
_cell_formula_units_Z   2
loop_
 _symmetry_equiv_pos_site_id
 _symmetry_equiv_pos_as_xyz
  1  'x, y, z'
loop_
 _atom_site_type_symbol
 _atom_site_label
 _atom_site_symmetry_multiplicity
 _atom_site_fract_x
 _atom_site_fract_y
 _atom_site_fract_z
 _atom_site_occupancy
  Rb  Rb0  1  0.943024  0.529137  0.374502  1
  Rb  Rb1  1  0.529137  0.943024  0.374502  1
  Rb  Rb2  1  0.721982  0.133278  0.187948  1
  Rb  Rb3  1  0.133278  0.721982  0.187948  1
  Rb  Rb4  1  0.141348  0.141348  0.202281  1
  Rb  Rb5  1  0.277306  0.864503  0.685404  1
  Rb  Rb6  1  0.864503  0.277306  0.685404  1
  Rb  Rb7  1  0.856479  0.856479  0.655501  1
  Ba  Ba8  1  0.529265  0.529265  0.374288  1
  Ba  Ba9  1  0.053411  0.476790  0.879899  1
  Ba  Ba10  1  0.476790  0.053411  0.879899  1
  Ba  Ba11  1  0.476633  0.476633  0.872840  1
  Zr  Zr12  1  0.334524  0.334524  0.487068  1
  Zr  Zr13  1  0.665057  0.665057  0.983074  1
  Bi  Bi14  1  0.393552  0.798391  0.091739  1
  Bi  Bi15  1  0.798391  0.393552  0.091739  1
  Bi  Bi16  1  0.803621  0.803621  0.060419  1
  Bi  Bi17  1  0.600659  0.207696  0.600414  1
  Bi  Bi18  1  0.207696  0.600659  0.600414  1
  Bi  Bi19  1  0.202828  0.202828  0.619928  1
  Bi  Bi20  1  0.336175  0.336175  0.150413  1
  Bi  Bi21  1  0.654955  0.654955  0.657195  1
