# generated using pymatgen
data_Y6NiP12Ir17
_symmetry_space_group_name_H-M   'P 1'
_cell_length_a   3.97142800
_cell_length_b   11.09810600
_cell_length_c   12.82746100
_cell_angle_alpha   90.00000000
_cell_angle_beta   90.00000000
_cell_angle_gamma   90.00000000
_symmetry_Int_Tables_number   1
_chemical_formula_structural   Y6NiP12Ir17
_chemical_formula_sum   'Y6 Ni1 P12 Ir17'
_cell_volume   565.37456272
_cell_formula_units_Z   1
loop_
 _symmetry_equiv_pos_site_id
 _symmetry_equiv_pos_as_xyz
  1  'x, y, z'
loop_
 _atom_site_type_symbol
 _atom_site_label
 _atom_site_symmetry_multiplicity
 _atom_site_fract_x
 _atom_site_fract_y
 _atom_site_fract_z
 _atom_site_occupancy
  Y  Y0  1  0.000000  0.500000  0.522141  1
  Y  Y1  1  0.500000  0.000000  0.475372  1
  Y  Y2  1  0.500000  0.817968  0.203841  1
  Y  Y3  1  0.500000  0.182032  0.203841  1
  Y  Y4  1  0.000000  0.687435  0.797267  1
  Y  Y5  1  0.000000  0.312565  0.797267  1
  Ni  Ni6  1  0.500000  0.000000  0.026102  1
  P  P7  1  0.500000  0.315838  0.618050  1
  P  P8  1  0.500000  0.684162  0.618050  1
  P  P9  1  0.000000  0.184500  0.382252  1
  P  P10  1  0.000000  0.815500  0.382252  1
  P  P11  1  0.500000  0.500000  0.878102  1
  P  P12  1  0.000000  0.000000  0.125971  1
  P  P13  1  0.500000  0.854717  0.894112  1
  P  P14  1  0.500000  0.145283  0.894112  1
  P  P15  1  0.000000  0.657802  0.105897  1
  P  P16  1  0.000000  0.342198  0.105897  1
  P  P17  1  0.500000  0.500000  0.358488  1
  P  P18  1  0.000000  0.000000  0.638480  1
  Ir  Ir19  1  0.000000  0.500000  0.974920  1
  Ir  Ir20  1  0.500000  0.296445  0.429995  1
  Ir  Ir21  1  0.500000  0.703555  0.429995  1
  Ir  Ir22  1  0.000000  0.206666  0.569396  1
  Ir  Ir23  1  0.000000  0.793334  0.569396  1
  Ir  Ir24  1  0.500000  0.870086  0.712364  1
  Ir  Ir25  1  0.500000  0.129914  0.712364  1
  Ir  Ir26  1  0.000000  0.630538  0.285112  1
  Ir  Ir27  1  0.000000  0.369462  0.285112  1
  Ir  Ir28  1  0.500000  0.331345  0.000820  1
  Ir  Ir29  1  0.500000  0.668655  0.000820  1
  Ir  Ir30  1  0.000000  0.154574  0.000820  1
  Ir  Ir31  1  0.000000  0.845426  0.000820  1
  Ir  Ir32  1  0.500000  0.500000  0.180053  1
  Ir  Ir33  1  0.000000  0.000000  0.817036  1
  Ir  Ir34  1  0.500000  0.500000  0.702499  1
  Ir  Ir35  1  0.000000  0.000000  0.300980  1
