# generated using pymatgen
data_Tc3Te4H
_symmetry_space_group_name_H-M   'P 1'
_cell_length_a   11.03002300
_cell_length_b   7.03947166
_cell_length_c   10.55874575
_cell_angle_alpha   70.26146896
_cell_angle_beta   90.00000000
_cell_angle_gamma   90.00000000
_symmetry_Int_Tables_number   1
_chemical_formula_structural   Tc3Te4H
_chemical_formula_sum   'Tc12 Te16 H4'
_cell_volume   771.66867125
_cell_formula_units_Z   4
loop_
 _symmetry_equiv_pos_site_id
 _symmetry_equiv_pos_as_xyz
  1  'x, y, z'
loop_
 _atom_site_type_symbol
 _atom_site_label
 _atom_site_symmetry_multiplicity
 _atom_site_fract_x
 _atom_site_fract_y
 _atom_site_fract_z
 _atom_site_occupancy
  Tc  Tc0  1  0.624427  0.993021  0.372271  1
  Tc  Tc1  1  0.875573  0.993021  0.872271  1
  Tc  Tc2  1  0.375573  0.006979  0.627729  1
  Tc  Tc3  1  0.124427  0.006979  0.127729  1
  Tc  Tc4  1  0.373783  0.991678  0.374331  1
  Tc  Tc5  1  0.126217  0.991678  0.874331  1
  Tc  Tc6  1  0.626217  0.008322  0.625669  1
  Tc  Tc7  1  0.873783  0.008322  0.125669  1
  Tc  Tc8  1  0.500484  0.714386  0.569511  1
  Tc  Tc9  1  0.999516  0.714386  0.069511  1
  Tc  Tc10  1  0.499516  0.285614  0.430489  1
  Tc  Tc11  1  0.000484  0.285614  0.930489  1
  Te  Te12  1  0.498643  0.710807  0.306616  1
  Te  Te13  1  0.001357  0.710807  0.806616  1
  Te  Te14  1  0.501357  0.289193  0.693384  1
  Te  Te15  1  0.998643  0.289193  0.193384  1
  Te  Te16  1  0.257331  0.710760  0.574161  1
  Te  Te17  1  0.242669  0.710760  0.074161  1
  Te  Te18  1  0.742669  0.289240  0.425839  1
  Te  Te19  1  0.757331  0.289240  0.925839  1
  Te  Te20  1  0.498119  0.266343  0.178565  1
  Te  Te21  1  0.001881  0.266343  0.678565  1
  Te  Te22  1  0.501881  0.733657  0.821435  1
  Te  Te23  1  0.998119  0.733657  0.321435  1
  Te  Te24  1  0.743908  0.713283  0.570275  1
  Te  Te25  1  0.756092  0.713283  0.070275  1
  Te  Te26  1  0.256092  0.286717  0.429725  1
  Te  Te27  1  0.243908  0.286717  0.929725  1
  H  H28  1  0.245739  0.996491  0.254472  1
  H  H29  1  0.254261  0.996491  0.754472  1
  H  H30  1  0.754261  0.003509  0.745528  1
  H  H31  1  0.745739  0.003509  0.245528  1
