# generated using pymatgen
data_Tm16Lu4(Ir3Pt)3
_symmetry_space_group_name_H-M   'P 1'
_cell_length_a   10.79100042
_cell_length_b   10.79100042
_cell_length_c   6.28798202
_cell_angle_alpha   89.99341324
_cell_angle_beta   89.99341324
_cell_angle_gamma   90.07639419
_symmetry_Int_Tables_number   1
_chemical_formula_structural   Tm16Lu4(Ir3Pt)3
_chemical_formula_sum   'Tm16 Lu4 Ir9 Pt3'
_cell_volume   732.20774442
_cell_formula_units_Z   1
loop_
 _symmetry_equiv_pos_site_id
 _symmetry_equiv_pos_as_xyz
  1  'x, y, z'
loop_
 _atom_site_type_symbol
 _atom_site_label
 _atom_site_symmetry_multiplicity
 _atom_site_fract_x
 _atom_site_fract_y
 _atom_site_fract_z
 _atom_site_occupancy
  Tm  Tm0  1  0.293000  0.086526  0.373403  1
  Tm  Tm1  1  0.292255  0.910172  0.877136  1
  Tm  Tm2  1  0.706191  0.088806  0.874812  1
  Tm  Tm3  1  0.705727  0.911081  0.374383  1
  Tm  Tm4  1  0.585100  0.790539  0.878052  1
  Tm  Tm5  1  0.585268  0.209501  0.377919  1
  Tm  Tm6  1  0.412125  0.790890  0.377527  1
  Tm  Tm7  1  0.414610  0.209519  0.877992  1
  Tm  Tm8  1  0.209461  0.414900  0.621948  1
  Tm  Tm9  1  0.209110  0.587875  0.122473  1
  Tm  Tm10  1  0.790499  0.414732  0.122081  1
  Tm  Tm11  1  0.790481  0.585390  0.622008  1
  Tm  Tm12  1  0.913474  0.707000  0.126597  1
  Tm  Tm13  1  0.911194  0.293809  0.625188  1
  Tm  Tm14  1  0.089828  0.707745  0.622864  1
  Tm  Tm15  1  0.088919  0.294273  0.125617  1
  Lu  Lu16  1  0.001286  0.998431  0.498875  1
  Lu  Lu17  1  0.001569  0.998714  0.001125  1
  Lu  Lu18  1  0.499921  0.499997  0.000249  1
  Lu  Lu19  1  0.500003  0.500079  0.499751  1
  Ir  Ir20  1  0.151359  0.848641  0.250000  1
  Ir  Ir21  1  0.653869  0.346131  0.750000  1
  Ir  Ir22  1  0.653930  0.653878  0.249883  1
  Ir  Ir23  1  0.346122  0.346070  0.250117  1
  Ir  Ir24  1  0.347035  0.652965  0.750000  1
  Ir  Ir25  1  0.500532  0.000175  0.123919  1
  Ir  Ir26  1  0.500626  0.000349  0.624833  1
  Ir  Ir27  1  0.999651  0.499374  0.875167  1
  Ir  Ir28  1  0.999825  0.499468  0.376081  1
  Pt  Pt29  1  0.847874  0.152126  0.250000  1
  Pt  Pt30  1  0.847042  0.847889  0.749836  1
  Pt  Pt31  1  0.152111  0.152958  0.750164  1
