# generated using pymatgen
data_Na2UI5Br
_symmetry_space_group_name_H-M   'P 1'
_cell_length_a   8.54340669
_cell_length_b   8.55825489
_cell_length_c   8.56242396
_cell_angle_alpha   54.85877991
_cell_angle_beta   54.78868465
_cell_angle_gamma   54.68236722
_symmetry_Int_Tables_number   1
_chemical_formula_structural   Na2UI5Br
_chemical_formula_sum   'Na2 U1 I5 Br1'
_cell_volume   388.83638938
_cell_formula_units_Z   1
loop_
 _symmetry_equiv_pos_site_id
 _symmetry_equiv_pos_as_xyz
  1  'x, y, z'
loop_
 _atom_site_type_symbol
 _atom_site_label
 _atom_site_symmetry_multiplicity
 _atom_site_fract_x
 _atom_site_fract_y
 _atom_site_fract_z
 _atom_site_occupancy
  Na  Na0  1  0.329406  0.331591  0.322981  1
  Na  Na1  1  0.663750  0.670010  0.673120  1
  U  U2  1  0.004378  0.992690  0.998430  1
  I  I3  1  0.611552  0.906783  0.233449  1
  I  I4  1  0.911452  0.229985  0.610184  1
  I  I5  1  0.768135  0.385130  0.086906  1
  I  I6  1  0.389202  0.089466  0.765096  1
  I  I7  1  0.089674  0.765114  0.388703  1
  Br  Br8  1  0.232451  0.629231  0.921131  1
