# generated using pymatgen
data_Ba2LaTcO6
_symmetry_space_group_name_H-M   'P 1'
_cell_length_a   6.10501049
_cell_length_b   6.10501022
_cell_length_c   6.10501017
_cell_angle_alpha   60.35169162
_cell_angle_beta   60.35169180
_cell_angle_gamma   60.35169673
_symmetry_Int_Tables_number   1
_chemical_formula_structural   Ba2LaTcO6
_chemical_formula_sum   'Ba2 La1 Tc1 O6'
_cell_volume   162.17568202
_cell_formula_units_Z   1
loop_
 _symmetry_equiv_pos_site_id
 _symmetry_equiv_pos_as_xyz
  1  'x, y, z'
loop_
 _atom_site_type_symbol
 _atom_site_label
 _atom_site_symmetry_multiplicity
 _atom_site_fract_x
 _atom_site_fract_y
 _atom_site_fract_z
 _atom_site_occupancy
  Ba  Ba0  1  0.250116  0.250115  0.250116  1
  Ba  Ba1  1  0.749885  0.749885  0.749884  1
  La  La2  1  0.000000  0.000000  0.000000  1
  Tc  Tc3  1  0.500001  0.499999  0.500001  1
  O  O4  1  0.312592  0.726700  0.231459  1
  O  O5  1  0.768543  0.687408  0.273300  1
  O  O6  1  0.726699  0.231457  0.312591  1
  O  O7  1  0.273301  0.768543  0.687408  1
  O  O8  1  0.231458  0.312592  0.726699  1
  O  O9  1  0.687409  0.273300  0.768542  1
