# generated using pymatgen
data_Dy5HoAl24Os7Pt
_symmetry_space_group_name_H-M   'P 1'
_cell_length_a   8.84252510
_cell_length_b   8.82700511
_cell_length_c   9.55205112
_cell_angle_alpha   90.32585489
_cell_angle_beta   90.00514061
_cell_angle_gamma   120.07439058
_symmetry_Int_Tables_number   1
_chemical_formula_structural   Dy5HoAl24Os7Pt
_chemical_formula_sum   'Dy5 Ho1 Al24 Os7 Pt1'
_cell_volume   645.18071873
_cell_formula_units_Z   1
loop_
 _symmetry_equiv_pos_site_id
 _symmetry_equiv_pos_as_xyz
  1  'x, y, z'
loop_
 _atom_site_type_symbol
 _atom_site_label
 _atom_site_symmetry_multiplicity
 _atom_site_fract_x
 _atom_site_fract_y
 _atom_site_fract_z
 _atom_site_occupancy
  Dy  Dy0  1  0.194689  0.389322  0.251580  1
  Dy  Dy1  1  0.805328  0.610647  0.748412  1
  Dy  Dy2  1  0.613864  0.804729  0.251044  1
  Dy  Dy3  1  0.386138  0.195224  0.748960  1
  Dy  Dy4  1  0.190888  0.804734  0.251043  1
  Ho  Ho5  1  0.809029  0.195506  0.748794  1
  Al  Al6  1  0.331467  0.662887  0.021394  1
  Al  Al7  1  0.668549  0.336967  0.978494  1
  Al  Al8  1  0.666520  0.332886  0.519077  1
  Al  Al9  1  0.333594  0.667077  0.481036  1
  Al  Al10  1  0.163364  0.326928  0.575598  1
  Al  Al11  1  0.836515  0.672993  0.424496  1
  Al  Al12  1  0.673932  0.837668  0.576350  1
  Al  Al13  1  0.836762  0.673504  0.075672  1
  Al  Al14  1  0.326162  0.162502  0.423751  1
  Al  Al15  1  0.163088  0.326389  0.924227  1
  Al  Al16  1  0.163614  0.837527  0.576349  1
  Al  Al17  1  0.324983  0.167023  0.077085  1
  Al  Al18  1  0.836401  0.162484  0.423857  1
  Al  Al19  1  0.675076  0.833099  0.922840  1
  Al  Al20  1  0.842054  0.166991  0.076957  1
  Al  Al21  1  0.157951  0.833011  0.922845  1
  Al  Al22  1  0.562086  0.124124  0.252106  1
  Al  Al23  1  0.438163  0.876080  0.747960  1
  Al  Al24  1  0.877603  0.438492  0.249165  1
  Al  Al25  1  0.122211  0.561257  0.750810  1
  Al  Al26  1  0.560909  0.438515  0.249188  1
  Al  Al27  1  0.439074  0.561479  0.750818  1
  Al  Al28  1  0.999996  0.999960  0.250166  1
  Al  Al29  1  0.999829  0.000196  0.749849  1
  Os  Os30  1  0.999895  0.499831  0.999858  1
  Os  Os31  1  0.500149  0.000113  0.500131  1
  Os  Os32  1  0.500040  0.499981  0.999965  1
  Os  Os33  1  0.999955  0.499880  0.500108  1
  Os  Os34  1  0.500047  0.499977  0.500042  1
  Os  Os35  1  0.999999  0.999991  0.999956  1
  Os  Os36  1  0.000009  0.000008  0.500061  1
  Pt  Pt37  1  0.500068  0.000020  0.999959  1
