# generated using pymatgen
data_Hf3FeB2(IrRu)2
_symmetry_space_group_name_H-M   'P 1'
_cell_length_a   9.39437047
_cell_length_b   9.40510747
_cell_length_c   3.11794400
_cell_angle_alpha   90.00000000
_cell_angle_beta   90.00000000
_cell_angle_gamma   90.03630461
_symmetry_Int_Tables_number   1
_chemical_formula_structural   Hf3FeB2(IrRu)2
_chemical_formula_sum   'Hf6 Fe2 B4 Ir4 Ru4'
_cell_volume   275.48608610
_cell_formula_units_Z   2
loop_
 _symmetry_equiv_pos_site_id
 _symmetry_equiv_pos_as_xyz
  1  'x, y, z'
loop_
 _atom_site_type_symbol
 _atom_site_label
 _atom_site_symmetry_multiplicity
 _atom_site_fract_x
 _atom_site_fract_y
 _atom_site_fract_z
 _atom_site_occupancy
  Hf  Hf0  1  0.173542  0.677828  0.000000  1
  Hf  Hf1  1  0.330804  0.168176  0.000000  1
  Hf  Hf2  1  0.824990  0.328322  0.000000  1
  Hf  Hf3  1  0.498648  0.500352  0.000000  1
  Hf  Hf4  1  0.670844  0.826879  0.000000  1
  Hf  Hf5  1  0.002924  0.995112  0.000000  1
  Fe  Fe6  1  0.999174  0.498868  0.500000  1
  Fe  Fe7  1  0.503405  0.999241  0.500000  1
  B  B8  1  0.388105  0.885750  0.000000  1
  B  B9  1  0.106448  0.391878  0.000000  1
  B  B10  1  0.892895  0.614366  0.000000  1
  B  B11  1  0.607608  0.114172  0.000000  1
  Ir  Ir12  1  0.726613  0.566186  0.500000  1
  Ir  Ir13  1  0.271638  0.431789  0.500000  1
  Ir  Ir14  1  0.065851  0.225688  0.500000  1
  Ir  Ir15  1  0.775536  0.068468  0.500000  1
  Ru  Ru16  1  0.227882  0.934280  0.500000  1
  Ru  Ru17  1  0.932169  0.773062  0.500000  1
  Ru  Ru18  1  0.433271  0.724892  0.500000  1
  Ru  Ru19  1  0.567655  0.274691  0.500000  1
