# generated using pymatgen
data_Hf3Zr(SeO3)8
_symmetry_space_group_name_H-M   'P 1'
_cell_length_a   8.68280998
_cell_length_b   8.68280888
_cell_length_c   8.68280880
_cell_angle_alpha   90.09521442
_cell_angle_beta   89.90478564
_cell_angle_gamma   90.09520577
_symmetry_Int_Tables_number   1
_chemical_formula_structural   Hf3Zr(SeO3)8
_chemical_formula_sum   'Hf3 Zr1 Se8 O24'
_cell_volume   654.60448893
_cell_formula_units_Z   1
loop_
 _symmetry_equiv_pos_site_id
 _symmetry_equiv_pos_as_xyz
  1  'x, y, z'
loop_
 _atom_site_type_symbol
 _atom_site_label
 _atom_site_symmetry_multiplicity
 _atom_site_fract_x
 _atom_site_fract_y
 _atom_site_fract_z
 _atom_site_occupancy
  Hf  Hf0  1  0.500000  0.500000  0.000000  1
  Hf  Hf1  1  0.500000  0.000000  0.500000  1
  Hf  Hf2  1  0.000000  0.000000  0.000000  1
  Zr  Zr3  1  0.000000  0.500000  0.500000  1
  Se  Se4  1  0.813014  0.183939  0.689521  1
  Se  Se5  1  0.186986  0.816061  0.310479  1
  Se  Se6  1  0.683939  0.689521  0.686986  1
  Se  Se7  1  0.189521  0.686986  0.816061  1
  Se  Se8  1  0.311818  0.188182  0.811818  1
  Se  Se9  1  0.810479  0.313014  0.183939  1
  Se  Se10  1  0.688182  0.811818  0.188182  1
  Se  Se11  1  0.316061  0.310479  0.313014  1
  O  O12  1  0.225958  0.428819  0.444470  1
  O  O13  1  0.942754  0.222087  0.067030  1
  O  O14  1  0.055530  0.725958  0.428819  1
  O  O15  1  0.446878  0.277914  0.926479  1
  O  O16  1  0.277913  0.932970  0.442754  1
  O  O17  1  0.567030  0.557246  0.777913  1
  O  O18  1  0.930792  0.050299  0.776322  1
  O  O19  1  0.553122  0.722086  0.073521  1
  O  O20  1  0.573521  0.946878  0.277914  1
  O  O21  1  0.426479  0.053122  0.722086  1
  O  O22  1  0.777914  0.926479  0.053122  1
  O  O23  1  0.276322  0.569208  0.949701  1
  O  O24  1  0.071181  0.555530  0.725958  1
  O  O25  1  0.069208  0.949701  0.223678  1
  O  O26  1  0.222086  0.073521  0.946878  1
  O  O27  1  0.432970  0.442754  0.222087  1
  O  O28  1  0.774042  0.571181  0.555530  1
  O  O29  1  0.928819  0.444470  0.274042  1
  O  O30  1  0.057246  0.777913  0.932970  1
  O  O31  1  0.449701  0.223678  0.430792  1
  O  O32  1  0.550299  0.776322  0.569208  1
  O  O33  1  0.944470  0.274042  0.571181  1
  O  O34  1  0.722087  0.067030  0.557246  1
  O  O35  1  0.723678  0.430792  0.050299  1
