# generated using pymatgen
data_SmBe(AlCu2)4
_symmetry_space_group_name_H-M   'P 1'
_cell_length_a   8.27717610
_cell_length_b   8.27717553
_cell_length_c   8.27717600
_cell_angle_alpha   119.81920475
_cell_angle_beta   119.81919450
_cell_angle_gamma   90.31344728
_symmetry_Int_Tables_number   1
_chemical_formula_structural   SmBe(AlCu2)4
_chemical_formula_sum   'Sm2 Be2 Al8 Cu16'
_cell_volume   402.07744583
_cell_formula_units_Z   2
loop_
 _symmetry_equiv_pos_site_id
 _symmetry_equiv_pos_as_xyz
  1  'x, y, z'
loop_
 _atom_site_type_symbol
 _atom_site_label
 _atom_site_symmetry_multiplicity
 _atom_site_fract_x
 _atom_site_fract_y
 _atom_site_fract_z
 _atom_site_occupancy
  Sm  Sm0  1  0.250000  0.250000  0.000000  1
  Sm  Sm1  1  0.750000  0.750000  0.000000  1
  Be  Be2  1  0.500000  0.000000  0.500000  1
  Be  Be3  1  0.000000  0.500000  0.500000  1
  Al  Al4  1  0.805641  0.305641  0.866389  1
  Al  Al5  1  0.560748  0.060748  0.866389  1
  Al  Al6  1  0.060748  0.194359  0.500000  1
  Al  Al7  1  0.305641  0.439252  0.500000  1
  Al  Al8  1  0.939252  0.805641  0.500000  1
  Al  Al9  1  0.439252  0.939252  0.133611  1
  Al  Al10  1  0.194359  0.694359  0.133611  1
  Al  Al11  1  0.694359  0.560748  0.500000  1
  Cu  Cu12  1  0.943878  0.209031  0.152908  1
  Cu  Cu13  1  0.209031  0.056122  0.265152  1
  Cu  Cu14  1  0.790969  0.943878  0.734848  1
  Cu  Cu15  1  0.443878  0.290969  0.734848  1
  Cu  Cu16  1  0.056122  0.790969  0.847092  1
  Cu  Cu17  1  0.785622  0.062945  0.500000  1
  Cu  Cu18  1  0.562945  0.285622  0.500000  1
  Cu  Cu19  1  0.214378  0.937055  0.500000  1
  Cu  Cu20  1  0.437055  0.714378  0.500000  1
  Cu  Cu21  1  0.937055  0.437055  0.722677  1
  Cu  Cu22  1  0.714378  0.214378  0.277323  1
  Cu  Cu23  1  0.062945  0.562945  0.277323  1
  Cu  Cu24  1  0.709031  0.443878  0.152908  1
  Cu  Cu25  1  0.556122  0.709031  0.265152  1
  Cu  Cu26  1  0.285622  0.785622  0.722677  1
  Cu  Cu27  1  0.290969  0.556122  0.847092  1
