# generated using pymatgen
data_Pr12GaSi2AsBr12
_symmetry_space_group_name_H-M   'P 1'
_cell_length_a   10.51533322
_cell_length_b   10.54396712
_cell_length_c   10.54396680
_cell_angle_alpha   109.49361649
_cell_angle_beta   109.39212881
_cell_angle_gamma   109.39212902
_symmetry_Int_Tables_number   1
_chemical_formula_structural   Pr12GaSi2AsBr12
_chemical_formula_sum   'Pr12 Ga1 Si2 As1 Br12'
_cell_volume   901.43526241
_cell_formula_units_Z   1
loop_
 _symmetry_equiv_pos_site_id
 _symmetry_equiv_pos_as_xyz
  1  'x, y, z'
loop_
 _atom_site_type_symbol
 _atom_site_label
 _atom_site_symmetry_multiplicity
 _atom_site_fract_x
 _atom_site_fract_y
 _atom_site_fract_z
 _atom_site_occupancy
  Pr  Pr0  1  0.480138  0.489553  0.240316  1
  Pr  Pr1  1  0.750000  0.237675  0.262325  1
  Pr  Pr2  1  0.750000  0.012364  0.487636  1
  Pr  Pr3  1  0.238131  0.479351  0.491162  1
  Pr  Pr4  1  0.263757  0.753970  0.239761  1
  Pr  Pr5  1  0.019862  0.259684  0.010447  1
  Pr  Pr6  1  0.008665  0.020639  0.262115  1
  Pr  Pr7  1  0.489987  0.753866  0.014312  1
  Pr  Pr8  1  0.491335  0.237885  0.479361  1
  Pr  Pr9  1  0.010013  0.485688  0.746134  1
  Pr  Pr10  1  0.261869  0.008838  0.020649  1
  Pr  Pr11  1  0.236243  0.260239  0.746030  1
  Ga  Ga12  1  0.250000  0.250206  0.249794  1
  Si  Si13  1  0.499771  0.999988  0.249926  1
  Si  Si14  1  0.000229  0.250074  0.500012  1
  As  As15  1  0.250000  0.499910  0.000090  1
  Br  Br16  1  0.250000  0.753261  0.746739  1
  Br  Br17  1  0.507479  0.504026  0.754756  1
  Br  Br18  1  0.992521  0.745244  0.995974  1
  Br  Br19  1  0.746898  0.250501  0.754020  1
  Br  Br20  1  0.996222  0.992873  0.746009  1
  Br  Br21  1  0.250000  0.995404  0.504596  1
  Br  Br22  1  0.754779  0.508509  0.504534  1
  Br  Br23  1  0.504061  0.250590  0.995775  1
  Br  Br24  1  0.753102  0.745980  0.249499  1
  Br  Br25  1  0.745221  0.995466  0.991491  1
  Br  Br26  1  0.995939  0.504225  0.249410  1
  Br  Br27  1  0.503778  0.753991  0.507127  1
