# generated using pymatgen
data_YNi4(AuO4)3
_symmetry_space_group_name_H-M   'P 1'
_cell_length_a   6.52811947
_cell_length_b   6.52811933
_cell_length_c   6.52811900
_cell_angle_alpha   109.47122272
_cell_angle_beta   109.47122227
_cell_angle_gamma   109.47121944
_symmetry_Int_Tables_number   1
_chemical_formula_structural   YNi4(AuO4)3
_chemical_formula_sum   'Y1 Ni4 Au3 O12'
_cell_volume   214.16196180
_cell_formula_units_Z   1
loop_
 _symmetry_equiv_pos_site_id
 _symmetry_equiv_pos_as_xyz
  1  'x, y, z'
loop_
 _atom_site_type_symbol
 _atom_site_label
 _atom_site_symmetry_multiplicity
 _atom_site_fract_x
 _atom_site_fract_y
 _atom_site_fract_z
 _atom_site_occupancy
  Y  Y0  1  0.000000  0.000000  0.000000  1
  Ni  Ni1  1  0.000000  0.000000  0.500000  1
  Ni  Ni2  1  0.000000  0.500000  0.000000  1
  Ni  Ni3  1  0.500000  0.000000  0.000000  1
  Ni  Ni4  1  0.500000  0.500000  0.500000  1
  Au  Au5  1  0.000000  0.500000  0.500000  1
  Au  Au6  1  0.500000  0.000000  0.500000  1
  Au  Au7  1  0.500000  0.500000  0.000000  1
  O  O8  1  0.294140  0.121359  0.827218  1
  O  O9  1  0.705860  0.878641  0.172782  1
  O  O10  1  0.705860  0.533078  0.827218  1
  O  O11  1  0.466922  0.172782  0.294140  1
  O  O12  1  0.172782  0.294140  0.466922  1
  O  O13  1  0.827218  0.294140  0.121359  1
  O  O14  1  0.878641  0.172782  0.705860  1
  O  O15  1  0.827218  0.705860  0.533078  1
  O  O16  1  0.294140  0.466922  0.172782  1
  O  O17  1  0.533078  0.827218  0.705860  1
  O  O18  1  0.172782  0.705860  0.878641  1
  O  O19  1  0.121359  0.827218  0.294140  1
