# generated using pymatgen
data_Np4Al18OsPd5
_symmetry_space_group_name_H-M   'P 1'
_cell_length_a   7.65775483
_cell_length_b   7.65775462
_cell_length_c   9.51890131
_cell_angle_alpha   90.09793920
_cell_angle_beta   90.09793135
_cell_angle_gamma   119.79674189
_symmetry_Int_Tables_number   1
_chemical_formula_structural   Np4Al18OsPd5
_chemical_formula_sum   'Np4 Al18 Os1 Pd5'
_cell_volume   484.39952080
_cell_formula_units_Z   1
loop_
 _symmetry_equiv_pos_site_id
 _symmetry_equiv_pos_as_xyz
  1  'x, y, z'
loop_
 _atom_site_type_symbol
 _atom_site_label
 _atom_site_symmetry_multiplicity
 _atom_site_fract_x
 _atom_site_fract_y
 _atom_site_fract_z
 _atom_site_occupancy
  Np  Np0  1  0.993219  0.665754  0.244840  1
  Np  Np1  1  0.001354  0.330318  0.754976  1
  Np  Np2  1  0.669682  0.998646  0.245024  1
  Np  Np3  1  0.334246  0.006781  0.755160  1
  Al  Al4  1  0.127235  0.128661  0.251890  1
  Al  Al5  1  0.871339  0.872765  0.748110  1
  Al  Al6  1  0.002097  0.334264  0.075737  1
  Al  Al7  1  0.996248  0.662550  0.922362  1
  Al  Al8  1  0.002960  0.667377  0.574583  1
  Al  Al9  1  0.332623  0.997040  0.425417  1
  Al  Al10  1  0.998666  0.335181  0.426960  1
  Al  Al11  1  0.664819  0.001334  0.573040  1
  Al  Al12  1  0.665736  0.997903  0.924263  1
  Al  Al13  1  0.337450  0.003752  0.077638  1
  Al  Al14  1  0.330634  0.331921  0.560276  1
  Al  Al15  1  0.668079  0.669366  0.439724  1
  Al  Al16  1  0.666526  0.661971  0.054750  1
  Al  Al17  1  0.338029  0.333474  0.945250  1
  Al  Al18  1  0.338585  0.548090  0.251012  1
  Al  Al19  1  0.659643  0.454652  0.752081  1
  Al  Al20  1  0.545348  0.340357  0.247919  1
  Al  Al21  1  0.451910  0.661415  0.748988  1
  Os  Os22  1  0.673566  0.326434  0.000000  1
  Pd  Pd23  1  0.329701  0.670299  0.000000  1
  Pd  Pd24  1  0.330071  0.669929  0.500000  1
  Pd  Pd25  1  0.669160  0.330840  0.500000  1
  Pd  Pd26  1  0.001331  0.998669  0.000000  1
  Pd  Pd27  1  0.999740  0.000260  0.500000  1
