# generated using pymatgen
data_YbHoHf2(Al3Ir)6
_symmetry_space_group_name_H-M   'P 1'
_cell_length_a   7.51562055
_cell_length_b   7.50155754
_cell_length_c   9.35583800
_cell_angle_alpha   90.00000000
_cell_angle_beta   90.00000000
_cell_angle_gamma   119.65104221
_symmetry_Int_Tables_number   1
_chemical_formula_structural   YbHoHf2(Al3Ir)6
_chemical_formula_sum   'Yb1 Ho1 Hf2 Al18 Ir6'
_cell_volume   458.40149253
_cell_formula_units_Z   1
loop_
 _symmetry_equiv_pos_site_id
 _symmetry_equiv_pos_as_xyz
  1  'x, y, z'
loop_
 _atom_site_type_symbol
 _atom_site_label
 _atom_site_symmetry_multiplicity
 _atom_site_fract_x
 _atom_site_fract_y
 _atom_site_fract_z
 _atom_site_occupancy
  Yb  Yb0  1  0.670548  0.994199  0.250000  1
  Ho  Ho1  1  0.330492  0.005889  0.750000  1
  Hf  Hf2  1  0.994311  0.671513  0.250000  1
  Hf  Hf3  1  0.004057  0.327209  0.750000  1
  Al  Al4  1  0.126567  0.123757  0.250000  1
  Al  Al5  1  0.873284  0.875391  0.750000  1
  Al  Al6  1  0.999390  0.336529  0.076063  1
  Al  Al7  1  0.999879  0.663099  0.924485  1
  Al  Al8  1  0.999879  0.663099  0.575515  1
  Al  Al9  1  0.333288  0.998323  0.421030  1
  Al  Al10  1  0.999390  0.336529  0.423937  1
  Al  Al11  1  0.667272  0.000717  0.576969  1
  Al  Al12  1  0.667272  0.000717  0.923031  1
  Al  Al13  1  0.333288  0.998323  0.078970  1
  Al  Al14  1  0.331235  0.333645  0.556541  1
  Al  Al15  1  0.668956  0.667524  0.442824  1
  Al  Al16  1  0.668956  0.667524  0.057176  1
  Al  Al17  1  0.331235  0.333645  0.943459  1
  Al  Al18  1  0.333395  0.548232  0.250000  1
  Al  Al19  1  0.665503  0.452171  0.750000  1
  Al  Al20  1  0.555502  0.345887  0.250000  1
  Al  Al21  1  0.445986  0.656176  0.750000  1
  Ir  Ir22  1  0.673102  0.328641  0.998072  1
  Ir  Ir23  1  0.325845  0.670738  0.999557  1
  Ir  Ir24  1  0.325845  0.670738  0.500443  1
  Ir  Ir25  1  0.673102  0.328641  0.501928  1
  Ir  Ir26  1  0.001211  0.000573  0.999075  1
  Ir  Ir27  1  0.001211  0.000573  0.500925  1
