# generated using pymatgen
data_Nd5MoRuO12
_symmetry_space_group_name_H-M   'P 1'
_cell_length_a   7.06063057
_cell_length_b   7.06063165
_cell_length_c   7.81754379
_cell_angle_alpha   73.75241558
_cell_angle_beta   73.75241454
_cell_angle_gamma   49.20046659
_symmetry_Int_Tables_number   1
_chemical_formula_structural   Nd5MoRuO12
_chemical_formula_sum   'Nd5 Mo1 Ru1 O12'
_cell_volume   280.70613900
_cell_formula_units_Z   1
loop_
 _symmetry_equiv_pos_site_id
 _symmetry_equiv_pos_as_xyz
  1  'x, y, z'
loop_
 _atom_site_type_symbol
 _atom_site_label
 _atom_site_symmetry_multiplicity
 _atom_site_fract_x
 _atom_site_fract_y
 _atom_site_fract_z
 _atom_site_occupancy
  Nd  Nd0  1  0.294035  0.319945  0.356380  1
  Nd  Nd1  1  0.680055  0.705965  0.643620  1
  Nd  Nd2  1  0.681037  0.692799  0.170578  1
  Nd  Nd3  1  0.307201  0.318963  0.829422  1
  Nd  Nd4  1  0.992061  0.007939  0.500000  1
  Mo  Mo5  1  0.800214  0.199786  0.000000  1
  Ru  Ru6  1  0.237418  0.762582  0.000000  1
  O  O7  1  0.086364  0.598866  0.579398  1
  O  O8  1  0.004020  0.994886  0.196150  1
  O  O9  1  0.401134  0.913636  0.420602  1
  O  O10  1  0.508592  0.490075  0.169519  1
  O  O11  1  0.088651  0.579663  0.080874  1
  O  O12  1  0.893255  0.411698  0.426278  1
  O  O13  1  0.005114  0.995980  0.803850  1
  O  O14  1  0.588302  0.106744  0.573722  1
  O  O15  1  0.509925  0.491408  0.830481  1
  O  O16  1  0.596653  0.094367  0.077629  1
  O  O17  1  0.420337  0.911349  0.919126  1
  O  O18  1  0.905633  0.403347  0.922371  1
