# generated using pymatgen
data_Pr3Pu(WN3)4
_symmetry_space_group_name_H-M   'P 1'
_cell_length_a   7.38763574
_cell_length_b   7.38763659
_cell_length_c   6.35384851
_cell_angle_alpha   75.71756294
_cell_angle_beta   75.71756117
_cell_angle_gamma   84.18807325
_symmetry_Int_Tables_number   1
_chemical_formula_structural   Pr3Pu(WN3)4
_chemical_formula_sum   'Pr3 Pu1 W4 N12'
_cell_volume   325.36818190
_cell_formula_units_Z   1
loop_
 _symmetry_equiv_pos_site_id
 _symmetry_equiv_pos_as_xyz
  1  'x, y, z'
loop_
 _atom_site_type_symbol
 _atom_site_label
 _atom_site_symmetry_multiplicity
 _atom_site_fract_x
 _atom_site_fract_y
 _atom_site_fract_z
 _atom_site_occupancy
  Pr  Pr0  1  0.695182  0.304818  0.750000  1
  Pr  Pr1  1  0.089380  0.910620  0.750000  1
  Pr  Pr2  1  0.305758  0.694242  0.250000  1
  Pu  Pu3  1  0.908557  0.091443  0.250000  1
  W  W4  1  0.381598  0.201519  0.244625  1
  W  W5  1  0.620572  0.798573  0.751599  1
  W  W6  1  0.798481  0.618402  0.255375  1
  W  W7  1  0.201427  0.379428  0.748401  1
  N  N8  1  0.620857  0.114796  0.158101  1
  N  N9  1  0.362011  0.336890  0.476666  1
  N  N10  1  0.000153  0.222455  0.859854  1
  N  N11  1  0.385888  0.885947  0.848402  1
  N  N12  1  0.777545  0.999847  0.640146  1
  N  N13  1  0.114053  0.614112  0.651598  1
  N  N14  1  0.885204  0.379143  0.341899  1
  N  N15  1  0.633210  0.655499  0.526666  1
  N  N16  1  0.663110  0.637989  0.023334  1
  N  N17  1  0.344501  0.366790  0.973334  1
  N  N18  1  0.994052  0.781540  0.160088  1
  N  N19  1  0.218460  0.005948  0.339912  1
