# generated using pymatgen
data_Tb7Y13(Bi2P)4
_symmetry_space_group_name_H-M   'P 1'
_cell_length_a   8.03761258
_cell_length_b   8.99864413
_cell_length_c   12.22970918
_cell_angle_alpha   89.99898339
_cell_angle_beta   90.02742617
_cell_angle_gamma   89.99893502
_symmetry_Int_Tables_number   1
_chemical_formula_structural   Tb7Y13(Bi2P)4
_chemical_formula_sum   'Tb7 Y13 Bi8 P4'
_cell_volume   884.54559839
_cell_formula_units_Z   1
loop_
 _symmetry_equiv_pos_site_id
 _symmetry_equiv_pos_as_xyz
  1  'x, y, z'
loop_
 _atom_site_type_symbol
 _atom_site_label
 _atom_site_symmetry_multiplicity
 _atom_site_fract_x
 _atom_site_fract_y
 _atom_site_fract_z
 _atom_site_occupancy
  Tb  Tb0  1  0.315997  0.952692  0.435355  1
  Tb  Tb1  1  0.183495  0.952756  0.935204  1
  Tb  Tb2  1  0.316897  0.547502  0.435398  1
  Tb  Tb3  1  0.816381  0.047251  0.064749  1
  Tb  Tb4  1  0.683372  0.452531  0.564506  1
  Tb  Tb5  1  0.816457  0.452722  0.064612  1
  Tb  Tb6  1  0.183566  0.547238  0.935329  1
  Y  Y7  1  0.852703  0.750079  0.794809  1
  Y  Y8  1  0.147213  0.249898  0.205073  1
  Y  Y9  1  0.352683  0.250047  0.705010  1
  Y  Y10  1  0.647146  0.749966  0.295243  1
  Y  Y11  1  0.377171  0.749910  0.699229  1
  Y  Y12  1  0.622644  0.250089  0.300867  1
  Y  Y13  1  0.877336  0.250020  0.800440  1
  Y  Y14  1  0.122651  0.749967  0.199437  1
  Y  Y15  1  0.959191  0.749485  0.501937  1
  Y  Y16  1  0.041427  0.250550  0.498087  1
  Y  Y17  1  0.458776  0.249921  0.997976  1
  Y  Y18  1  0.541190  0.750020  0.001945  1
  Y  Y19  1  0.683261  0.047057  0.564484  1
  Bi  Bi20  1  0.578374  0.490947  0.826911  1
  Bi  Bi21  1  0.421682  0.509006  0.173074  1
  Bi  Bi22  1  0.078213  0.509024  0.673076  1
  Bi  Bi23  1  0.421696  0.990930  0.173136  1
  Bi  Bi24  1  0.921779  0.490835  0.326979  1
  Bi  Bi25  1  0.578365  0.009110  0.826750  1
  Bi  Bi26  1  0.921809  0.009099  0.327277  1
  Bi  Bi27  1  0.078151  0.991019  0.672703  1
  P  P28  1  0.570751  0.750755  0.511558  1
  P  P29  1  0.429637  0.249600  0.488934  1
  P  P30  1  0.070234  0.249943  0.988779  1
  P  P31  1  0.929748  0.750031  0.011131  1
