# generated using pymatgen
data_Lu20Sn15Pb
_symmetry_space_group_name_H-M   'P 1'
_cell_length_a   7.92317088
_cell_length_b   7.99251179
_cell_length_c   15.15804865
_cell_angle_alpha   90.02687862
_cell_angle_beta   90.06077715
_cell_angle_gamma   90.00087543
_symmetry_Int_Tables_number   1
_chemical_formula_structural   Lu20Sn15Pb
_chemical_formula_sum   'Lu20 Sn15 Pb1'
_cell_volume   959.89849831
_cell_formula_units_Z   1
loop_
 _symmetry_equiv_pos_site_id
 _symmetry_equiv_pos_as_xyz
  1  'x, y, z'
loop_
 _atom_site_type_symbol
 _atom_site_label
 _atom_site_symmetry_multiplicity
 _atom_site_fract_x
 _atom_site_fract_y
 _atom_site_fract_z
 _atom_site_occupancy
  Lu  Lu0  1  0.374102  0.838087  0.875906  1
  Lu  Lu1  1  0.873234  0.662007  0.622755  1
  Lu  Lu2  1  0.627375  0.161282  0.377072  1
  Lu  Lu3  1  0.125354  0.341509  0.123635  1
  Lu  Lu4  1  0.628650  0.160230  0.123371  1
  Lu  Lu5  1  0.127244  0.338609  0.377130  1
  Lu  Lu6  1  0.373421  0.838943  0.623275  1
  Lu  Lu7  1  0.873986  0.661257  0.877014  1
  Lu  Lu8  1  0.529769  0.323661  0.901991  1
  Lu  Lu9  1  0.027933  0.178564  0.596848  1
  Lu  Lu10  1  0.473068  0.678095  0.403582  1
  Lu  Lu11  1  0.968158  0.818837  0.097810  1
  Lu  Lu12  1  0.472902  0.674723  0.097477  1
  Lu  Lu13  1  0.972582  0.821680  0.403417  1
  Lu  Lu14  1  0.526835  0.321849  0.596431  1
  Lu  Lu15  1  0.025570  0.180644  0.901796  1
  Lu  Lu16  1  0.203203  0.505964  0.749741  1
  Lu  Lu17  1  0.703269  0.995109  0.749853  1
  Lu  Lu18  1  0.796692  0.494391  0.250293  1
  Lu  Lu19  1  0.297248  0.004933  0.251702  1
  Sn  Sn20  1  0.789282  0.462694  0.458867  1
  Sn  Sn21  1  0.711352  0.963744  0.541363  1
  Sn  Sn22  1  0.211934  0.536546  0.958367  1
  Sn  Sn23  1  0.711098  0.963589  0.958206  1
  Sn  Sn24  1  0.210945  0.537345  0.541122  1
  Sn  Sn25  1  0.289103  0.036878  0.459087  1
  Sn  Sn26  1  0.788307  0.462590  0.041120  1
  Sn  Sn27  1  0.569340  0.618622  0.749701  1
  Sn  Sn28  1  0.069198  0.881795  0.749822  1
  Sn  Sn29  1  0.430908  0.380122  0.250045  1
  Sn  Sn30  1  0.931524  0.118157  0.250030  1
  Sn  Sn31  1  0.338966  0.152365  0.749896  1
  Sn  Sn32  1  0.839272  0.348544  0.748962  1
  Sn  Sn33  1  0.660140  0.847524  0.250499  1
  Sn  Sn34  1  0.160768  0.652383  0.250529  1
  Pb  Pb35  1  0.287267  0.036727  0.041285  1
