# generated using pymatgen
data_Er11Th5(CdRu)4
_symmetry_space_group_name_H-M   'P 1'
_cell_length_a   9.63196985
_cell_length_b   9.68476447
_cell_length_c   9.68476333
_cell_angle_alpha   59.89071916
_cell_angle_beta   60.18016221
_cell_angle_gamma   60.18016188
_symmetry_Int_Tables_number   1
_chemical_formula_structural   Er11Th5(CdRu)4
_chemical_formula_sum   'Er11 Th5 Cd4 Ru4'
_cell_volume   640.02006517
_cell_formula_units_Z   1
loop_
 _symmetry_equiv_pos_site_id
 _symmetry_equiv_pos_as_xyz
  1  'x, y, z'
loop_
 _atom_site_type_symbol
 _atom_site_label
 _atom_site_symmetry_multiplicity
 _atom_site_fract_x
 _atom_site_fract_y
 _atom_site_fract_z
 _atom_site_occupancy
  Er  Er0  1  0.187506  0.812494  0.812494  1
  Er  Er1  1  0.192643  0.808731  0.185969  1
  Er  Er2  1  0.812659  0.185969  0.808731  1
  Er  Er3  1  0.192643  0.185969  0.808731  1
  Er  Er4  1  0.812659  0.808731  0.185969  1
  Er  Er5  1  0.933016  0.566984  0.566984  1
  Er  Er6  1  0.565324  0.934676  0.934676  1
  Er  Er7  1  0.562985  0.935436  0.564596  1
  Er  Er8  1  0.936984  0.564596  0.935436  1
  Er  Er9  1  0.562985  0.564596  0.935436  1
  Er  Er10  1  0.936984  0.935436  0.564596  1
  Th  Th11  1  0.343549  0.351057  0.351057  1
  Th  Th12  1  0.348422  0.349151  0.954004  1
  Th  Th13  1  0.348422  0.954004  0.349151  1
  Th  Th14  1  0.954337  0.351057  0.351057  1
  Th  Th15  1  0.815074  0.184926  0.184926  1
  Cd  Cd16  1  0.582310  0.581350  0.581350  1
  Cd  Cd17  1  0.580824  0.583773  0.254577  1
  Cd  Cd18  1  0.580824  0.254577  0.583773  1
  Cd  Cd19  1  0.254989  0.581350  0.581350  1
  Ru  Ru20  1  0.128919  0.147038  0.147038  1
  Ru  Ru21  1  0.144470  0.141512  0.569549  1
  Ru  Ru22  1  0.144470  0.569549  0.141512  1
  Ru  Ru23  1  0.577006  0.147038  0.147038  1
