# generated using pymatgen
data_Y4Ga18OsRh5
_symmetry_space_group_name_H-M   'P 1'
_cell_length_a   7.57494236
_cell_length_b   7.57494285
_cell_length_c   9.58130937
_cell_angle_alpha   90.06099719
_cell_angle_beta   90.06100315
_cell_angle_gamma   119.88392242
_symmetry_Int_Tables_number   1
_chemical_formula_structural   Y4Ga18OsRh5
_chemical_formula_sum   'Y4 Ga18 Os1 Rh5'
_cell_volume   476.67239603
_cell_formula_units_Z   1
loop_
 _symmetry_equiv_pos_site_id
 _symmetry_equiv_pos_as_xyz
  1  'x, y, z'
loop_
 _atom_site_type_symbol
 _atom_site_label
 _atom_site_symmetry_multiplicity
 _atom_site_fract_x
 _atom_site_fract_y
 _atom_site_fract_z
 _atom_site_occupancy
  Y  Y0  1  0.996865  0.666158  0.248409  1
  Y  Y1  1  0.000527  0.332923  0.750995  1
  Y  Y2  1  0.667077  0.999473  0.249005  1
  Y  Y3  1  0.333842  0.003135  0.751591  1
  Ga  Ga4  1  0.332259  0.332443  0.562913  1
  Ga  Ga5  1  0.667557  0.667741  0.437087  1
  Ga  Ga6  1  0.666535  0.665713  0.062496  1
  Ga  Ga7  1  0.334287  0.333465  0.937504  1
  Ga  Ga8  1  0.338995  0.546419  0.250195  1
  Ga  Ga9  1  0.661074  0.453863  0.749870  1
  Ga  Ga10  1  0.546137  0.338926  0.250130  1
  Ga  Ga11  1  0.453581  0.661005  0.749805  1
  Ga  Ga12  1  0.000907  0.333598  0.079139  1
  Ga  Ga13  1  0.998440  0.665171  0.920222  1
  Ga  Ga14  1  0.999156  0.665902  0.579675  1
  Ga  Ga15  1  0.334098  0.000844  0.420325  1
  Ga  Ga16  1  0.001299  0.334463  0.421564  1
  Ga  Ga17  1  0.665537  0.998701  0.578436  1
  Ga  Ga18  1  0.666402  0.999093  0.920861  1
  Ga  Ga19  1  0.334829  0.001560  0.079778  1
  Ga  Ga20  1  0.122055  0.122838  0.250350  1
  Ga  Ga21  1  0.877162  0.877945  0.749650  1
  Os  Os22  1  0.672278  0.327722  0.000000  1
  Rh  Rh23  1  0.999908  0.000092  0.000000  1
  Rh  Rh24  1  0.000215  0.999785  0.500000  1
  Rh  Rh25  1  0.328693  0.671307  0.000000  1
  Rh  Rh26  1  0.328924  0.671076  0.500000  1
  Rh  Rh27  1  0.671359  0.328641  0.500000  1
