# generated using pymatgen
data_Ti2Rh2PbS8
_symmetry_space_group_name_H-M   'P 1'
_cell_length_a   6.78222138
_cell_length_b   6.78222032
_cell_length_c   9.07888107
_cell_angle_alpha   57.71633796
_cell_angle_beta   57.71634309
_cell_angle_gamma   62.29529169
_symmetry_Int_Tables_number   1
_chemical_formula_structural   Ti2Rh2PbS8
_chemical_formula_sum   'Ti2 Rh2 Pb1 S8'
_cell_volume   288.89836095
_cell_formula_units_Z   1
loop_
 _symmetry_equiv_pos_site_id
 _symmetry_equiv_pos_as_xyz
  1  'x, y, z'
loop_
 _atom_site_type_symbol
 _atom_site_label
 _atom_site_symmetry_multiplicity
 _atom_site_fract_x
 _atom_site_fract_y
 _atom_site_fract_z
 _atom_site_occupancy
  Ti  Ti0  1  0.216060  0.216060  0.000191  1
  Ti  Ti1  1  0.783940  0.783940  0.999809  1
  Rh  Rh2  1  0.759240  0.240760  0.000000  1
  Rh  Rh3  1  0.240760  0.759240  0.000000  1
  Pb  Pb4  1  0.500000  0.500000  0.500000  1
  S  S5  1  0.995936  0.475726  0.198057  1
  S  S6  1  0.475726  0.995936  0.198057  1
  S  S7  1  0.506062  0.506062  0.166392  1
  S  S8  1  0.964381  0.964381  0.215147  1
  S  S9  1  0.035619  0.035619  0.784853  1
  S  S10  1  0.493938  0.493938  0.833608  1
  S  S11  1  0.524274  0.004064  0.801943  1
  S  S12  1  0.004064  0.524274  0.801943  1
