# generated using pymatgen
data_PrHo4Sc3(Co4P3)4
_symmetry_space_group_name_H-M   'P 1'
_cell_length_a   12.29831700
_cell_length_b   12.29831643
_cell_length_c   3.73425200
_cell_angle_alpha   90.00000000
_cell_angle_beta   90.00000000
_cell_angle_gamma   120.00000422
_symmetry_Int_Tables_number   1
_chemical_formula_structural   PrHo4Sc3(Co4P3)4
_chemical_formula_sum   'Pr1 Ho4 Sc3 Co16 P12'
_cell_volume   489.13144315
_cell_formula_units_Z   1
loop_
 _symmetry_equiv_pos_site_id
 _symmetry_equiv_pos_as_xyz
  1  'x, y, z'
loop_
 _atom_site_type_symbol
 _atom_site_label
 _atom_site_symmetry_multiplicity
 _atom_site_fract_x
 _atom_site_fract_y
 _atom_site_fract_z
 _atom_site_occupancy
  Pr  Pr0  1  0.666667  0.333333  0.000000  1
  Ho  Ho1  1  0.333333  0.666667  0.000000  1
  Ho  Ho2  1  0.816266  0.815637  0.500000  1
  Ho  Ho3  1  0.184363  0.000628  0.500000  1
  Ho  Ho4  1  0.999372  0.183734  0.500000  1
  Sc  Sc5  1  0.439024  0.440729  0.000000  1
  Sc  Sc6  1  0.559271  0.998295  0.000000  1
  Sc  Sc7  1  0.001705  0.560976  0.000000  1
  Co  Co8  1  0.879590  0.353594  0.500000  1
  Co  Co9  1  0.646406  0.525997  0.500000  1
  Co  Co10  1  0.474003  0.120410  0.500000  1
  Co  Co11  1  0.355289  0.874144  0.500000  1
  Co  Co12  1  0.518855  0.644711  0.500000  1
  Co  Co13  1  0.125856  0.481145  0.500000  1
  Co  Co14  1  0.806047  0.176390  0.000000  1
  Co  Co15  1  0.823610  0.629657  0.000000  1
  Co  Co16  1  0.370343  0.193953  0.000000  1
  Co  Co17  1  0.179934  0.805716  0.000000  1
  Co  Co18  1  0.625782  0.820066  0.000000  1
  Co  Co19  1  0.194284  0.374218  0.000000  1
  Co  Co20  1  0.275859  0.278185  0.500000  1
  Co  Co21  1  0.721815  0.997673  0.500000  1
  Co  Co22  1  0.002327  0.724141  0.500000  1
  Co  Co23  1  0.000000  0.000000  0.000000  1
  P  P24  1  0.695320  0.167197  0.500000  1
  P  P25  1  0.832803  0.528122  0.500000  1
  P  P26  1  0.471878  0.304680  0.500000  1
  P  P27  1  0.171735  0.692972  0.500000  1
  P  P28  1  0.521237  0.828265  0.500000  1
  P  P29  1  0.307028  0.478763  0.500000  1
  P  P30  1  0.177318  0.179068  0.000000  1
  P  P31  1  0.820932  0.998251  0.000000  1
  P  P32  1  0.001749  0.822682  0.000000  1
  P  P33  1  0.645471  0.645400  0.000000  1
  P  P34  1  0.354600  0.000072  0.000000  1
  P  P35  1  0.999928  0.354529  0.000000  1
