# generated using pymatgen
data_Tb2DyHo(ReB6)2
_symmetry_space_group_name_H-M   'P 1'
_cell_length_a   3.68970900
_cell_length_b   9.18326403
_cell_length_c   11.57679103
_cell_angle_alpha   90.00881457
_cell_angle_beta   90.00000000
_cell_angle_gamma   90.00000000
_symmetry_Int_Tables_number   1
_chemical_formula_structural   Tb2DyHo(ReB6)2
_chemical_formula_sum   'Tb4 Dy2 Ho2 Re4 B24'
_cell_volume   392.26302709
_cell_formula_units_Z   2
loop_
 _symmetry_equiv_pos_site_id
 _symmetry_equiv_pos_as_xyz
  1  'x, y, z'
loop_
 _atom_site_type_symbol
 _atom_site_label
 _atom_site_symmetry_multiplicity
 _atom_site_fract_x
 _atom_site_fract_y
 _atom_site_fract_z
 _atom_site_occupancy
  Tb  Tb0  1  0.000000  0.323665  0.413891  1
  Tb  Tb1  1  0.000000  0.676335  0.586109  1
  Tb  Tb2  1  0.000000  0.823539  0.086035  1
  Tb  Tb3  1  0.000000  0.176461  0.913965  1
  Dy  Dy4  1  0.000000  0.943141  0.369871  1
  Dy  Dy5  1  0.000000  0.056859  0.630129  1
  Ho  Ho6  1  0.000000  0.443154  0.130047  1
  Ho  Ho7  1  0.000000  0.556846  0.869953  1
  Re  Re8  1  0.000000  0.638589  0.320465  1
  Re  Re9  1  0.000000  0.361411  0.679535  1
  Re  Re10  1  0.000000  0.139061  0.179262  1
  Re  Re11  1  0.000000  0.860939  0.820738  1
  B  B12  1  0.500000  0.553606  0.432516  1
  B  B13  1  0.500000  0.446394  0.567484  1
  B  B14  1  0.500000  0.053671  0.067437  1
  B  B15  1  0.500000  0.946329  0.932563  1
  B  B16  1  0.500000  0.749053  0.418182  1
  B  B17  1  0.500000  0.250947  0.581818  1
  B  B18  1  0.500000  0.249418  0.081804  1
  B  B19  1  0.500000  0.750582  0.918196  1
  B  B20  1  0.500000  0.791789  0.265675  1
  B  B21  1  0.500000  0.208211  0.734325  1
  B  B22  1  0.500000  0.292151  0.234225  1
  B  B23  1  0.500000  0.707849  0.765775  1
  B  B24  1  0.500000  0.630708  0.185782  1
  B  B25  1  0.500000  0.369292  0.814218  1
  B  B26  1  0.500000  0.131031  0.314023  1
  B  B27  1  0.500000  0.868969  0.685977  1
  B  B28  1  0.500000  0.982892  0.212008  1
  B  B29  1  0.500000  0.017108  0.787992  1
  B  B30  1  0.500000  0.482704  0.287785  1
  B  B31  1  0.500000  0.517296  0.712215  1
  B  B32  1  0.500000  0.599327  0.027758  1
  B  B33  1  0.500000  0.400673  0.972242  1
  B  B34  1  0.500000  0.099755  0.472132  1
  B  B35  1  0.500000  0.900245  0.527868  1
