# generated using pymatgen
data_Dy2Sc3Pb4
_symmetry_space_group_name_H-M   'P 1'
_cell_length_a   7.91174400
_cell_length_b   8.00259200
_cell_length_c   15.03878100
_cell_angle_alpha   90.00000000
_cell_angle_beta   90.00000000
_cell_angle_gamma   90.00000000
_symmetry_Int_Tables_number   1
_chemical_formula_structural   Dy2Sc3Pb4
_chemical_formula_sum   'Dy8 Sc12 Pb16'
_cell_volume   952.17228665
_cell_formula_units_Z   4
loop_
 _symmetry_equiv_pos_site_id
 _symmetry_equiv_pos_as_xyz
  1  'x, y, z'
loop_
 _atom_site_type_symbol
 _atom_site_label
 _atom_site_symmetry_multiplicity
 _atom_site_fract_x
 _atom_site_fract_y
 _atom_site_fract_z
 _atom_site_occupancy
  Dy  Dy0  1  0.019977  0.175775  0.094517  1
  Dy  Dy1  1  0.519977  0.324225  0.405483  1
  Dy  Dy2  1  0.480023  0.675775  0.905483  1
  Dy  Dy3  1  0.980023  0.824225  0.594517  1
  Dy  Dy4  1  0.980023  0.824225  0.905483  1
  Dy  Dy5  1  0.480023  0.675775  0.594517  1
  Dy  Dy6  1  0.519977  0.324225  0.094517  1
  Dy  Dy7  1  0.019977  0.175775  0.405483  1
  Sc  Sc8  1  0.856877  0.655745  0.125130  1
  Sc  Sc9  1  0.356877  0.844255  0.374870  1
  Sc  Sc10  1  0.643123  0.155745  0.874870  1
  Sc  Sc11  1  0.143123  0.344255  0.625130  1
  Sc  Sc12  1  0.143123  0.344255  0.874870  1
  Sc  Sc13  1  0.643123  0.155745  0.625130  1
  Sc  Sc14  1  0.356877  0.844255  0.125130  1
  Sc  Sc15  1  0.856877  0.655745  0.374870  1
  Sc  Sc16  1  0.690682  0.994680  0.250000  1
  Sc  Sc17  1  0.190682  0.505320  0.250000  1
  Sc  Sc18  1  0.809318  0.494680  0.750000  1
  Sc  Sc19  1  0.309318  0.005320  0.750000  1
  Pb  Pb20  1  0.049571  0.867122  0.250000  1
  Pb  Pb21  1  0.549571  0.632878  0.250000  1
  Pb  Pb22  1  0.450429  0.367122  0.750000  1
  Pb  Pb23  1  0.950429  0.132878  0.750000  1
  Pb  Pb24  1  0.831999  0.347159  0.250000  1
  Pb  Pb25  1  0.331999  0.152841  0.250000  1
  Pb  Pb26  1  0.668001  0.847159  0.750000  1
  Pb  Pb27  1  0.168001  0.652841  0.750000  1
  Pb  Pb28  1  0.803582  0.454093  0.955940  1
  Pb  Pb29  1  0.303582  0.045907  0.544060  1
  Pb  Pb30  1  0.696418  0.954093  0.044060  1
  Pb  Pb31  1  0.196418  0.545907  0.455940  1
  Pb  Pb32  1  0.196418  0.545907  0.044060  1
  Pb  Pb33  1  0.696418  0.954093  0.455940  1
  Pb  Pb34  1  0.303582  0.045907  0.955940  1
  Pb  Pb35  1  0.803582  0.454093  0.544060  1
