# generated using pymatgen
data_Mn5Nb8Si14Ni3
_symmetry_space_group_name_H-M   'P 1'
_cell_length_a   9.32769644
_cell_length_b   9.32769610
_cell_length_c   9.29351116
_cell_angle_alpha   94.18691049
_cell_angle_beta   94.18691489
_cell_angle_gamma   148.60771591
_symmetry_Int_Tables_number   1
_chemical_formula_structural   Mn5Nb8Si14Ni3
_chemical_formula_sum   'Mn5 Nb8 Si14 Ni3'
_cell_volume   405.56253354
_cell_formula_units_Z   1
loop_
 _symmetry_equiv_pos_site_id
 _symmetry_equiv_pos_as_xyz
  1  'x, y, z'
loop_
 _atom_site_type_symbol
 _atom_site_label
 _atom_site_symmetry_multiplicity
 _atom_site_fract_x
 _atom_site_fract_y
 _atom_site_fract_z
 _atom_site_occupancy
  Mn  Mn0  1  0.597805  0.402195  0.500000  1
  Mn  Mn1  1  0.600558  0.097454  0.201571  1
  Mn  Mn2  1  0.902546  0.399442  0.798429  1
  Mn  Mn3  1  0.101711  0.898289  0.500000  1
  Mn  Mn4  1  0.398146  0.601854  0.500000  1
  Nb  Nb5  1  0.309912  0.502448  0.809524  1
  Nb  Nb6  1  0.692331  0.500496  0.191116  1
  Nb  Nb7  1  0.497552  0.690088  0.190476  1
  Nb  Nb8  1  0.499504  0.307669  0.808884  1
  Nb  Nb9  1  0.136110  0.135851  0.269133  1
  Nb  Nb10  1  0.864149  0.863890  0.730867  1
  Nb  Nb11  1  0.134707  0.865293  0.000000  1
  Nb  Nb12  1  0.866077  0.133923  0.000000  1
  Si  Si13  1  0.293753  0.295776  0.587605  1
  Si  Si14  1  0.704224  0.706247  0.412395  1
  Si  Si15  1  0.292116  0.707884  0.000000  1
  Si  Si16  1  0.707669  0.292331  0.000000  1
  Si  Si17  1  0.099781  0.503845  0.594121  1
  Si  Si18  1  0.886664  0.481155  0.408087  1
  Si  Si19  1  0.496155  0.900219  0.405879  1
  Si  Si20  1  0.518845  0.113336  0.591913  1
  Si  Si21  1  0.248909  0.248678  0.000073  1
  Si  Si22  1  0.751322  0.751091  0.999927  1
  Si  Si23  1  0.300338  0.005873  0.292517  1
  Si  Si24  1  0.706670  0.001148  0.703987  1
  Si  Si25  1  0.994127  0.699662  0.707483  1
  Si  Si26  1  0.998852  0.293330  0.296013  1
  Ni  Ni27  1  0.401038  0.903036  0.798752  1
  Ni  Ni28  1  0.096964  0.598962  0.201248  1
  Ni  Ni29  1  0.901467  0.098533  0.500000  1
