# generated using pymatgen
data_Dy5As9P3Ru10Rh9
_symmetry_space_group_name_H-M   'P 1'
_cell_length_a   12.96940587
_cell_length_b   12.92757925
_cell_length_c   3.98462700
_cell_angle_alpha   90.00000000
_cell_angle_beta   90.00000000
_cell_angle_gamma   119.75686807
_symmetry_Int_Tables_number   1
_chemical_formula_structural   Dy5As9P3Ru10Rh9
_chemical_formula_sum   'Dy5 As9 P3 Ru10 Rh9'
_cell_volume   579.98183799
_cell_formula_units_Z   1
loop_
 _symmetry_equiv_pos_site_id
 _symmetry_equiv_pos_as_xyz
  1  'x, y, z'
loop_
 _atom_site_type_symbol
 _atom_site_label
 _atom_site_symmetry_multiplicity
 _atom_site_fract_x
 _atom_site_fract_y
 _atom_site_fract_z
 _atom_site_occupancy
  Dy  Dy0  1  0.666428  0.331837  0.000000  1
  Dy  Dy1  1  0.334137  0.667372  0.000000  1
  Dy  Dy2  1  0.817542  0.001157  0.500000  1
  Dy  Dy3  1  0.179899  0.182084  0.500000  1
  Dy  Dy4  1  0.000182  0.818790  0.500000  1
  As  As5  1  0.635021  0.998243  0.000000  1
  As  As6  1  0.363722  0.367301  0.000000  1
  As  As7  1  0.003949  0.635936  0.000000  1
  As  As8  1  0.683195  0.519914  0.500000  1
  As  As9  1  0.835630  0.313189  0.500000  1
  As  As10  1  0.318084  0.836802  0.500000  1
  As  As11  1  0.519275  0.682330  0.500000  1
  As  As12  1  0.478406  0.160818  0.500000  1
  As  As13  1  0.164410  0.482191  0.500000  1
  P  P14  1  0.177643  0.001134  0.000000  1
  P  P15  1  0.822096  0.821645  0.000000  1
  P  P16  1  0.996016  0.178188  0.000000  1
  Ru  Ru17  1  0.127248  0.645683  0.500000  1
  Ru  Ru18  1  0.356112  0.482747  0.500000  1
  Ru  Ru19  1  0.517275  0.871941  0.500000  1
  Ru  Ru20  1  0.725933  0.724341  0.500000  1
  Ru  Ru21  1  0.001163  0.276901  0.500000  1
  Ru  Ru22  1  0.447357  0.002274  0.000000  1
  Ru  Ru23  1  0.555950  0.550796  0.000000  1
  Ru  Ru24  1  0.000745  0.446293  0.000000  1
  Ru  Ru25  1  0.822339  0.193406  0.000000  1
  Ru  Ru26  1  0.274715  0.001210  0.500000  1
  Rh  Rh27  1  0.632031  0.806093  0.000000  1
  Rh  Rh28  1  0.176103  0.368053  0.000000  1
  Rh  Rh29  1  0.367452  0.178424  0.000000  1
  Rh  Rh30  1  0.192603  0.826125  0.000000  1
  Rh  Rh31  1  0.810497  0.631511  0.000000  1
  Rh  Rh32  1  0.871308  0.513471  0.500000  1
  Rh  Rh33  1  0.484663  0.354873  0.500000  1
  Rh  Rh34  1  0.641547  0.126586  0.500000  1
  Rh  Rh35  1  0.999324  0.000340  0.000000  1
