# generated using pymatgen
data_Tm2ScV2Si7Pt9
_symmetry_space_group_name_H-M   'P 1'
_cell_length_a   9.91810043
_cell_length_b   9.94243663
_cell_length_c   3.91707400
_cell_angle_alpha   90.00000000
_cell_angle_beta   90.00000000
_cell_angle_gamma   120.03905832
_symmetry_Int_Tables_number   1
_chemical_formula_structural   Tm2ScV2Si7Pt9
_chemical_formula_sum   'Tm2 Sc1 V2 Si7 Pt9'
_cell_volume   334.38183604
_cell_formula_units_Z   1
loop_
 _symmetry_equiv_pos_site_id
 _symmetry_equiv_pos_as_xyz
  1  'x, y, z'
loop_
 _atom_site_type_symbol
 _atom_site_label
 _atom_site_symmetry_multiplicity
 _atom_site_fract_x
 _atom_site_fract_y
 _atom_site_fract_z
 _atom_site_occupancy
  Tm  Tm0  1  0.997138  0.995943  0.000000  1
  Tm  Tm1  1  0.332713  0.668140  0.500000  1
  Sc  Sc2  1  0.547615  0.434728  0.500000  1
  V  V3  1  0.883356  0.449880  0.500000  1
  V  V4  1  0.570035  0.116930  0.500000  1
  Si  Si5  1  0.244166  0.199486  0.500000  1
  Si  Si6  1  0.790800  0.047388  0.500000  1
  Si  Si7  1  0.954220  0.740695  0.500000  1
  Si  Si8  1  0.553818  0.643453  0.000000  1
  Si  Si9  1  0.365789  0.920027  0.000000  1
  Si  Si10  1  0.082171  0.447939  0.000000  1
  Si  Si11  1  0.671253  0.328410  0.000000  1
  Pt  Pt12  1  0.222422  0.941646  0.500000  1
  Pt  Pt13  1  0.056812  0.281024  0.500000  1
  Pt  Pt14  1  0.724300  0.781283  0.500000  1
  Pt  Pt15  1  0.307673  0.412650  0.000000  1
  Pt  Pt16  1  0.590617  0.900295  0.000000  1
  Pt  Pt17  1  0.102536  0.693595  0.000000  1
  Pt  Pt18  1  0.389017  0.176037  0.000000  1
  Pt  Pt19  1  0.827833  0.212458  0.000000  1
  Pt  Pt20  1  0.785716  0.607992  0.000000  1
