# generated using pymatgen
data_La12Nd2IrPd5
_symmetry_space_group_name_H-M   'P 1'
_cell_length_a   6.58529505
_cell_length_b   10.32733285
_cell_length_c   10.33403876
_cell_angle_alpha   119.96939740
_cell_angle_beta   90.01704908
_cell_angle_gamma   89.99995961
_symmetry_Int_Tables_number   1
_chemical_formula_structural   La12Nd2IrPd5
_chemical_formula_sum   'La12 Nd2 Ir1 Pd5'
_cell_volume   608.83266685
_cell_formula_units_Z   1
loop_
 _symmetry_equiv_pos_site_id
 _symmetry_equiv_pos_as_xyz
  1  'x, y, z'
loop_
 _atom_site_type_symbol
 _atom_site_label
 _atom_site_symmetry_multiplicity
 _atom_site_fract_x
 _atom_site_fract_y
 _atom_site_fract_z
 _atom_site_occupancy
  La  La0  1  0.246653  0.126625  0.872830  1
  La  La1  1  0.246667  0.746163  0.872816  1
  La  La2  1  0.254767  0.128132  0.256297  1
  La  La3  1  0.744112  0.881321  0.132338  1
  La  La4  1  0.744217  0.251102  0.132358  1
  La  La5  1  0.745529  0.872836  0.745619  1
  La  La6  1  0.442702  0.537188  0.460496  1
  La  La7  1  0.442589  0.923265  0.460477  1
  La  La8  1  0.443521  0.538166  0.076379  1
  La  La9  1  0.939147  0.455149  0.534947  1
  La  La10  1  0.939113  0.079794  0.534944  1
  La  La11  1  0.944204  0.461610  0.923194  1
  Nd  Nd12  1  0.461635  0.331034  0.662084  1
  Nd  Nd13  1  0.956220  0.666646  0.333266  1
  Ir  Ir14  1  0.692284  0.188148  0.376288  1
  Pd  Pd15  1  0.192025  0.811159  0.187361  1
  Pd  Pd16  1  0.192012  0.376210  0.187396  1
  Pd  Pd17  1  0.191939  0.812248  0.624529  1
  Pd  Pd18  1  0.691331  0.188107  0.813206  1
  Pd  Pd19  1  0.691330  0.625096  0.813175  1
