# generated using pymatgen
data_TbTaFe4P3
_symmetry_space_group_name_H-M   'P 1'
_cell_length_a   3.67945200
_cell_length_b   10.47322200
_cell_length_c   12.36423000
_cell_angle_alpha   90.00000000
_cell_angle_beta   90.00000000
_cell_angle_gamma   90.00000000
_symmetry_Int_Tables_number   1
_chemical_formula_structural   TbTaFe4P3
_chemical_formula_sum   'Tb4 Ta4 Fe16 P12'
_cell_volume   476.46447605
_cell_formula_units_Z   4
loop_
 _symmetry_equiv_pos_site_id
 _symmetry_equiv_pos_as_xyz
  1  'x, y, z'
loop_
 _atom_site_type_symbol
 _atom_site_label
 _atom_site_symmetry_multiplicity
 _atom_site_fract_x
 _atom_site_fract_y
 _atom_site_fract_z
 _atom_site_occupancy
  Tb  Tb0  1  0.250000  0.583609  0.712719  1
  Tb  Tb1  1  0.250000  0.916391  0.212719  1
  Tb  Tb2  1  0.750000  0.416391  0.287281  1
  Tb  Tb3  1  0.750000  0.083609  0.787281  1
  Ta  Ta4  1  0.250000  0.703140  0.992461  1
  Ta  Ta5  1  0.250000  0.796860  0.492461  1
  Ta  Ta6  1  0.750000  0.296860  0.007539  1
  Ta  Ta7  1  0.750000  0.203140  0.507539  1
  Fe  Fe8  1  0.250000  0.417285  0.491865  1
  Fe  Fe9  1  0.250000  0.082715  0.991865  1
  Fe  Fe10  1  0.750000  0.582715  0.508135  1
  Fe  Fe11  1  0.750000  0.917285  0.008135  1
  Fe  Fe12  1  0.250000  0.215904  0.170238  1
  Fe  Fe13  1  0.250000  0.284096  0.670238  1
  Fe  Fe14  1  0.750000  0.784096  0.829762  1
  Fe  Fe15  1  0.750000  0.715904  0.329762  1
  Fe  Fe16  1  0.250000  0.879345  0.697384  1
  Fe  Fe17  1  0.250000  0.620655  0.197384  1
  Fe  Fe18  1  0.750000  0.120655  0.302616  1
  Fe  Fe19  1  0.750000  0.379345  0.802616  1
  Fe  Fe20  1  0.250000  0.464212  0.934310  1
  Fe  Fe21  1  0.250000  0.035788  0.434310  1
  Fe  Fe22  1  0.750000  0.535788  0.065690  1
  Fe  Fe23  1  0.750000  0.964212  0.565690  1
  P  P24  1  0.250000  0.424560  0.112921  1
  P  P25  1  0.250000  0.075440  0.612921  1
  P  P26  1  0.750000  0.575440  0.887079  1
  P  P27  1  0.750000  0.924560  0.387079  1
  P  P28  1  0.250000  0.274903  0.854344  1
  P  P29  1  0.250000  0.225097  0.354344  1
  P  P30  1  0.750000  0.725097  0.145656  1
  P  P31  1  0.750000  0.774903  0.645656  1
  P  P32  1  0.250000  0.597746  0.376131  1
  P  P33  1  0.250000  0.902254  0.876131  1
  P  P34  1  0.750000  0.402254  0.623869  1
  P  P35  1  0.750000  0.097746  0.123869  1
