# generated using pymatgen
data_Pr20Si15Pd
_symmetry_space_group_name_H-M   'P 1'
_cell_length_a   7.94460106
_cell_length_b   7.93825518
_cell_length_c   15.31979957
_cell_angle_alpha   89.94242908
_cell_angle_beta   89.68297271
_cell_angle_gamma   90.15362245
_symmetry_Int_Tables_number   1
_chemical_formula_structural   Pr20Si15Pd
_chemical_formula_sum   'Pr20 Si15 Pd1'
_cell_volume   966.14385921
_cell_formula_units_Z   1
loop_
 _symmetry_equiv_pos_site_id
 _symmetry_equiv_pos_as_xyz
  1  'x, y, z'
loop_
 _atom_site_type_symbol
 _atom_site_label
 _atom_site_symmetry_multiplicity
 _atom_site_fract_x
 _atom_site_fract_y
 _atom_site_fract_z
 _atom_site_occupancy
  Pr  Pr0  1  0.307193  0.306796  0.999100  1
  Pr  Pr1  1  0.190401  0.808608  0.249826  1
  Pr  Pr2  1  0.808428  0.186953  0.751148  1
  Pr  Pr3  1  0.691905  0.688506  0.499381  1
  Pr  Pr4  1  0.375079  0.010721  0.448098  1
  Pr  Pr5  1  0.491649  0.872627  0.698479  1
  Pr  Pr6  1  0.510043  0.123874  0.197832  1
  Pr  Pr7  1  0.876320  0.488777  0.300522  1
  Pr  Pr8  1  0.122389  0.513390  0.801487  1
  Pr  Pr9  1  0.625910  0.988221  0.949129  1
  Pr  Pr10  1  0.003500  0.377818  0.550061  1
  Pr  Pr11  1  0.988737  0.624886  0.051748  1
  Pr  Pr12  1  0.132894  0.986529  0.876235  1
  Pr  Pr13  1  0.516786  0.630190  0.125970  1
  Pr  Pr14  1  0.479061  0.366540  0.627502  1
  Pr  Pr15  1  0.628206  0.517547  0.874466  1
  Pr  Pr16  1  0.372297  0.482954  0.373438  1
  Pr  Pr17  1  0.872121  0.019002  0.376038  1
  Pr  Pr18  1  0.982698  0.127179  0.124406  1
  Pr  Pr19  1  0.019333  0.873433  0.623547  1
  Si  Si20  1  0.332688  0.696057  0.950926  1
  Si  Si21  1  0.665372  0.304029  0.451416  1
  Si  Si22  1  0.697871  0.334605  0.049489  1
  Si  Si23  1  0.304541  0.668365  0.548380  1
  Si  Si24  1  0.804125  0.832683  0.201979  1
  Si  Si25  1  0.167757  0.197322  0.298784  1
  Si  Si26  1  0.834593  0.803550  0.798658  1
  Si  Si27  1  0.288518  0.922076  0.059221  1
  Si  Si28  1  0.578511  0.787520  0.309603  1
  Si  Si29  1  0.429401  0.209102  0.813046  1
  Si  Si30  1  0.787409  0.578992  0.690342  1
  Si  Si31  1  0.212104  0.422438  0.190634  1
  Si  Si32  1  0.707290  0.076216  0.558609  1
  Si  Si33  1  0.921264  0.288958  0.941398  1
  Si  Si34  1  0.078838  0.713541  0.441288  1
  Pd  Pd35  1  0.194768  0.169995  0.697811  1
