# generated using pymatgen
data_CaPr3(NdIr)6
_symmetry_space_group_name_H-M   'P 1'
_cell_length_a   11.31267605
_cell_length_b   11.30156100
_cell_length_c   6.54572661
_cell_angle_alpha   90.00028202
_cell_angle_beta   89.95062504
_cell_angle_gamma   90.00006087
_symmetry_Int_Tables_number   1
_chemical_formula_structural   CaPr3(NdIr)6
_chemical_formula_sum   'Ca2 Pr6 Nd12 Ir12'
_cell_volume   836.87671707
_cell_formula_units_Z   2
loop_
 _symmetry_equiv_pos_site_id
 _symmetry_equiv_pos_as_xyz
  1  'x, y, z'
loop_
 _atom_site_type_symbol
 _atom_site_label
 _atom_site_symmetry_multiplicity
 _atom_site_fract_x
 _atom_site_fract_y
 _atom_site_fract_z
 _atom_site_occupancy
  Ca  Ca0  1  0.000187  0.999985  0.499304  1
  Ca  Ca1  1  0.000188  0.000016  0.999303  1
  Pr  Pr2  1  0.790252  0.410370  0.116958  1
  Pr  Pr3  1  0.790254  0.589631  0.616954  1
  Pr  Pr4  1  0.911611  0.712605  0.115821  1
  Pr  Pr5  1  0.911612  0.287395  0.615821  1
  Pr  Pr6  1  0.089541  0.712214  0.616070  1
  Pr  Pr7  1  0.089541  0.287786  0.116070  1
  Nd  Nd8  1  0.289367  0.087799  0.385722  1
  Nd  Nd9  1  0.289368  0.912201  0.885721  1
  Nd  Nd10  1  0.710576  0.087644  0.885617  1
  Nd  Nd11  1  0.710576  0.912357  0.385617  1
  Nd  Nd12  1  0.588554  0.792442  0.884397  1
  Nd  Nd13  1  0.588555  0.207559  0.384399  1
  Nd  Nd14  1  0.410842  0.792045  0.383943  1
  Nd  Nd15  1  0.410844  0.207952  0.883949  1
  Nd  Nd16  1  0.208994  0.410679  0.615972  1
  Nd  Nd17  1  0.208995  0.589321  0.115974  1
  Nd  Nd18  1  0.499292  0.500212  0.999550  1
  Nd  Nd19  1  0.499293  0.499787  0.499549  1
  Ir  Ir20  1  0.841078  0.156699  0.248861  1
  Ir  Ir21  1  0.841077  0.843299  0.748862  1
  Ir  Ir22  1  0.159131  0.157545  0.748392  1
  Ir  Ir23  1  0.159131  0.842455  0.248394  1
  Ir  Ir24  1  0.652478  0.345188  0.749515  1
  Ir  Ir25  1  0.652479  0.654814  0.249514  1
  Ir  Ir26  1  0.346686  0.346086  0.250250  1
  Ir  Ir27  1  0.346687  0.653913  0.750248  1
  Ir  Ir28  1  0.500133  0.000064  0.116619  1
  Ir  Ir29  1  0.500133  0.999934  0.616618  1
  Ir  Ir30  1  0.001271  0.500107  0.883007  1
  Ir  Ir31  1  0.001271  0.499896  0.383009  1
