# generated using pymatgen
data_Ta2Mn2SiGe
_symmetry_space_group_name_H-M   'P 1'
_cell_length_a   3.58211200
_cell_length_b   6.41255110
_cell_length_c   7.56306933
_cell_angle_alpha   90.55229242
_cell_angle_beta   90.00000000
_cell_angle_gamma   90.00000000
_symmetry_Int_Tables_number   1
_chemical_formula_structural   Ta2Mn2SiGe
_chemical_formula_sum   'Ta4 Mn4 Si2 Ge2'
_cell_volume   173.71923355
_cell_formula_units_Z   2
loop_
 _symmetry_equiv_pos_site_id
 _symmetry_equiv_pos_as_xyz
  1  'x, y, z'
loop_
 _atom_site_type_symbol
 _atom_site_label
 _atom_site_symmetry_multiplicity
 _atom_site_fract_x
 _atom_site_fract_y
 _atom_site_fract_z
 _atom_site_occupancy
  Ta  Ta0  1  0.750000  0.969778  0.834202  1
  Ta  Ta1  1  0.250000  0.541015  0.321436  1
  Ta  Ta2  1  0.250000  0.030142  0.165826  1
  Ta  Ta3  1  0.750000  0.458932  0.678557  1
  Mn  Mn4  1  0.750000  0.365282  0.058251  1
  Mn  Mn5  1  0.250000  0.634874  0.941730  1
  Mn  Mn6  1  0.750000  0.858881  0.432516  1
  Mn  Mn7  1  0.250000  0.141133  0.567492  1
  Si  Si8  1  0.250000  0.265045  0.872738  1
  Si  Si9  1  0.750000  0.734925  0.127312  1
  Ge  Ge10  1  0.250000  0.762299  0.632928  1
  Ge  Ge11  1  0.750000  0.237691  0.367012  1
