# generated using pymatgen
data_Dy2Co5Ni5As6
_symmetry_space_group_name_H-M   'P 1'
_cell_length_a   3.81627400
_cell_length_b   10.69425400
_cell_length_c   12.24096100
_cell_angle_alpha   90.00000000
_cell_angle_beta   90.00000000
_cell_angle_gamma   90.00000000
_symmetry_Int_Tables_number   1
_chemical_formula_structural   Dy2Co5Ni5As6
_chemical_formula_sum   'Dy4 Co10 Ni10 As12'
_cell_volume   499.58059124
_cell_formula_units_Z   2
loop_
 _symmetry_equiv_pos_site_id
 _symmetry_equiv_pos_as_xyz
  1  'x, y, z'
loop_
 _atom_site_type_symbol
 _atom_site_label
 _atom_site_symmetry_multiplicity
 _atom_site_fract_x
 _atom_site_fract_y
 _atom_site_fract_z
 _atom_site_occupancy
  Dy  Dy0  1  0.250000  0.580037  0.703541  1
  Dy  Dy1  1  0.250000  0.919963  0.203541  1
  Dy  Dy2  1  0.750000  0.420239  0.297535  1
  Dy  Dy3  1  0.750000  0.079761  0.797535  1
  Co  Co4  1  0.750000  0.782308  0.822468  1
  Co  Co5  1  0.750000  0.717692  0.322468  1
  Co  Co6  1  0.250000  0.880355  0.696286  1
  Co  Co7  1  0.250000  0.619645  0.196286  1
  Co  Co8  1  0.750000  0.118458  0.303330  1
  Co  Co9  1  0.750000  0.381542  0.803330  1
  Co  Co10  1  0.250000  0.468685  0.932658  1
  Co  Co11  1  0.250000  0.031315  0.432658  1
  Co  Co12  1  0.750000  0.531001  0.068037  1
  Co  Co13  1  0.750000  0.968999  0.568037  1
  Ni  Ni14  1  0.250000  0.707082  0.989775  1
  Ni  Ni15  1  0.250000  0.792918  0.489775  1
  Ni  Ni16  1  0.750000  0.290129  0.007806  1
  Ni  Ni17  1  0.750000  0.209871  0.507806  1
  Ni  Ni18  1  0.250000  0.409789  0.486570  1
  Ni  Ni19  1  0.250000  0.090211  0.986570  1
  Ni  Ni20  1  0.750000  0.591366  0.513620  1
  Ni  Ni21  1  0.750000  0.908634  0.013620  1
  Ni  Ni22  1  0.250000  0.217299  0.177945  1
  Ni  Ni23  1  0.250000  0.282701  0.677945  1
  As  As24  1  0.250000  0.419649  0.114933  1
  As  As25  1  0.250000  0.080351  0.614933  1
  As  As26  1  0.750000  0.582453  0.885315  1
  As  As27  1  0.750000  0.917547  0.385315  1
  As  As28  1  0.250000  0.269558  0.869764  1
  As  As29  1  0.250000  0.230442  0.369764  1
  As  As30  1  0.750000  0.730884  0.132107  1
  As  As31  1  0.750000  0.769116  0.632107  1
  As  As32  1  0.250000  0.606093  0.387908  1
  As  As33  1  0.250000  0.893907  0.887908  1
  As  As34  1  0.750000  0.397619  0.610405  1
  As  As35  1  0.750000  0.102381  0.110405  1
