# generated using pymatgen
data_Tm16Al4TcPt3
_symmetry_space_group_name_H-M   'P 1'
_cell_length_a   9.46617308
_cell_length_b   9.46617257
_cell_length_c   9.46617358
_cell_angle_alpha   59.87401136
_cell_angle_beta   59.87401227
_cell_angle_gamma   59.87400706
_symmetry_Int_Tables_number   1
_chemical_formula_structural   Tm16Al4TcPt3
_chemical_formula_sum   'Tm16 Al4 Tc1 Pt3'
_cell_volume   598.08788218
_cell_formula_units_Z   1
loop_
 _symmetry_equiv_pos_site_id
 _symmetry_equiv_pos_as_xyz
  1  'x, y, z'
loop_
 _atom_site_type_symbol
 _atom_site_label
 _atom_site_symmetry_multiplicity
 _atom_site_fract_x
 _atom_site_fract_y
 _atom_site_fract_z
 _atom_site_occupancy
  Tm  Tm0  1  0.353926  0.353926  0.353926  1
  Tm  Tm1  1  0.354325  0.354325  0.936899  1
  Tm  Tm2  1  0.354325  0.936899  0.354325  1
  Tm  Tm3  1  0.936899  0.354325  0.354325  1
  Tm  Tm4  1  0.811300  0.191700  0.191700  1
  Tm  Tm5  1  0.193257  0.806553  0.806553  1
  Tm  Tm6  1  0.191700  0.811300  0.191700  1
  Tm  Tm7  1  0.806553  0.193257  0.806553  1
  Tm  Tm8  1  0.191700  0.191700  0.811300  1
  Tm  Tm9  1  0.806553  0.806553  0.193257  1
  Tm  Tm10  1  0.934588  0.564617  0.564617  1
  Tm  Tm11  1  0.556699  0.938957  0.938957  1
  Tm  Tm12  1  0.564617  0.934588  0.564617  1
  Tm  Tm13  1  0.938957  0.556699  0.938957  1
  Tm  Tm14  1  0.564617  0.564617  0.934588  1
  Tm  Tm15  1  0.938957  0.938957  0.556699  1
  Al  Al16  1  0.579099  0.579099  0.579099  1
  Al  Al17  1  0.577775  0.577775  0.265117  1
  Al  Al18  1  0.577775  0.265117  0.577775  1
  Al  Al19  1  0.265117  0.577775  0.577775  1
  Tc  Tc20  1  0.144590  0.144590  0.144590  1
  Pt  Pt21  1  0.142895  0.142895  0.570882  1
  Pt  Pt22  1  0.142895  0.570882  0.142895  1
  Pt  Pt23  1  0.570882  0.142895  0.142895  1
