# generated using pymatgen
data_Tb2Er2Lu2GaCo2
_symmetry_space_group_name_H-M   'P 1'
_cell_length_a   8.20214769
_cell_length_b   8.20214803
_cell_length_c   8.20214779
_cell_angle_alpha   106.84261899
_cell_angle_beta   109.21654091
_cell_angle_gamma   112.40288581
_symmetry_Int_Tables_number   1
_chemical_formula_structural   Tb2Er2Lu2GaCo2
_chemical_formula_sum   'Tb4 Er4 Lu4 Ga2 Co4'
_cell_volume   423.76567163
_cell_formula_units_Z   2
loop_
 _symmetry_equiv_pos_site_id
 _symmetry_equiv_pos_as_xyz
  1  'x, y, z'
loop_
 _atom_site_type_symbol
 _atom_site_label
 _atom_site_symmetry_multiplicity
 _atom_site_fract_x
 _atom_site_fract_y
 _atom_site_fract_z
 _atom_site_occupancy
  Tb  Tb0  1  0.698708  0.261031  0.959739  1
  Tb  Tb1  1  0.301292  0.738969  0.040261  1
  Tb  Tb2  1  0.698708  0.738969  0.437678  1
  Tb  Tb3  1  0.301292  0.261031  0.562322  1
  Er  Er4  1  0.601520  0.780935  0.820585  1
  Er  Er5  1  0.960349  0.780935  0.179415  1
  Er  Er6  1  0.039651  0.219065  0.820585  1
  Er  Er7  1  0.398480  0.219065  0.179415  1
  Lu  Lu8  1  0.812900  0.140949  0.328050  1
  Lu  Lu9  1  0.812900  0.484850  0.671950  1
  Lu  Lu10  1  0.187100  0.859051  0.671950  1
  Lu  Lu11  1  0.187100  0.515150  0.328050  1
  Ga  Ga12  1  0.500000  0.500000  0.000000  1
  Ga  Ga13  1  0.500000  0.000000  0.500000  1
  Co  Co14  1  0.840266  0.500000  0.340266  1
  Co  Co15  1  0.159734  0.500000  0.659734  1
  Co  Co16  1  0.000000  0.115902  0.115902  1
  Co  Co17  1  0.000000  0.884098  0.884098  1
