# generated using pymatgen
data_Pr2Sm2Zn10SiPb
_symmetry_space_group_name_H-M   'P 1'
_cell_length_a   8.47413953
_cell_length_b   8.47413966
_cell_length_c   8.97384700
_cell_angle_alpha   90.00000000
_cell_angle_beta   90.00000000
_cell_angle_gamma   149.60234045
_symmetry_Int_Tables_number   1
_chemical_formula_structural   Pr2Sm2Zn10SiPb
_chemical_formula_sum   'Pr2 Sm2 Zn10 Si1 Pb1'
_cell_volume   326.07623267
_cell_formula_units_Z   1
loop_
 _symmetry_equiv_pos_site_id
 _symmetry_equiv_pos_as_xyz
  1  'x, y, z'
loop_
 _atom_site_type_symbol
 _atom_site_label
 _atom_site_symmetry_multiplicity
 _atom_site_fract_x
 _atom_site_fract_y
 _atom_site_fract_z
 _atom_site_occupancy
  Pr  Pr0  1  0.000794  0.999206  0.483041  1
  Pr  Pr1  1  0.000794  0.999206  0.016959  1
  Sm  Sm2  1  0.202272  0.797728  0.250000  1
  Sm  Sm3  1  0.794057  0.205943  0.750000  1
  Zn  Zn4  1  0.812202  0.187798  0.390441  1
  Zn  Zn5  1  0.186436  0.813564  0.606734  1
  Zn  Zn6  1  0.812202  0.187798  0.109559  1
  Zn  Zn7  1  0.186436  0.813564  0.893266  1
  Zn  Zn8  1  0.650927  0.349073  0.473458  1
  Zn  Zn9  1  0.341718  0.658282  0.512299  1
  Zn  Zn10  1  0.650927  0.349073  0.026542  1
  Zn  Zn11  1  0.341718  0.658282  0.987701  1
  Zn  Zn12  1  0.405363  0.594637  0.250000  1
  Zn  Zn13  1  0.609079  0.390921  0.750000  1
  Si  Si14  1  0.559223  0.440777  0.250000  1
  Pb  Pb15  1  0.445853  0.554147  0.750000  1
