# generated using pymatgen
data_YHo3(SiAu2)8
_symmetry_space_group_name_H-M   'P 1'
_cell_length_a   4.41346100
_cell_length_b   4.41414700
_cell_length_c   26.93712300
_cell_angle_alpha   90.00000000
_cell_angle_beta   90.00000000
_cell_angle_gamma   90.00000000
_symmetry_Int_Tables_number   1
_chemical_formula_structural   YHo3(SiAu2)8
_chemical_formula_sum   'Y1 Ho3 Si8 Au16'
_cell_volume   524.78002339
_cell_formula_units_Z   1
loop_
 _symmetry_equiv_pos_site_id
 _symmetry_equiv_pos_as_xyz
  1  'x, y, z'
loop_
 _atom_site_type_symbol
 _atom_site_label
 _atom_site_symmetry_multiplicity
 _atom_site_fract_x
 _atom_site_fract_y
 _atom_site_fract_z
 _atom_site_occupancy
  Y  Y0  1  0.500000  0.000000  0.250290  1
  Ho  Ho1  1  0.000000  0.500000  0.749709  1
  Ho  Ho2  1  0.500000  0.500000  0.999882  1
  Ho  Ho3  1  0.500000  0.500000  0.500112  1
  Si  Si4  1  0.000000  0.000000  0.956735  1
  Si  Si5  1  0.000000  0.000000  0.457079  1
  Si  Si6  1  0.500000  0.000000  0.792928  1
  Si  Si7  1  0.500000  0.000000  0.706534  1
  Si  Si8  1  0.000000  0.500000  0.206811  1
  Si  Si9  1  0.000000  0.500000  0.293709  1
  Si  Si10  1  0.000000  0.000000  0.042973  1
  Si  Si11  1  0.000000  0.000000  0.543216  1
  Au  Au12  1  0.500000  0.000000  0.085507  1
  Au  Au13  1  0.500000  0.500000  0.663568  1
  Au  Au14  1  0.500000  0.500000  0.835811  1
  Au  Au15  1  0.000000  0.500000  0.084818  1
  Au  Au16  1  0.500000  0.000000  0.914868  1
  Au  Au17  1  0.000000  0.000000  0.664770  1
  Au  Au18  1  0.000000  0.500000  0.415477  1
  Au  Au19  1  0.500000  0.500000  0.336929  1
  Au  Au20  1  0.500000  0.000000  0.414741  1
  Au  Au21  1  0.000000  0.000000  0.335817  1
  Au  Au22  1  0.000000  0.000000  0.164785  1
  Au  Au23  1  0.500000  0.000000  0.584844  1
  Au  Au24  1  0.000000  0.000000  0.834724  1
  Au  Au25  1  0.500000  0.500000  0.163631  1
  Au  Au26  1  0.000000  0.500000  0.585522  1
  Au  Au27  1  0.000000  0.500000  0.914209  1
