# generated using pymatgen
data_YTm11In20
_symmetry_space_group_name_H-M   'P 1'
_cell_length_a   6.44924719
_cell_length_b   10.37882869
_cell_length_c   12.19637900
_cell_angle_alpha   89.96763913
_cell_angle_beta   89.96521873
_cell_angle_gamma   90.00485491
_symmetry_Int_Tables_number   1
_chemical_formula_structural   YTm11In20
_chemical_formula_sum   'Y1 Tm11 In20'
_cell_volume   816.37205004
_cell_formula_units_Z   1
loop_
 _symmetry_equiv_pos_site_id
 _symmetry_equiv_pos_as_xyz
  1  'x, y, z'
loop_
 _atom_site_type_symbol
 _atom_site_label
 _atom_site_symmetry_multiplicity
 _atom_site_fract_x
 _atom_site_fract_y
 _atom_site_fract_z
 _atom_site_occupancy
  Y  Y0  1  0.609067  0.493394  0.641396  1
  Tm  Tm1  1  0.891486  0.007208  0.140333  1
  Tm  Tm2  1  0.348696  0.750090  0.053457  1
  Tm  Tm3  1  0.150130  0.749438  0.553240  1
  Tm  Tm4  1  0.650877  0.250421  0.946614  1
  Tm  Tm5  1  0.848965  0.249342  0.446638  1
  Tm  Tm6  1  0.891803  0.493256  0.140237  1
  Tm  Tm7  1  0.608313  0.006577  0.640168  1
  Tm  Tm8  1  0.108483  0.993150  0.859762  1
  Tm  Tm9  1  0.390874  0.506770  0.358755  1
  Tm  Tm10  1  0.108649  0.506875  0.859718  1
  Tm  Tm11  1  0.391737  0.993319  0.359377  1
  In  In12  1  0.615503  0.751030  0.504121  1
  In  In13  1  0.884031  0.750399  0.005986  1
  In  In14  1  0.383108  0.249695  0.493930  1
  In  In15  1  0.116261  0.249957  0.994341  1
  In  In16  1  0.649943  0.750084  0.244200  1
  In  In17  1  0.851252  0.751045  0.745077  1
  In  In18  1  0.349897  0.249195  0.755762  1
  In  In19  1  0.149612  0.249940  0.255514  1
  In  In20  1  0.130343  0.750211  0.283693  1
  In  In21  1  0.370008  0.750288  0.783488  1
  In  In22  1  0.871735  0.248341  0.716940  1
  In  In23  1  0.630052  0.250184  0.216603  1
  In  In24  1  0.875823  0.542737  0.399178  1
  In  In25  1  0.623633  0.957226  0.899735  1
  In  In26  1  0.123707  0.042585  0.600264  1
  In  In27  1  0.376043  0.456967  0.100359  1
  In  In28  1  0.122678  0.456492  0.599945  1
  In  In29  1  0.376283  0.043020  0.100354  1
  In  In30  1  0.876644  0.957151  0.399436  1
  In  In31  1  0.624362  0.543618  0.901372  1
