# generated using pymatgen
data_Er4Lu(SnPb)2
_symmetry_space_group_name_H-M   'P 1'
_cell_length_a   8.05241800
_cell_length_b   8.12096600
_cell_length_c   15.42405700
_cell_angle_alpha   90.00000000
_cell_angle_beta   90.00000000
_cell_angle_gamma   90.00000000
_symmetry_Int_Tables_number   1
_chemical_formula_structural   Er4Lu(SnPb)2
_chemical_formula_sum   'Er16 Lu4 Sn8 Pb8'
_cell_volume   1008.63172639
_cell_formula_units_Z   4
loop_
 _symmetry_equiv_pos_site_id
 _symmetry_equiv_pos_as_xyz
  1  'x, y, z'
loop_
 _atom_site_type_symbol
 _atom_site_label
 _atom_site_symmetry_multiplicity
 _atom_site_fract_x
 _atom_site_fract_y
 _atom_site_fract_z
 _atom_site_occupancy
  Er  Er0  1  0.378241  0.839758  0.876878  1
  Er  Er1  1  0.878241  0.660242  0.623122  1
  Er  Er2  1  0.621759  0.160242  0.376878  1
  Er  Er3  1  0.121759  0.339758  0.123122  1
  Er  Er4  1  0.621759  0.160242  0.123122  1
  Er  Er5  1  0.121759  0.339758  0.376878  1
  Er  Er6  1  0.378241  0.839758  0.623122  1
  Er  Er7  1  0.878241  0.660242  0.876878  1
  Er  Er8  1  0.535170  0.323444  0.897431  1
  Er  Er9  1  0.035170  0.176556  0.602569  1
  Er  Er10  1  0.464830  0.676556  0.397431  1
  Er  Er11  1  0.964830  0.823444  0.102569  1
  Er  Er12  1  0.464830  0.676556  0.102569  1
  Er  Er13  1  0.964830  0.823444  0.397431  1
  Er  Er14  1  0.535170  0.323444  0.602569  1
  Er  Er15  1  0.035170  0.176556  0.897431  1
  Lu  Lu16  1  0.209260  0.503968  0.750000  1
  Lu  Lu17  1  0.709260  0.996032  0.750000  1
  Lu  Lu18  1  0.790740  0.496032  0.250000  1
  Lu  Lu19  1  0.290740  0.003968  0.250000  1
  Sn  Sn20  1  0.574009  0.623251  0.750000  1
  Sn  Sn21  1  0.074009  0.876749  0.750000  1
  Sn  Sn22  1  0.425991  0.376749  0.250000  1
  Sn  Sn23  1  0.925991  0.123251  0.250000  1
  Sn  Sn24  1  0.343852  0.149932  0.750000  1
  Sn  Sn25  1  0.843852  0.350068  0.750000  1
  Sn  Sn26  1  0.656148  0.850068  0.250000  1
  Sn  Sn27  1  0.156148  0.649932  0.250000  1
  Pb  Pb28  1  0.281794  0.033327  0.041892  1
  Pb  Pb29  1  0.781794  0.466673  0.458108  1
  Pb  Pb30  1  0.718206  0.966673  0.541892  1
  Pb  Pb31  1  0.218206  0.533327  0.958108  1
  Pb  Pb32  1  0.718206  0.966673  0.958108  1
  Pb  Pb33  1  0.218206  0.533327  0.541892  1
  Pb  Pb34  1  0.281794  0.033327  0.458108  1
  Pb  Pb35  1  0.781794  0.466673  0.041892  1
