# generated using pymatgen
data_Y4ErBi2P
_symmetry_space_group_name_H-M   'P 1'
_cell_length_a   7.98604100
_cell_length_b   9.00278500
_cell_length_c   12.16188400
_cell_angle_alpha   90.00000000
_cell_angle_beta   90.00000000
_cell_angle_gamma   90.00000000
_symmetry_Int_Tables_number   1
_chemical_formula_structural   Y4ErBi2P
_chemical_formula_sum   'Y16 Er4 Bi8 P4'
_cell_volume   874.39823232
_cell_formula_units_Z   4
loop_
 _symmetry_equiv_pos_site_id
 _symmetry_equiv_pos_as_xyz
  1  'x, y, z'
loop_
 _atom_site_type_symbol
 _atom_site_label
 _atom_site_symmetry_multiplicity
 _atom_site_fract_x
 _atom_site_fract_y
 _atom_site_fract_z
 _atom_site_occupancy
  Y  Y0  1  0.650132  0.750000  0.705631  1
  Y  Y1  1  0.349868  0.250000  0.294369  1
  Y  Y2  1  0.150132  0.250000  0.794369  1
  Y  Y3  1  0.849868  0.750000  0.205631  1
  Y  Y4  1  0.123179  0.750000  0.799391  1
  Y  Y5  1  0.876821  0.250000  0.200609  1
  Y  Y6  1  0.623179  0.250000  0.700609  1
  Y  Y7  1  0.376821  0.750000  0.299391  1
  Y  Y8  1  0.817270  0.451572  0.935799  1
  Y  Y9  1  0.182730  0.548428  0.064201  1
  Y  Y10  1  0.317270  0.548428  0.564201  1
  Y  Y11  1  0.182730  0.951572  0.064201  1
  Y  Y12  1  0.682730  0.451572  0.435799  1
  Y  Y13  1  0.817270  0.048428  0.935799  1
  Y  Y14  1  0.682730  0.048428  0.435799  1
  Y  Y15  1  0.317270  0.951572  0.564201  1
  Er  Er16  1  0.541751  0.750000  0.998345  1
  Er  Er17  1  0.458249  0.250000  0.001655  1
  Er  Er18  1  0.041751  0.250000  0.501655  1
  Er  Er19  1  0.958249  0.750000  0.498345  1
  Bi  Bi20  1  0.923674  0.010011  0.671524  1
  Bi  Bi21  1  0.076326  0.989989  0.328476  1
  Bi  Bi22  1  0.423674  0.989989  0.828476  1
  Bi  Bi23  1  0.076326  0.510011  0.328476  1
  Bi  Bi24  1  0.576326  0.010011  0.171524  1
  Bi  Bi25  1  0.923674  0.489989  0.671524  1
  Bi  Bi26  1  0.576326  0.489989  0.171524  1
  Bi  Bi27  1  0.423674  0.510011  0.828476  1
  P  P28  1  0.925831  0.750000  0.987707  1
  P  P29  1  0.074169  0.250000  0.012293  1
  P  P30  1  0.425831  0.250000  0.512293  1
  P  P31  1  0.574169  0.750000  0.487707  1
