# generated using pymatgen
data_TmScB6Ru
_symmetry_space_group_name_H-M   'P 1'
_cell_length_a   3.54173000
_cell_length_b   8.93529900
_cell_length_c   11.29599300
_cell_angle_alpha   90.00000000
_cell_angle_beta   90.00000000
_cell_angle_gamma   90.00000000
_symmetry_Int_Tables_number   1
_chemical_formula_structural   TmScB6Ru
_chemical_formula_sum   'Tm4 Sc4 B24 Ru4'
_cell_volume   357.47769957
_cell_formula_units_Z   4
loop_
 _symmetry_equiv_pos_site_id
 _symmetry_equiv_pos_as_xyz
  1  'x, y, z'
loop_
 _atom_site_type_symbol
 _atom_site_label
 _atom_site_symmetry_multiplicity
 _atom_site_fract_x
 _atom_site_fract_y
 _atom_site_fract_z
 _atom_site_occupancy
  Tm  Tm0  1  0.000000  0.820191  0.085387  1
  Tm  Tm1  1  0.000000  0.179809  0.914613  1
  Tm  Tm2  1  0.000000  0.320191  0.414613  1
  Tm  Tm3  1  0.000000  0.679809  0.585387  1
  Sc  Sc4  1  0.000000  0.445290  0.126416  1
  Sc  Sc5  1  0.000000  0.554710  0.873584  1
  Sc  Sc6  1  0.000000  0.945290  0.373584  1
  Sc  Sc7  1  0.000000  0.054710  0.626416  1
  B  B8  1  0.500000  0.055153  0.066545  1
  B  B9  1  0.500000  0.944847  0.933455  1
  B  B10  1  0.500000  0.555153  0.433455  1
  B  B11  1  0.500000  0.444847  0.566545  1
  B  B12  1  0.500000  0.253229  0.080829  1
  B  B13  1  0.500000  0.746771  0.919171  1
  B  B14  1  0.500000  0.753229  0.419171  1
  B  B15  1  0.500000  0.246771  0.580829  1
  B  B16  1  0.500000  0.294001  0.235631  1
  B  B17  1  0.500000  0.705999  0.764369  1
  B  B18  1  0.500000  0.794001  0.264369  1
  B  B19  1  0.500000  0.205999  0.735631  1
  B  B20  1  0.500000  0.129455  0.317788  1
  B  B21  1  0.500000  0.870545  0.682212  1
  B  B22  1  0.500000  0.629455  0.182212  1
  B  B23  1  0.500000  0.370545  0.817788  1
  B  B24  1  0.500000  0.481926  0.286058  1
  B  B25  1  0.500000  0.518074  0.713942  1
  B  B26  1  0.500000  0.981926  0.213942  1
  B  B27  1  0.500000  0.018074  0.786058  1
  B  B28  1  0.500000  0.100458  0.473002  1
  B  B29  1  0.500000  0.899542  0.526998  1
  B  B30  1  0.500000  0.600458  0.026998  1
  B  B31  1  0.500000  0.399542  0.973002  1
  Ru  Ru32  1  0.000000  0.140278  0.181105  1
  Ru  Ru33  1  0.000000  0.859722  0.818895  1
  Ru  Ru34  1  0.000000  0.640278  0.318895  1
  Ru  Ru35  1  0.000000  0.359722  0.681105  1
