# generated using pymatgen
data_NaTiCrS4
_symmetry_space_group_name_H-M   'P 1'
_cell_length_a   3.49090200
_cell_length_b   5.91881469
_cell_length_c   6.96399888
_cell_angle_alpha   90.20465696
_cell_angle_beta   90.00000000
_cell_angle_gamma   90.00000000
_symmetry_Int_Tables_number   1
_chemical_formula_structural   NaTiCrS4
_chemical_formula_sum   'Na1 Ti1 Cr1 S4'
_cell_volume   143.88924115
_cell_formula_units_Z   1
loop_
 _symmetry_equiv_pos_site_id
 _symmetry_equiv_pos_as_xyz
  1  'x, y, z'
loop_
 _atom_site_type_symbol
 _atom_site_label
 _atom_site_symmetry_multiplicity
 _atom_site_fract_x
 _atom_site_fract_y
 _atom_site_fract_z
 _atom_site_occupancy
  Na  Na0  1  0.000000  0.000000  0.500000  1
  Ti  Ti1  1  0.500000  0.500000  0.000000  1
  Cr  Cr2  1  0.000000  0.000000  0.000000  1
  S  S3  1  0.000000  0.333807  0.199916  1
  S  S4  1  0.500000  0.839493  0.197800  1
  S  S5  1  0.500000  0.160507  0.802200  1
  S  S6  1  0.000000  0.666193  0.800084  1
