# generated using pymatgen
data_Tb5MnCoO12
_symmetry_space_group_name_H-M   'P 1'
_cell_length_a   6.79759640
_cell_length_b   6.79759808
_cell_length_c   7.26989481
_cell_angle_alpha   74.49470350
_cell_angle_beta   74.49470214
_cell_angle_gamma   50.50814018
_symmetry_Int_Tables_number   1
_chemical_formula_structural   Tb5MnCoO12
_chemical_formula_sum   'Tb5 Mn1 Co1 O12'
_cell_volume   247.65336332
_cell_formula_units_Z   1
loop_
 _symmetry_equiv_pos_site_id
 _symmetry_equiv_pos_as_xyz
  1  'x, y, z'
loop_
 _atom_site_type_symbol
 _atom_site_label
 _atom_site_symmetry_multiplicity
 _atom_site_fract_x
 _atom_site_fract_y
 _atom_site_fract_z
 _atom_site_occupancy
  Tb  Tb0  1  0.690740  0.693764  0.665993  1
  Tb  Tb1  1  0.696066  0.693457  0.142973  1
  Tb  Tb2  1  0.004077  0.995923  0.000000  1
  Tb  Tb3  1  0.306543  0.303934  0.857027  1
  Tb  Tb4  1  0.306236  0.309260  0.334007  1
  Mn  Mn5  1  0.754120  0.245880  0.500000  1
  Co  Co6  1  0.241523  0.758477  0.500000  1
  O  O7  1  0.402021  0.903154  0.925202  1
  O  O8  1  0.578169  0.097185  0.579092  1
  O  O9  1  0.902815  0.421831  0.420908  1
  O  O10  1  0.096846  0.597979  0.074798  1
  O  O11  1  0.004913  0.996008  0.325653  1
  O  O12  1  0.497682  0.502291  0.676803  1
  O  O13  1  0.903129  0.403493  0.922098  1
  O  O14  1  0.103554  0.586643  0.577678  1
  O  O15  1  0.413357  0.896446  0.422322  1
  O  O16  1  0.596507  0.096871  0.077902  1
  O  O17  1  0.497709  0.502318  0.323197  1
  O  O18  1  0.003992  0.995087  0.674347  1
