# generated using pymatgen
data_Ba6Lu3In(IrO9)2
_symmetry_space_group_name_H-M   'P 1'
_cell_length_a   10.40111580
_cell_length_b   10.40111546
_cell_length_c   10.40111500
_cell_angle_alpha   146.44874759
_cell_angle_beta   131.86473864
_cell_angle_gamma   59.94929975
_symmetry_Int_Tables_number   1
_chemical_formula_structural   Ba6Lu3In(IrO9)2
_chemical_formula_sum   'Ba6 Lu3 In1 Ir2 O18'
_cell_volume   458.92038128
_cell_formula_units_Z   1
loop_
 _symmetry_equiv_pos_site_id
 _symmetry_equiv_pos_as_xyz
  1  'x, y, z'
loop_
 _atom_site_type_symbol
 _atom_site_label
 _atom_site_symmetry_multiplicity
 _atom_site_fract_x
 _atom_site_fract_y
 _atom_site_fract_z
 _atom_site_occupancy
  Ba  Ba0  1  0.580820  0.838902  0.741918  1
  Ba  Ba1  1  0.265231  0.500000  0.765231  1
  Ba  Ba2  1  0.903015  0.161098  0.741918  1
  Ba  Ba3  1  0.096985  0.838902  0.258082  1
  Ba  Ba4  1  0.734769  0.500000  0.234769  1
  Ba  Ba5  1  0.419180  0.161098  0.258082  1
  Lu  Lu6  1  0.330322  0.330322  0.000000  1
  Lu  Lu7  1  0.000000  0.000000  0.000000  1
  Lu  Lu8  1  0.669678  0.669678  0.000000  1
  In  In9  1  0.500000  0.000000  0.500000  1
  Ir  Ir10  1  0.166229  0.666229  0.500000  1
  Ir  Ir11  1  0.833771  0.333771  0.500000  1
  O  O12  1  0.597634  0.330684  0.266951  1
  O  O13  1  0.246980  0.000000  0.246980  1
  O  O14  1  0.936267  0.669316  0.266951  1
  O  O15  1  0.911254  0.644130  0.732875  1
  O  O16  1  0.588084  0.340710  0.752627  1
  O  O17  1  0.242333  0.975870  0.733537  1
  O  O18  1  0.757667  0.491206  0.733537  1
  O  O19  1  0.411916  0.164544  0.752627  1
  O  O20  1  0.088746  0.821621  0.732875  1
  O  O21  1  0.063733  0.330684  0.733049  1
  O  O22  1  0.753020  0.000000  0.753020  1
  O  O23  1  0.402366  0.669316  0.733049  1
  O  O24  1  0.757667  0.024130  0.266463  1
  O  O25  1  0.411916  0.659290  0.247373  1
  O  O26  1  0.088746  0.355870  0.267125  1
  O  O27  1  0.911254  0.178379  0.267125  1
  O  O28  1  0.588084  0.835456  0.247373  1
  O  O29  1  0.242333  0.508794  0.266463  1
