# generated using pymatgen
data_Tb2Tm(CdGa)3
_symmetry_space_group_name_H-M   'P 1'
_cell_length_a   7.27171022
_cell_length_b   7.27171095
_cell_length_c   4.41947400
_cell_angle_alpha   90.00000000
_cell_angle_beta   90.00000000
_cell_angle_gamma   119.77814283
_symmetry_Int_Tables_number   1
_chemical_formula_structural   Tb2Tm(CdGa)3
_chemical_formula_sum   'Tb2 Tm1 Cd3 Ga3'
_cell_volume   202.83409176
_cell_formula_units_Z   1
loop_
 _symmetry_equiv_pos_site_id
 _symmetry_equiv_pos_as_xyz
  1  'x, y, z'
loop_
 _atom_site_type_symbol
 _atom_site_label
 _atom_site_symmetry_multiplicity
 _atom_site_fract_x
 _atom_site_fract_y
 _atom_site_fract_z
 _atom_site_occupancy
  Tb  Tb0  1  0.575165  0.999447  0.500000  1
  Tb  Tb1  1  0.999447  0.575165  0.500000  1
  Tm  Tm2  1  0.423977  0.423977  0.500000  1
  Cd  Cd3  1  0.750056  0.750056  0.000000  1
  Cd  Cd4  1  0.249452  0.000428  0.000000  1
  Cd  Cd5  1  0.000428  0.249452  0.000000  1
  Ga  Ga6  1  0.665644  0.334146  0.000000  1
  Ga  Ga7  1  0.334146  0.665644  0.000000  1
  Ga  Ga8  1  0.001684  0.001684  0.500000  1
