# generated using pymatgen
data_LaPr6PBr12
_symmetry_space_group_name_H-M   'P 1'
_cell_length_a   9.47591264
_cell_length_b   9.47591240
_cell_length_c   9.47591259
_cell_angle_alpha   107.02119502
_cell_angle_beta   107.02118506
_cell_angle_gamma   107.02117281
_symmetry_Int_Tables_number   1
_chemical_formula_structural   LaPr6PBr12
_chemical_formula_sum   'La1 Pr6 P1 Br12'
_cell_volume   708.20265461
_cell_formula_units_Z   1
loop_
 _symmetry_equiv_pos_site_id
 _symmetry_equiv_pos_as_xyz
  1  'x, y, z'
loop_
 _atom_site_type_symbol
 _atom_site_label
 _atom_site_symmetry_multiplicity
 _atom_site_fract_x
 _atom_site_fract_y
 _atom_site_fract_z
 _atom_site_occupancy
  La  La0  1  0.500000  0.500000  0.500000  1
  Pr  Pr1  1  0.102765  0.314346  0.025285  1
  Pr  Pr2  1  0.314346  0.025286  0.102764  1
  Pr  Pr3  1  0.025286  0.102764  0.314347  1
  Pr  Pr4  1  0.974715  0.897236  0.685654  1
  Pr  Pr5  1  0.685654  0.974715  0.897236  1
  Pr  Pr6  1  0.897235  0.685654  0.974715  1
  P  P7  1  0.000000  0.000000  0.000000  1
  Br  Br8  1  0.228053  0.684458  0.076813  1
  Br  Br9  1  0.464182  0.380979  0.156150  1
  Br  Br10  1  0.684459  0.076813  0.228053  1
  Br  Br11  1  0.923188  0.771947  0.315542  1
  Br  Br12  1  0.156150  0.464182  0.380979  1
  Br  Br13  1  0.380979  0.156150  0.464182  1
  Br  Br14  1  0.619021  0.843850  0.535819  1
  Br  Br15  1  0.843851  0.535818  0.619021  1
  Br  Br16  1  0.076813  0.228053  0.684459  1
  Br  Br17  1  0.315542  0.923188  0.771947  1
  Br  Br18  1  0.535818  0.619021  0.843851  1
  Br  Br19  1  0.771947  0.315542  0.923187  1
