# generated using pymatgen
data_Er3CdIn3Ni2
_symmetry_space_group_name_H-M   'P 1'
_cell_length_a   7.80617700
_cell_length_b   7.80617761
_cell_length_c   3.64975400
_cell_angle_alpha   90.00000000
_cell_angle_beta   90.00000000
_cell_angle_gamma   120.00000167
_symmetry_Int_Tables_number   1
_chemical_formula_structural   Er3CdIn3Ni2
_chemical_formula_sum   'Er3 Cd1 In3 Ni2'
_cell_volume   192.60654468
_cell_formula_units_Z   1
loop_
 _symmetry_equiv_pos_site_id
 _symmetry_equiv_pos_as_xyz
  1  'x, y, z'
loop_
 _atom_site_type_symbol
 _atom_site_label
 _atom_site_symmetry_multiplicity
 _atom_site_fract_x
 _atom_site_fract_y
 _atom_site_fract_z
 _atom_site_occupancy
  Er  Er0  1  0.964536  0.579316  0.500000  1
  Er  Er1  1  0.420684  0.385221  0.500000  1
  Er  Er2  1  0.614779  0.035464  0.500000  1
  Cd  Cd3  1  0.333333  0.666667  0.000000  1
  In  In4  1  0.249104  0.995790  0.000000  1
  In  In5  1  0.746687  0.750896  0.000000  1
  In  In6  1  0.004210  0.253313  0.000000  1
  Ni  Ni7  1  0.000000  0.000000  0.500000  1
  Ni  Ni8  1  0.666667  0.333333  0.000000  1
