# generated using pymatgen
data_La2B2Pd3Pt5
_symmetry_space_group_name_H-M   'P 1'
_cell_length_a   5.53532402
_cell_length_b   5.53532407
_cell_length_c   7.71535700
_cell_angle_alpha   90.00000000
_cell_angle_beta   90.00000000
_cell_angle_gamma   120.01027322
_symmetry_Int_Tables_number   1
_chemical_formula_structural   La2B2Pd3Pt5
_chemical_formula_sum   'La2 B2 Pd3 Pt5'
_cell_volume   204.70468919
_cell_formula_units_Z   1
loop_
 _symmetry_equiv_pos_site_id
 _symmetry_equiv_pos_as_xyz
  1  'x, y, z'
loop_
 _atom_site_type_symbol
 _atom_site_label
 _atom_site_symmetry_multiplicity
 _atom_site_fract_x
 _atom_site_fract_y
 _atom_site_fract_z
 _atom_site_occupancy
  La  La0  1  0.000000  0.000000  0.502998  1
  La  La1  1  0.000000  0.000000  0.001842  1
  B  B2  1  0.330436  0.669564  0.998703  1
  B  B3  1  0.669564  0.330436  0.998703  1
  Pd  Pd4  1  0.333988  0.666012  0.498942  1
  Pd  Pd5  1  0.666012  0.333988  0.498942  1
  Pd  Pd6  1  0.500000  0.500000  0.198834  1
  Pt  Pt7  1  0.500000  0.000000  0.198136  1
  Pt  Pt8  1  0.500000  0.000000  0.799764  1
  Pt  Pt9  1  0.000000  0.500000  0.198136  1
  Pt  Pt10  1  0.000000  0.500000  0.799764  1
  Pt  Pt11  1  0.500000  0.500000  0.805235  1
