# generated using pymatgen
data_Er3Lu(GaRh)4
_symmetry_space_group_name_H-M   'P 1'
_cell_length_a   4.23561400
_cell_length_b   6.80403632
_cell_length_c   7.82155424
_cell_angle_alpha   90.23430590
_cell_angle_beta   90.00000000
_cell_angle_gamma   90.00000000
_symmetry_Int_Tables_number   1
_chemical_formula_structural   Er3Lu(GaRh)4
_chemical_formula_sum   'Er3 Lu1 Ga4 Rh4'
_cell_volume   225.40961032
_cell_formula_units_Z   1
loop_
 _symmetry_equiv_pos_site_id
 _symmetry_equiv_pos_as_xyz
  1  'x, y, z'
loop_
 _atom_site_type_symbol
 _atom_site_label
 _atom_site_symmetry_multiplicity
 _atom_site_fract_x
 _atom_site_fract_y
 _atom_site_fract_z
 _atom_site_occupancy
  Er  Er0  1  0.250000  0.469608  0.189164  1
  Er  Er1  1  0.750000  0.029808  0.687562  1
  Er  Er2  1  0.750000  0.530845  0.812061  1
  Lu  Lu3  1  0.250000  0.969240  0.311449  1
  Ga  Ga4  1  0.250000  0.348714  0.568367  1
  Ga  Ga5  1  0.250000  0.850223  0.932280  1
  Ga  Ga6  1  0.750000  0.650593  0.431134  1
  Ga  Ga7  1  0.750000  0.150008  0.068543  1
  Rh  Rh8  1  0.250000  0.237857  0.888182  1
  Rh  Rh9  1  0.250000  0.737939  0.609862  1
  Rh  Rh10  1  0.750000  0.764922  0.113085  1
  Rh  Rh11  1  0.750000  0.260243  0.388312  1
