# generated using pymatgen
data_TmZr2RhF15
_symmetry_space_group_name_H-M   'P 1'
_cell_length_a   8.07498729
_cell_length_b   8.07498662
_cell_length_c   8.11160707
_cell_angle_alpha   79.79047039
_cell_angle_beta   79.79047520
_cell_angle_gamma   99.76392937
_symmetry_Int_Tables_number   1
_chemical_formula_structural   TmZr2RhF15
_chemical_formula_sum   'Tm2 Zr4 Rh2 F30'
_cell_volume   501.15050488
_cell_formula_units_Z   2
loop_
 _symmetry_equiv_pos_site_id
 _symmetry_equiv_pos_as_xyz
  1  'x, y, z'
loop_
 _atom_site_type_symbol
 _atom_site_label
 _atom_site_symmetry_multiplicity
 _atom_site_fract_x
 _atom_site_fract_y
 _atom_site_fract_z
 _atom_site_occupancy
  Tm  Tm0  1  0.676343  0.323657  0.750000  1
  Tm  Tm1  1  0.323657  0.676343  0.250000  1
  Zr  Zr2  1  0.822715  0.750627  0.325614  1
  Zr  Zr3  1  0.249373  0.177285  0.174386  1
  Zr  Zr4  1  0.177285  0.249373  0.674386  1
  Zr  Zr5  1  0.750627  0.822715  0.825614  1
  Rh  Rh6  1  0.249467  0.750533  0.750000  1
  Rh  Rh7  1  0.750533  0.249467  0.250000  1
  F  F8  1  0.149867  0.185833  0.946348  1
  F  F9  1  0.687617  0.561349  0.847783  1
  F  F10  1  0.044404  0.654951  0.313063  1
  F  F11  1  0.654951  0.044404  0.813063  1
  F  F12  1  0.561349  0.687617  0.347783  1
  F  F13  1  0.185833  0.149867  0.446348  1
  F  F14  1  0.850133  0.814167  0.053652  1
  F  F15  1  0.312383  0.438651  0.152217  1
  F  F16  1  0.955596  0.345049  0.686937  1
  F  F17  1  0.345049  0.955596  0.186937  1
  F  F18  1  0.438651  0.312383  0.652217  1
  F  F19  1  0.814167  0.850133  0.553652  1
  F  F20  1  0.968685  0.031315  0.750000  1
  F  F21  1  0.541379  0.753077  0.028680  1
  F  F22  1  0.246923  0.458621  0.471320  1
  F  F23  1  0.458621  0.246923  0.971320  1
  F  F24  1  0.753077  0.541379  0.528680  1
  F  F25  1  0.031315  0.968685  0.250000  1
  F  F26  1  0.217374  0.728412  0.995219  1
  F  F27  1  0.226475  0.499581  0.785541  1
  F  F28  1  0.997431  0.714750  0.775125  1
  F  F29  1  0.714750  0.997431  0.275125  1
  F  F30  1  0.499581  0.226475  0.285541  1
  F  F31  1  0.728412  0.217374  0.495219  1
  F  F32  1  0.782626  0.271588  0.004781  1
  F  F33  1  0.773525  0.500419  0.214459  1
  F  F34  1  0.002569  0.285250  0.224875  1
  F  F35  1  0.285250  0.002569  0.724875  1
  F  F36  1  0.500419  0.773525  0.714459  1
  F  F37  1  0.271588  0.782626  0.504781  1
