# generated using pymatgen
data_Na2MnP2Rh
_symmetry_space_group_name_H-M   'P 1'
_cell_length_a   3.96375600
_cell_length_b   3.96375600
_cell_length_c   6.63932000
_cell_angle_alpha   90.00000000
_cell_angle_beta   90.00000000
_cell_angle_gamma   90.00000000
_symmetry_Int_Tables_number   1
_chemical_formula_structural   Na2MnP2Rh
_chemical_formula_sum   'Na2 Mn1 P2 Rh1'
_cell_volume   104.31275748
_cell_formula_units_Z   1
loop_
 _symmetry_equiv_pos_site_id
 _symmetry_equiv_pos_as_xyz
  1  'x, y, z'
loop_
 _atom_site_type_symbol
 _atom_site_label
 _atom_site_symmetry_multiplicity
 _atom_site_fract_x
 _atom_site_fract_y
 _atom_site_fract_z
 _atom_site_occupancy
  Na  Na0  1  0.500000  0.000000  0.646280  1
  Na  Na1  1  0.000000  0.500000  0.353720  1
  Mn  Mn2  1  0.000000  0.000000  0.000000  1
  P  P3  1  0.500000  0.000000  0.181769  1
  P  P4  1  0.000000  0.500000  0.818231  1
  Rh  Rh5  1  0.500000  0.500000  0.000000  1
