# generated using pymatgen
data_Ac16Cd4CoOs3
_symmetry_space_group_name_H-M   'P 1'
_cell_length_a   10.46602978
_cell_length_b   10.46602939
_cell_length_c   10.46603109
_cell_angle_alpha   60.42777415
_cell_angle_beta   60.42777574
_cell_angle_gamma   60.42777657
_symmetry_Int_Tables_number   1
_chemical_formula_structural   Ac16Cd4CoOs3
_chemical_formula_sum   'Ac16 Cd4 Co1 Os3'
_cell_volume   818.48617904
_cell_formula_units_Z   1
loop_
 _symmetry_equiv_pos_site_id
 _symmetry_equiv_pos_as_xyz
  1  'x, y, z'
loop_
 _atom_site_type_symbol
 _atom_site_label
 _atom_site_symmetry_multiplicity
 _atom_site_fract_x
 _atom_site_fract_y
 _atom_site_fract_z
 _atom_site_occupancy
  Ac  Ac0  1  0.939453  0.939453  0.559736  1
  Ac  Ac1  1  0.558523  0.936667  0.558523  1
  Ac  Ac2  1  0.559736  0.939453  0.939453  1
  Ac  Ac3  1  0.688683  0.688683  0.308906  1
  Ac  Ac4  1  0.156326  0.156326  0.537056  1
  Ac  Ac5  1  0.308906  0.688683  0.688683  1
  Ac  Ac6  1  0.156328  0.156328  0.156328  1
  Ac  Ac7  1  0.537056  0.156326  0.156326  1
  Ac  Ac8  1  0.309552  0.688265  0.309552  1
  Ac  Ac9  1  0.309552  0.309552  0.688265  1
  Ac  Ac10  1  0.688683  0.308906  0.688683  1
  Ac  Ac11  1  0.936667  0.558523  0.558523  1
  Ac  Ac12  1  0.558523  0.558523  0.936667  1
  Ac  Ac13  1  0.156326  0.537056  0.156326  1
  Ac  Ac14  1  0.688265  0.309552  0.309552  1
  Ac  Ac15  1  0.939453  0.559736  0.939453  1
  Cd  Cd16  1  0.234978  0.921470  0.921470  1
  Cd  Cd17  1  0.922347  0.922347  0.922347  1
  Cd  Cd18  1  0.921470  0.921470  0.234978  1
  Cd  Cd19  1  0.921470  0.234978  0.921470  1
  Co  Co20  1  0.362223  0.362223  0.362223  1
  Os  Os21  1  0.916905  0.364286  0.364286  1
  Os  Os22  1  0.364286  0.364286  0.916905  1
  Os  Os23  1  0.364286  0.916905  0.364286  1
