# generated using pymatgen
data_Yb2Er5Tm13Ir12
_symmetry_space_group_name_H-M   'P 1'
_cell_length_a   10.74544290
_cell_length_b   10.78110601
_cell_length_c   6.30943706
_cell_angle_alpha   90.00325139
_cell_angle_beta   90.23164551
_cell_angle_gamma   89.99524486
_symmetry_Int_Tables_number   1
_chemical_formula_structural   Yb2Er5Tm13Ir12
_chemical_formula_sum   'Yb2 Er5 Tm13 Ir12'
_cell_volume   730.92816721
_cell_formula_units_Z   1
loop_
 _symmetry_equiv_pos_site_id
 _symmetry_equiv_pos_as_xyz
  1  'x, y, z'
loop_
 _atom_site_type_symbol
 _atom_site_label
 _atom_site_symmetry_multiplicity
 _atom_site_fract_x
 _atom_site_fract_y
 _atom_site_fract_z
 _atom_site_occupancy
  Yb  Yb0  1  0.288877  0.087965  0.374346  1
  Yb  Yb1  1  0.288874  0.912187  0.874359  1
  Er  Er2  1  0.709192  0.086428  0.878033  1
  Er  Er3  1  0.709279  0.913611  0.378042  1
  Er  Er4  1  0.587020  0.792167  0.876538  1
  Er  Er5  1  0.586936  0.207873  0.376528  1
  Er  Er6  1  0.412393  0.792601  0.377855  1
  Tm  Tm7  1  0.412523  0.207203  0.878111  1
  Tm  Tm8  1  0.209397  0.413580  0.623567  1
  Tm  Tm9  1  0.209333  0.586302  0.123512  1
  Tm  Tm10  1  0.791605  0.412819  0.121445  1
  Tm  Tm11  1  0.791596  0.587179  0.621425  1
  Tm  Tm12  1  0.913053  0.709091  0.123666  1
  Tm  Tm13  1  0.913049  0.290905  0.623666  1
  Tm  Tm14  1  0.087052  0.708255  0.622164  1
  Tm  Tm15  1  0.087097  0.291736  0.122128  1
  Tm  Tm16  1  0.000740  0.999548  0.500188  1
  Tm  Tm17  1  0.000751  0.000481  0.000123  1
  Tm  Tm18  1  0.500183  0.499783  0.998761  1
  Tm  Tm19  1  0.500218  0.500075  0.498842  1
  Ir  Ir20  1  0.848982  0.153942  0.250476  1
  Ir  Ir21  1  0.848999  0.846049  0.750462  1
  Ir  Ir22  1  0.147669  0.159967  0.753941  1
  Ir  Ir23  1  0.147419  0.840073  0.253799  1
  Ir  Ir24  1  0.652096  0.345989  0.750818  1
  Ir  Ir25  1  0.652280  0.653902  0.250717  1
  Ir  Ir26  1  0.347152  0.351634  0.245893  1
  Ir  Ir27  1  0.347076  0.648225  0.746325  1
  Ir  Ir28  1  0.504535  0.000456  0.123271  1
  Ir  Ir29  1  0.504532  0.999966  0.623734  1
  Ir  Ir30  1  0.000055  0.500330  0.878620  1
  Ir  Ir31  1  0.000041  0.499676  0.378641  1
