# generated using pymatgen
data_Tb4Dy3(HoIn2)3
_symmetry_space_group_name_H-M   'P 1'
_cell_length_a   6.03304004
_cell_length_b   9.18664821
_cell_length_c   9.18763402
_cell_angle_alpha   83.82296501
_cell_angle_beta   70.83291973
_cell_angle_gamma   70.83078187
_symmetry_Int_Tables_number   1
_chemical_formula_structural   Tb4Dy3(HoIn2)3
_chemical_formula_sum   'Tb4 Dy3 Ho3 In6'
_cell_volume   454.31302558
_cell_formula_units_Z   1
loop_
 _symmetry_equiv_pos_site_id
 _symmetry_equiv_pos_as_xyz
  1  'x, y, z'
loop_
 _atom_site_type_symbol
 _atom_site_label
 _atom_site_symmetry_multiplicity
 _atom_site_fract_x
 _atom_site_fract_y
 _atom_site_fract_z
 _atom_site_occupancy
  Tb  Tb0  1  0.719932  0.862628  0.697506  1
  Tb  Tb1  1  0.280195  0.137190  0.302419  1
  Tb  Tb2  1  0.780096  0.302284  0.137525  1
  Tb  Tb3  1  0.219794  0.697612  0.862800  1
  Dy  Dy4  1  0.581628  0.698883  0.137860  1
  Dy  Dy5  1  0.418268  0.301102  0.862362  1
  Dy  Dy6  1  0.081614  0.137706  0.699066  1
  Ho  Ho7  1  0.918394  0.862549  0.300663  1
  Ho  Ho8  1  0.749972  0.500145  0.499883  1
  Ho  Ho9  1  0.249999  0.500145  0.499883  1
  In  In10  1  0.161322  0.500665  0.176693  1
  In  In11  1  0.838573  0.499572  0.823281  1
  In  In12  1  0.338602  0.823419  0.499377  1
  In  In13  1  0.661677  0.176308  0.500338  1
  In  In14  1  0.249955  0.999895  0.000171  1
  In  In15  1  0.749978  0.999895  0.000171  1
