# generated using pymatgen
data_DyU(PS3)4
_symmetry_space_group_name_H-M   'P 1'
_cell_length_a   6.99413000
_cell_length_b   6.99413000
_cell_length_c   9.77880200
_cell_angle_alpha   90.00000000
_cell_angle_beta   90.00000000
_cell_angle_gamma   90.00000000
_symmetry_Int_Tables_number   1
_chemical_formula_structural   DyU(PS3)4
_chemical_formula_sum   'Dy1 U1 P4 S12'
_cell_volume   478.35801300
_cell_formula_units_Z   1
loop_
 _symmetry_equiv_pos_site_id
 _symmetry_equiv_pos_as_xyz
  1  'x, y, z'
loop_
 _atom_site_type_symbol
 _atom_site_label
 _atom_site_symmetry_multiplicity
 _atom_site_fract_x
 _atom_site_fract_y
 _atom_site_fract_z
 _atom_site_occupancy
  Dy  Dy0  1  0.000000  0.000000  0.750000  1
  U  U1  1  0.000000  0.000000  0.250000  1
  P  P2  1  0.057959  0.345401  0.500177  1
  P  P3  1  0.942041  0.654599  0.500177  1
  P  P4  1  0.345401  0.942041  0.999823  1
  P  P5  1  0.654599  0.057959  0.999823  1
  S  S6  1  0.212294  0.314983  0.670867  1
  S  S7  1  0.688772  0.205804  0.178698  1
  S  S8  1  0.169254  0.175767  0.008220  1
  S  S9  1  0.824233  0.169254  0.491780  1
  S  S10  1  0.175767  0.830746  0.491780  1
  S  S11  1  0.830746  0.824233  0.008220  1
  S  S12  1  0.205804  0.311228  0.321302  1
  S  S13  1  0.685017  0.212294  0.829133  1
  S  S14  1  0.314983  0.787706  0.829133  1
  S  S15  1  0.794196  0.688772  0.321302  1
  S  S16  1  0.787706  0.685017  0.670867  1
  S  S17  1  0.311228  0.794196  0.178698  1
