# generated using pymatgen
data_Er4Lu8InCo4Au
_symmetry_space_group_name_H-M   'P 1'
_cell_length_a   8.18327119
_cell_length_b   8.18327120
_cell_length_c   8.18327100
_cell_angle_alpha   111.31899309
_cell_angle_beta   110.63831200
_cell_angle_gamma   106.49743681
_symmetry_Int_Tables_number   1
_chemical_formula_structural   Er4Lu8InCo4Au
_chemical_formula_sum   'Er4 Lu8 In1 Co4 Au1'
_cell_volume   420.98845867
_cell_formula_units_Z   1
loop_
 _symmetry_equiv_pos_site_id
 _symmetry_equiv_pos_as_xyz
  1  'x, y, z'
loop_
 _atom_site_type_symbol
 _atom_site_label
 _atom_site_symmetry_multiplicity
 _atom_site_fract_x
 _atom_site_fract_y
 _atom_site_fract_z
 _atom_site_occupancy
  Er  Er0  1  0.429215  0.223599  0.205616  1
  Er  Er1  1  0.570785  0.776401  0.794384  1
  Er  Er2  1  0.017983  0.223599  0.794384  1
  Er  Er3  1  0.982017  0.776401  0.205616  1
  Lu  Lu4  1  0.186349  0.290398  0.476748  1
  Lu  Lu5  1  0.813651  0.709602  0.523252  1
  Lu  Lu6  1  0.186349  0.709602  0.895951  1
  Lu  Lu7  1  0.813651  0.290398  0.104049  1
  Lu  Lu8  1  0.315880  0.620024  0.304145  1
  Lu  Lu9  1  0.684120  0.379976  0.695855  1
  Lu  Lu10  1  0.315880  0.011735  0.695855  1
  Lu  Lu11  1  0.684120  0.988265  0.304145  1
  In  In12  1  0.500000  0.500000  0.000000  1
  Co  Co13  1  0.113011  0.613011  0.500000  1
  Co  Co14  1  0.886989  0.386989  0.500000  1
  Co  Co15  1  0.377548  0.000000  0.377548  1
  Co  Co16  1  0.622452  0.000000  0.622452  1
  Au  Au17  1  0.000000  0.000000  0.000000  1
