# generated using pymatgen
data_Tb3(PrSn2)2
_symmetry_space_group_name_H-M   'P 1'
_cell_length_a   8.17361100
_cell_length_b   8.35276300
_cell_length_c   15.75908700
_cell_angle_alpha   90.00000000
_cell_angle_beta   90.00000000
_cell_angle_gamma   90.00000000
_symmetry_Int_Tables_number   1
_chemical_formula_structural   Tb3(PrSn2)2
_chemical_formula_sum   'Tb12 Pr8 Sn16'
_cell_volume   1075.90809952
_cell_formula_units_Z   4
loop_
 _symmetry_equiv_pos_site_id
 _symmetry_equiv_pos_as_xyz
  1  'x, y, z'
loop_
 _atom_site_type_symbol
 _atom_site_label
 _atom_site_symmetry_multiplicity
 _atom_site_fract_x
 _atom_site_fract_y
 _atom_site_fract_z
 _atom_site_occupancy
  Tb  Tb0  1  0.360727  0.836105  0.877158  1
  Tb  Tb1  1  0.860727  0.663895  0.622842  1
  Tb  Tb2  1  0.639273  0.163895  0.377158  1
  Tb  Tb3  1  0.139273  0.336105  0.122842  1
  Tb  Tb4  1  0.639273  0.163895  0.122842  1
  Tb  Tb5  1  0.139273  0.336105  0.377158  1
  Tb  Tb6  1  0.360727  0.836105  0.622842  1
  Tb  Tb7  1  0.860727  0.663895  0.877158  1
  Tb  Tb8  1  0.195269  0.502116  0.750000  1
  Tb  Tb9  1  0.695269  0.997884  0.750000  1
  Tb  Tb10  1  0.804731  0.497884  0.250000  1
  Tb  Tb11  1  0.304731  0.002116  0.250000  1
  Pr  Pr12  1  0.514013  0.321725  0.903041  1
  Pr  Pr13  1  0.014013  0.178275  0.596959  1
  Pr  Pr14  1  0.485987  0.678275  0.403041  1
  Pr  Pr15  1  0.985987  0.821725  0.096959  1
  Pr  Pr16  1  0.485987  0.678275  0.096959  1
  Pr  Pr17  1  0.985987  0.821725  0.403041  1
  Pr  Pr18  1  0.514013  0.321725  0.596959  1
  Pr  Pr19  1  0.014013  0.178275  0.903041  1
  Sn  Sn20  1  0.303605  0.040957  0.041967  1
  Sn  Sn21  1  0.803605  0.459043  0.458033  1
  Sn  Sn22  1  0.696395  0.959043  0.541967  1
  Sn  Sn23  1  0.196395  0.540957  0.958033  1
  Sn  Sn24  1  0.696395  0.959043  0.958033  1
  Sn  Sn25  1  0.196395  0.540957  0.541967  1
  Sn  Sn26  1  0.303605  0.040957  0.458033  1
  Sn  Sn27  1  0.803605  0.459043  0.041967  1
  Sn  Sn28  1  0.560489  0.623984  0.750000  1
  Sn  Sn29  1  0.060489  0.876016  0.750000  1
  Sn  Sn30  1  0.439511  0.376016  0.250000  1
  Sn  Sn31  1  0.939511  0.123984  0.250000  1
  Sn  Sn32  1  0.323634  0.141834  0.750000  1
  Sn  Sn33  1  0.823634  0.358166  0.750000  1
  Sn  Sn34  1  0.676366  0.858166  0.250000  1
  Sn  Sn35  1  0.176366  0.641834  0.250000  1
