# generated using pymatgen
data_NaGaI20
_symmetry_space_group_name_H-M   'P 1'
_cell_length_a   7.13501788
_cell_length_b   16.00698484
_cell_length_c   14.80068606
_cell_angle_alpha   99.68754904
_cell_angle_beta   99.57075177
_cell_angle_gamma   77.55141264
_symmetry_Int_Tables_number   1
_chemical_formula_structural   NaGaI20
_chemical_formula_sum   'Na1 Ga1 I20'
_cell_volume   1612.20313587
_cell_formula_units_Z   1
loop_
 _symmetry_equiv_pos_site_id
 _symmetry_equiv_pos_as_xyz
  1  'x, y, z'
loop_
 _atom_site_type_symbol
 _atom_site_label
 _atom_site_symmetry_multiplicity
 _atom_site_fract_x
 _atom_site_fract_y
 _atom_site_fract_z
 _atom_site_occupancy
  Na  Na0  1  0.383074  0.636648  0.502840  1
  Ga  Ga1  1  0.350687  0.259197  0.495829  1
  I  I2  1  0.567627  0.863842  0.831637  1
  I  I3  1  0.031075  0.621823  0.315415  1
  I  I4  1  0.153466  0.378148  0.594216  1
  I  I5  1  0.511329  0.126871  0.597747  1
  I  I6  1  0.739890  0.597231  0.654008  1
  I  I7  1  0.447665  0.807061  0.395720  1
  I  I8  1  0.450855  0.188931  0.200057  1
  I  I9  1  0.313472  0.474744  0.355704  1
  I  I10  1  0.955910  0.710208  0.602385  1
  I  I11  1  0.133831  0.829249  0.185354  1
  I  I12  1  0.151940  0.185761  0.351365  1
  I  I13  1  0.771542  0.186650  0.111901  1
  I  I14  1  0.746725  0.802052  0.287303  1
  I  I15  1  0.221205  0.147392  0.721614  1
  I  I16  1  0.894786  0.846765  0.013883  1
  I  I17  1  0.926673  0.171913  0.845120  1
  I  I18  1  0.179267  0.834504  0.554619  1
  I  I19  1  0.175377  0.179506  0.022599  1
  I  I20  1  0.244804  0.856240  0.913966  1
  I  I21  1  0.648800  0.295266  0.446716  1
