# generated using pymatgen
data_Er6Zn16PPt7
_symmetry_space_group_name_H-M   'P 1'
_cell_length_a   8.99017855
_cell_length_b   8.99034056
_cell_length_c   8.98959702
_cell_angle_alpha   59.99656707
_cell_angle_beta   60.00101327
_cell_angle_gamma   60.00067017
_symmetry_Int_Tables_number   1
_chemical_formula_structural   Er6Zn16PPt7
_chemical_formula_sum   'Er6 Zn16 P1 Pt7'
_cell_volume   513.76432270
_cell_formula_units_Z   1
loop_
 _symmetry_equiv_pos_site_id
 _symmetry_equiv_pos_as_xyz
  1  'x, y, z'
loop_
 _atom_site_type_symbol
 _atom_site_label
 _atom_site_symmetry_multiplicity
 _atom_site_fract_x
 _atom_site_fract_y
 _atom_site_fract_z
 _atom_site_occupancy
  Er  Er0  1  0.715311  0.284690  0.284725  1
  Er  Er1  1  0.715291  0.284665  0.715297  1
  Er  Er2  1  0.715272  0.715305  0.284674  1
  Er  Er3  1  0.284689  0.715310  0.715275  1
  Er  Er4  1  0.284709  0.715335  0.284703  1
  Er  Er5  1  0.284728  0.284695  0.715326  1
  Zn  Zn6  1  0.632620  0.122466  0.122455  1
  Zn  Zn7  1  0.122461  0.632625  0.122447  1
  Zn  Zn8  1  0.122464  0.122460  0.632616  1
  Zn  Zn9  1  0.122461  0.122475  0.122457  1
  Zn  Zn10  1  0.367380  0.877534  0.877545  1
  Zn  Zn11  1  0.877539  0.367375  0.877553  1
  Zn  Zn12  1  0.877536  0.877540  0.367384  1
  Zn  Zn13  1  0.877539  0.877525  0.877543  1
  Zn  Zn14  1  0.003560  0.332147  0.332150  1
  Zn  Zn15  1  0.332152  0.003537  0.332155  1
  Zn  Zn16  1  0.332149  0.332150  0.003553  1
  Zn  Zn17  1  0.332141  0.332146  0.332145  1
  Zn  Zn18  1  0.996440  0.667853  0.667850  1
  Zn  Zn19  1  0.667848  0.996463  0.667845  1
  Zn  Zn20  1  0.667851  0.667850  0.996447  1
  Zn  Zn21  1  0.667859  0.667854  0.667855  1
  P  P22  1  0.500000  0.500000  0.500000  1
  Pt  Pt23  1  0.500000  0.000000  0.000000  1
  Pt  Pt24  1  0.500000  0.000000  0.500000  1
  Pt  Pt25  1  0.500000  0.500000  0.000000  1
  Pt  Pt26  1  0.000000  0.500000  0.500000  1
  Pt  Pt27  1  0.000000  0.500000  0.000000  1
  Pt  Pt28  1  0.000000  0.000000  0.500000  1
  Pt  Pt29  1  0.000000  0.000000  0.000000  1
