# generated using pymatgen
data_Dy6Ho5In(NiHg2)4
_symmetry_space_group_name_H-M   'P 1'
_cell_length_a   3.61197200
_cell_length_b   12.83862951
_cell_length_c   12.83863022
_cell_angle_alpha   112.24453530
_cell_angle_beta   90.00000000
_cell_angle_gamma   90.00000000
_symmetry_Int_Tables_number   1
_chemical_formula_structural   Dy6Ho5In(NiHg2)4
_chemical_formula_sum   'Dy6 Ho5 In1 Ni4 Hg8'
_cell_volume   551.05393109
_cell_formula_units_Z   1
loop_
 _symmetry_equiv_pos_site_id
 _symmetry_equiv_pos_as_xyz
  1  'x, y, z'
loop_
 _atom_site_type_symbol
 _atom_site_label
 _atom_site_symmetry_multiplicity
 _atom_site_fract_x
 _atom_site_fract_y
 _atom_site_fract_z
 _atom_site_occupancy
  Dy  Dy0  1  0.000000  0.165657  0.834343  1
  Dy  Dy1  1  0.000000  0.834343  0.165657  1
  Dy  Dy2  1  0.000000  0.371527  0.628473  1
  Dy  Dy3  1  0.000000  0.628473  0.371527  1
  Dy  Dy4  1  0.000000  0.692043  0.692043  1
  Dy  Dy5  1  0.000000  0.307957  0.307957  1
  Ho  Ho6  1  0.000000  0.917587  0.582661  1
  Ho  Ho7  1  0.000000  0.082413  0.417339  1
  Ho  Ho8  1  0.000000  0.582661  0.917587  1
  Ho  Ho9  1  0.000000  0.417339  0.082413  1
  Ho  Ho10  1  0.000000  0.000000  0.000000  1
  In  In11  1  0.500000  0.500000  0.500000  1
  Ni  Ni12  1  0.500000  0.747121  0.549083  1
  Ni  Ni13  1  0.500000  0.252879  0.450917  1
  Ni  Ni14  1  0.500000  0.549083  0.747121  1
  Ni  Ni15  1  0.500000  0.450917  0.252879  1
  Hg  Hg16  1  0.500000  0.154083  0.629672  1
  Hg  Hg17  1  0.500000  0.845917  0.370328  1
  Hg  Hg18  1  0.500000  0.629672  0.154083  1
  Hg  Hg19  1  0.500000  0.370328  0.845917  1
  Hg  Hg20  1  0.500000  0.928816  0.781347  1
  Hg  Hg21  1  0.500000  0.071184  0.218653  1
  Hg  Hg22  1  0.500000  0.781347  0.928816  1
  Hg  Hg23  1  0.500000  0.218653  0.071184  1
