# generated using pymatgen
data_Lu4U2CoTc5
_symmetry_space_group_name_H-M   'P 1'
_cell_length_a   5.68561995
_cell_length_b   5.68562090
_cell_length_c   8.11769300
_cell_angle_alpha   90.00000000
_cell_angle_beta   90.00000000
_cell_angle_gamma   120.06628473
_symmetry_Int_Tables_number   1
_chemical_formula_structural   Lu4U2CoTc5
_chemical_formula_sum   'Lu4 U2 Co1 Tc5'
_cell_volume   227.10595082
_cell_formula_units_Z   1
loop_
 _symmetry_equiv_pos_site_id
 _symmetry_equiv_pos_as_xyz
  1  'x, y, z'
loop_
 _atom_site_type_symbol
 _atom_site_label
 _atom_site_symmetry_multiplicity
 _atom_site_fract_x
 _atom_site_fract_y
 _atom_site_fract_z
 _atom_site_occupancy
  Lu  Lu0  1  0.332806  0.667194  0.439168  1
  Lu  Lu1  1  0.666688  0.333312  0.556499  1
  Lu  Lu2  1  0.666688  0.333312  0.943501  1
  Lu  Lu3  1  0.332806  0.667194  0.060832  1
  U  U4  1  0.000142  0.999858  0.497579  1
  U  U5  1  0.000142  0.999858  0.002421  1
  Co  Co6  1  0.838403  0.161597  0.250000  1
  Tc  Tc7  1  0.832005  0.668597  0.250000  1
  Tc  Tc8  1  0.331403  0.167995  0.250000  1
  Tc  Tc9  1  0.164438  0.835562  0.750000  1
  Tc  Tc10  1  0.165691  0.331213  0.750000  1
  Tc  Tc11  1  0.668787  0.834309  0.750000  1
