# generated using pymatgen
data_Rb6CaBr8
_symmetry_space_group_name_H-M   'P 1'
_cell_length_a   9.84967545
_cell_length_b   9.84967631
_cell_length_c   9.84967600
_cell_angle_alpha   60.00000105
_cell_angle_beta   59.99999815
_cell_angle_gamma   59.99999779
_symmetry_Int_Tables_number   1
_chemical_formula_structural   Rb6CaBr8
_chemical_formula_sum   'Rb6 Ca1 Br8'
_cell_volume   675.69517291
_cell_formula_units_Z   1
loop_
 _symmetry_equiv_pos_site_id
 _symmetry_equiv_pos_as_xyz
  1  'x, y, z'
loop_
 _atom_site_type_symbol
 _atom_site_label
 _atom_site_symmetry_multiplicity
 _atom_site_fract_x
 _atom_site_fract_y
 _atom_site_fract_z
 _atom_site_occupancy
  Rb  Rb0  1  0.500001  0.000000  0.000000  1
  Rb  Rb1  1  0.000000  0.500001  0.000000  1
  Rb  Rb2  1  0.500000  0.500000  0.000000  1
  Rb  Rb3  1  0.000000  0.000000  0.500001  1
  Rb  Rb4  1  0.500000  0.000000  0.500000  1
  Rb  Rb5  1  0.000000  0.500000  0.500000  1
  Ca  Ca6  1  0.000000  0.000000  0.000000  1
  Br  Br7  1  0.787929  0.212070  0.212070  1
  Br  Br8  1  0.212070  0.787929  0.212070  1
  Br  Br9  1  0.787929  0.787929  0.212070  1
  Br  Br10  1  0.250000  0.250000  0.250000  1
  Br  Br11  1  0.750000  0.750000  0.750000  1
  Br  Br12  1  0.212070  0.212070  0.787929  1
  Br  Br13  1  0.787929  0.212070  0.787929  1
  Br  Br14  1  0.212070  0.787929  0.787929  1
