# generated using pymatgen
data_LiH9(SN)2
_symmetry_space_group_name_H-M   'P 1'
_cell_length_a   4.81755540
_cell_length_b   6.28609743
_cell_length_c   6.41418097
_cell_angle_alpha   74.73469065
_cell_angle_beta   83.33351228
_cell_angle_gamma   76.42950440
_symmetry_Int_Tables_number   1
_chemical_formula_structural   LiH9(SN)2
_chemical_formula_sum   'Li1 H9 S2 N2'
_cell_volume   181.85376507
_cell_formula_units_Z   1
loop_
 _symmetry_equiv_pos_site_id
 _symmetry_equiv_pos_as_xyz
  1  'x, y, z'
loop_
 _atom_site_type_symbol
 _atom_site_label
 _atom_site_symmetry_multiplicity
 _atom_site_fract_x
 _atom_site_fract_y
 _atom_site_fract_z
 _atom_site_occupancy
  Li  Li0  1  0.746752  0.687644  0.785125  1
  H  H1  1  0.178338  0.013092  0.558333  1
  H  H2  1  0.130301  0.345232  0.009655  1
  H  H3  1  0.175232  0.589560  0.038882  1
  H  H4  1  0.743422  0.401412  0.551102  1
  H  H5  1  0.476168  0.391335  0.727635  1
  H  H6  1  0.611804  0.985267  0.047627  1
  H  H7  1  0.897018  0.487823  0.155974  1
  H  H8  1  0.128087  0.955825  0.272012  1
  H  H9  1  0.454872  0.603132  0.513291  1
  S  S10  1  0.957611  0.990195  0.458387  1
  S  S11  1  0.387210  0.954098  0.959785  1
  N  N12  1  0.025301  0.506466  0.016623  1
  N  N13  1  0.590493  0.501780  0.628518  1
