# generated using pymatgen
data_Zn22NiRh2
_symmetry_space_group_name_H-M   'P 1'
_cell_length_a   7.76727638
_cell_length_b   7.76727617
_cell_length_c   7.79654173
_cell_angle_alpha   72.07395866
_cell_angle_beta   72.07395595
_cell_angle_gamma   57.78962460
_symmetry_Int_Tables_number   1
_chemical_formula_structural   Zn22NiRh2
_chemical_formula_sum   'Zn22 Ni1 Rh2'
_cell_volume   372.57436223
_cell_formula_units_Z   1
loop_
 _symmetry_equiv_pos_site_id
 _symmetry_equiv_pos_as_xyz
  1  'x, y, z'
loop_
 _atom_site_type_symbol
 _atom_site_label
 _atom_site_symmetry_multiplicity
 _atom_site_fract_x
 _atom_site_fract_y
 _atom_site_fract_z
 _atom_site_occupancy
  Zn  Zn0  1  0.343787  0.735172  0.316493  1
  Zn  Zn1  1  0.649662  0.263779  0.692376  1
  Zn  Zn2  1  0.263779  0.649662  0.692376  1
  Zn  Zn3  1  0.735172  0.343787  0.316493  1
  Zn  Zn4  1  0.676430  0.321896  0.998738  1
  Zn  Zn5  1  0.321896  0.676430  0.998738  1
  Zn  Zn6  1  0.830803  0.830803  0.782315  1
  Zn  Zn7  1  0.171626  0.171626  0.212145  1
  Zn  Zn8  1  0.975163  0.975163  0.174728  1
  Zn  Zn9  1  0.024713  0.024713  0.826514  1
  Zn  Zn10  1  0.352137  0.352137  0.271785  1
  Zn  Zn11  1  0.647008  0.647008  0.723148  1
  Zn  Zn12  1  0.687888  0.687888  0.375393  1
  Zn  Zn13  1  0.315250  0.315250  0.621511  1
  Zn  Zn14  1  0.657587  0.025815  0.461519  1
  Zn  Zn15  1  0.339732  0.976627  0.539851  1
  Zn  Zn16  1  0.976627  0.339732  0.539851  1
  Zn  Zn17  1  0.025815  0.657587  0.461519  1
  Zn  Zn18  1  0.614476  0.004262  0.099402  1
  Zn  Zn19  1  0.377762  0.008606  0.897742  1
  Zn  Zn20  1  0.008606  0.377762  0.897742  1
  Zn  Zn21  1  0.004262  0.614476  0.099402  1
  Ni  Ni22  1  0.341505  0.341505  0.946341  1
  Rh  Rh23  1  0.657982  0.657982  0.053853  1
  Rh  Rh24  1  0.000334  0.000334  0.500026  1
