# generated using pymatgen
data_SmHf2Co8P6Ru
_symmetry_space_group_name_H-M   'P 1'
_cell_length_a   12.02565431
_cell_length_b   12.02791693
_cell_length_c   3.67517000
_cell_angle_alpha   90.00000000
_cell_angle_beta   90.00000000
_cell_angle_gamma   120.00623221
_symmetry_Int_Tables_number   1
_chemical_formula_structural   SmHf2Co8P6Ru
_chemical_formula_sum   'Sm2 Hf4 Co16 P12 Ru2'
_cell_volume   460.34128196
_cell_formula_units_Z   2
loop_
 _symmetry_equiv_pos_site_id
 _symmetry_equiv_pos_as_xyz
  1  'x, y, z'
loop_
 _atom_site_type_symbol
 _atom_site_label
 _atom_site_symmetry_multiplicity
 _atom_site_fract_x
 _atom_site_fract_y
 _atom_site_fract_z
 _atom_site_occupancy
  Sm  Sm0  1  0.335431  0.666977  0.000000  1
  Sm  Sm1  1  0.664569  0.331545  0.000000  1
  Hf  Hf2  1  0.821838  0.818991  0.500000  1
  Hf  Hf3  1  0.000000  0.175089  0.500000  1
  Hf  Hf4  1  0.000000  0.557171  0.000000  1
  Hf  Hf5  1  0.178162  0.997154  0.500000  1
  Co  Co6  1  0.631071  0.824336  0.000000  1
  Co  Co7  1  0.368929  0.193264  0.000000  1
  Co  Co8  1  0.000000  0.725012  0.500000  1
  Co  Co9  1  0.278426  0.277663  0.500000  1
  Co  Co10  1  0.875575  0.348631  0.500000  1
  Co  Co11  1  0.721574  0.999237  0.500000  1
  Co  Co12  1  0.819265  0.633289  0.000000  1
  Co  Co13  1  0.180735  0.814024  0.000000  1
  Co  Co14  1  0.357780  0.879818  0.500000  1
  Co  Co15  1  0.124425  0.473056  0.500000  1
  Co  Co16  1  0.642220  0.522038  0.500000  1
  Co  Co17  1  0.000000  0.001097  0.000000  1
  Co  Co18  1  0.521434  0.646960  0.500000  1
  Co  Co19  1  0.478566  0.125527  0.500000  1
  Co  Co20  1  0.192626  0.364587  0.000000  1
  Co  Co21  1  0.807374  0.171961  0.000000  1
  P  P22  1  0.000000  0.346031  0.000000  1
  P  P23  1  0.829269  0.523734  0.500000  1
  P  P24  1  0.685627  0.160367  0.500000  1
  P  P25  1  0.175105  0.172543  0.000000  1
  P  P26  1  0.640370  0.644982  0.000000  1
  P  P27  1  0.824895  0.997437  0.000000  1
  P  P28  1  0.524121  0.839263  0.500000  1
  P  P29  1  0.170731  0.694462  0.500000  1
  P  P30  1  0.359630  0.004612  0.000000  1
  P  P31  1  0.475879  0.315142  0.500000  1
  P  P32  1  0.000000  0.827335  0.000000  1
  P  P33  1  0.314373  0.474740  0.500000  1
  Ru  Ru34  1  0.447764  0.449844  0.000000  1
  Ru  Ru35  1  0.552236  0.002080  0.000000  1
