# generated using pymatgen
data_Ta12Al8Co3CuN4
_symmetry_space_group_name_H-M   'P 1'
_cell_length_a   8.16060824
_cell_length_b   8.20240283
_cell_length_c   8.20176202
_cell_angle_alpha   59.99466812
_cell_angle_beta   59.83048913
_cell_angle_gamma   59.82352679
_symmetry_Int_Tables_number   1
_chemical_formula_structural   Ta12Al8Co3CuN4
_chemical_formula_sum   'Ta12 Al8 Co3 Cu1 N4'
_cell_volume   387.16655244
_cell_formula_units_Z   1
loop_
 _symmetry_equiv_pos_site_id
 _symmetry_equiv_pos_as_xyz
  1  'x, y, z'
loop_
 _atom_site_type_symbol
 _atom_site_label
 _atom_site_symmetry_multiplicity
 _atom_site_fract_x
 _atom_site_fract_y
 _atom_site_fract_z
 _atom_site_occupancy
  Ta  Ta0  1  0.561926  0.939181  0.559668  1
  Ta  Ta1  1  0.312676  0.688049  0.687706  1
  Ta  Ta2  1  0.688046  0.310838  0.310798  1
  Ta  Ta3  1  0.312662  0.688034  0.311563  1
  Ta  Ta4  1  0.687836  0.690409  0.310880  1
  Ta  Ta5  1  0.312611  0.311566  0.687886  1
  Ta  Ta6  1  0.562164  0.559591  0.939120  1
  Ta  Ta7  1  0.937324  0.561951  0.562294  1
  Ta  Ta8  1  0.561954  0.939162  0.939202  1
  Ta  Ta9  1  0.937389  0.938434  0.562114  1
  Ta  Ta10  1  0.688074  0.310819  0.690332  1
  Ta  Ta11  1  0.937338  0.561966  0.938437  1
  Al  Al12  1  0.921743  0.915004  0.915098  1
  Al  Al13  1  0.002863  0.332413  0.332442  1
  Al  Al14  1  0.328273  0.001870  0.334993  1
  Al  Al15  1  0.328327  0.335048  0.001803  1
  Al  Al16  1  0.921727  0.248130  0.915007  1
  Al  Al17  1  0.921673  0.914952  0.248197  1
  Al  Al18  1  0.247137  0.917587  0.917558  1
  Al  Al19  1  0.328257  0.334996  0.334902  1
  Co  Co20  1  0.125000  0.125000  0.125000  1
  Co  Co21  1  0.125000  0.625000  0.125000  1
  Co  Co22  1  0.125000  0.125000  0.625000  1
  Cu  Cu23  1  0.625000  0.125000  0.125000  1
  N  N24  1  0.625000  0.625000  0.625000  1
  N  N25  1  0.125000  0.625000  0.625000  1
  N  N26  1  0.625000  0.125000  0.625000  1
  N  N27  1  0.625000  0.625000  0.125000  1
