# generated using pymatgen
data_Mg(IrCl5)2
_symmetry_space_group_name_H-M   'P 1'
_cell_length_a   9.47976370
_cell_length_b   9.47976357
_cell_length_c   12.87171620
_cell_angle_alpha   87.05513989
_cell_angle_beta   87.05513372
_cell_angle_gamma   141.04846438
_symmetry_Int_Tables_number   1
_chemical_formula_structural   Mg(IrCl5)2
_chemical_formula_sum   'Mg2 Ir4 Cl20'
_cell_volume   718.50723423
_cell_formula_units_Z   2
loop_
 _symmetry_equiv_pos_site_id
 _symmetry_equiv_pos_as_xyz
  1  'x, y, z'
loop_
 _atom_site_type_symbol
 _atom_site_label
 _atom_site_symmetry_multiplicity
 _atom_site_fract_x
 _atom_site_fract_y
 _atom_site_fract_z
 _atom_site_occupancy
  Mg  Mg0  1  0.550784  0.449216  0.250000  1
  Mg  Mg1  1  0.449216  0.550784  0.750000  1
  Ir  Ir2  1  0.952940  0.047060  0.250000  1
  Ir  Ir3  1  0.047060  0.952940  0.750000  1
  Ir  Ir4  1  0.753443  0.246557  0.250000  1
  Ir  Ir5  1  0.246557  0.753443  0.750000  1
  Cl  Cl6  1  0.036422  0.743800  0.647386  1
  Cl  Cl7  1  0.256200  0.963578  0.852614  1
  Cl  Cl8  1  0.963578  0.256200  0.352614  1
  Cl  Cl9  1  0.743800  0.036422  0.147386  1
  Cl  Cl10  1  0.707289  0.622532  0.858946  1
  Cl  Cl11  1  0.377468  0.292711  0.641054  1
  Cl  Cl12  1  0.292711  0.377468  0.141054  1
  Cl  Cl13  1  0.622532  0.707289  0.358946  1
  Cl  Cl14  1  0.915640  0.423608  0.849832  1
  Cl  Cl15  1  0.576392  0.084360  0.650168  1
  Cl  Cl16  1  0.084360  0.576392  0.150168  1
  Cl  Cl17  1  0.423608  0.915640  0.349832  1
  Cl  Cl18  1  0.826745  0.909291  0.642489  1
  Cl  Cl19  1  0.090709  0.173255  0.857511  1
  Cl  Cl20  1  0.173255  0.090709  0.357511  1
  Cl  Cl21  1  0.909291  0.826745  0.142489  1
  Cl  Cl22  1  0.233029  0.551207  0.643220  1
  Cl  Cl23  1  0.448793  0.766971  0.856780  1
  Cl  Cl24  1  0.766971  0.448793  0.356780  1
  Cl  Cl25  1  0.551207  0.233029  0.143220  1
