# generated using pymatgen
data_Nd5Mn3(P3Ir4)4
_symmetry_space_group_name_H-M   'P 1'
_cell_length_a   12.64019600
_cell_length_b   12.64019577
_cell_length_c   4.00449800
_cell_angle_alpha   90.00000000
_cell_angle_beta   90.00000000
_cell_angle_gamma   120.00000584
_symmetry_Int_Tables_number   1
_chemical_formula_structural   Nd5Mn3(P3Ir4)4
_chemical_formula_sum   'Nd5 Mn3 P12 Ir16'
_cell_volume   554.09763396
_cell_formula_units_Z   1
loop_
 _symmetry_equiv_pos_site_id
 _symmetry_equiv_pos_as_xyz
  1  'x, y, z'
loop_
 _atom_site_type_symbol
 _atom_site_label
 _atom_site_symmetry_multiplicity
 _atom_site_fract_x
 _atom_site_fract_y
 _atom_site_fract_z
 _atom_site_occupancy
  Nd  Nd0  1  0.000000  0.183290  0.500000  1
  Nd  Nd1  1  0.816710  0.816710  0.500000  1
  Nd  Nd2  1  0.183290  0.000000  0.500000  1
  Nd  Nd3  1  0.666667  0.333333  0.000000  1
  Nd  Nd4  1  0.333333  0.666667  0.000000  1
  Mn  Mn5  1  0.000000  0.708883  0.500000  1
  Mn  Mn6  1  0.291117  0.291117  0.500000  1
  Mn  Mn7  1  0.708883  0.000000  0.500000  1
  P  P8  1  0.000000  0.815156  0.000000  1
  P  P9  1  0.184844  0.184844  0.000000  1
  P  P10  1  0.815156  0.000000  0.000000  1
  P  P11  1  0.690130  0.165035  0.500000  1
  P  P12  1  0.834965  0.525096  0.500000  1
  P  P13  1  0.474904  0.309870  0.500000  1
  P  P14  1  0.165035  0.690130  0.500000  1
  P  P15  1  0.525096  0.834965  0.500000  1
  P  P16  1  0.309870  0.474904  0.500000  1
  P  P17  1  0.000000  0.362309  0.000000  1
  P  P18  1  0.637691  0.637691  0.000000  1
  P  P19  1  0.362309  0.000000  0.000000  1
  Ir  Ir20  1  0.000000  0.545852  0.000000  1
  Ir  Ir21  1  0.454148  0.454148  0.000000  1
  Ir  Ir22  1  0.545852  0.000000  0.000000  1
  Ir  Ir23  1  0.802326  0.179612  0.000000  1
  Ir  Ir24  1  0.820388  0.622714  0.000000  1
  Ir  Ir25  1  0.377286  0.197674  0.000000  1
  Ir  Ir26  1  0.179612  0.802326  0.000000  1
  Ir  Ir27  1  0.622714  0.820388  0.000000  1
  Ir  Ir28  1  0.197674  0.377286  0.000000  1
  Ir  Ir29  1  0.871335  0.362752  0.500000  1
  Ir  Ir30  1  0.637248  0.508583  0.500000  1
  Ir  Ir31  1  0.491417  0.128665  0.500000  1
  Ir  Ir32  1  0.362752  0.871335  0.500000  1
  Ir  Ir33  1  0.508583  0.637248  0.500000  1
  Ir  Ir34  1  0.128665  0.491417  0.500000  1
  Ir  Ir35  1  0.000000  0.000000  0.000000  1
