# generated using pymatgen
data_Dy2Er4GaCo2
_symmetry_space_group_name_H-M   'P 1'
_cell_length_a   8.22473989
_cell_length_b   8.22474042
_cell_length_c   8.22474030
_cell_angle_alpha   107.02529449
_cell_angle_beta   109.21372838
_cell_angle_gamma   112.21686226
_symmetry_Int_Tables_number   1
_chemical_formula_structural   Dy2Er4GaCo2
_chemical_formula_sum   'Dy4 Er8 Ga2 Co4'
_cell_volume   427.40678720
_cell_formula_units_Z   2
loop_
 _symmetry_equiv_pos_site_id
 _symmetry_equiv_pos_as_xyz
  1  'x, y, z'
loop_
 _atom_site_type_symbol
 _atom_site_label
 _atom_site_symmetry_multiplicity
 _atom_site_fract_x
 _atom_site_fract_y
 _atom_site_fract_z
 _atom_site_occupancy
  Dy  Dy0  1  0.699388  0.262892  0.962280  1
  Dy  Dy1  1  0.300612  0.737108  0.037720  1
  Dy  Dy2  1  0.699388  0.737108  0.436498  1
  Dy  Dy3  1  0.300612  0.262892  0.563502  1
  Er  Er4  1  0.809698  0.136510  0.326812  1
  Er  Er5  1  0.809698  0.482886  0.673188  1
  Er  Er6  1  0.190302  0.863490  0.673188  1
  Er  Er7  1  0.190302  0.517114  0.326812  1
  Er  Er8  1  0.600905  0.781272  0.819633  1
  Er  Er9  1  0.961638  0.781272  0.180367  1
  Er  Er10  1  0.038362  0.218728  0.819633  1
  Er  Er11  1  0.399095  0.218728  0.180367  1
  Ga  Ga12  1  0.500000  0.500000  0.000000  1
  Ga  Ga13  1  0.500000  0.000000  0.500000  1
  Co  Co14  1  0.842896  0.500000  0.342896  1
  Co  Co15  1  0.157104  0.500000  0.657104  1
  Co  Co16  1  0.000000  0.115271  0.115271  1
  Co  Co17  1  0.000000  0.884729  0.884729  1
