# generated using pymatgen
data_Sc3Zn5Pt
_symmetry_space_group_name_H-M   'P 1'
_cell_length_a   7.26746100
_cell_length_b   7.26745988
_cell_length_c   3.46524500
_cell_angle_alpha   90.00000000
_cell_angle_beta   90.00000000
_cell_angle_gamma   119.99998233
_symmetry_Int_Tables_number   1
_chemical_formula_structural   Sc3Zn5Pt
_chemical_formula_sum   'Sc3 Zn5 Pt1'
_cell_volume   158.50027042
_cell_formula_units_Z   1
loop_
 _symmetry_equiv_pos_site_id
 _symmetry_equiv_pos_as_xyz
  1  'x, y, z'
loop_
 _atom_site_type_symbol
 _atom_site_label
 _atom_site_symmetry_multiplicity
 _atom_site_fract_x
 _atom_site_fract_y
 _atom_site_fract_z
 _atom_site_occupancy
  Sc  Sc0  1  0.589524  0.607414  0.000000  1
  Sc  Sc1  1  0.392586  0.982108  0.000000  1
  Sc  Sc2  1  0.017892  0.410476  0.000000  1
  Zn  Zn3  1  0.000000  0.000000  0.000000  1
  Zn  Zn4  1  0.666667  0.333333  0.500000  1
  Zn  Zn5  1  0.989758  0.725240  0.500000  1
  Zn  Zn6  1  0.274760  0.264518  0.500000  1
  Zn  Zn7  1  0.735482  0.010242  0.500000  1
  Pt  Pt8  1  0.333333  0.666667  0.500000  1
