# generated using pymatgen
data_Er7Lu3(ZnIn3)2
_symmetry_space_group_name_H-M   'P 1'
_cell_length_a   9.06018800
_cell_length_b   9.06018803
_cell_length_c   6.60715900
_cell_angle_alpha   90.00000000
_cell_angle_beta   90.00000000
_cell_angle_gamma   119.99999991
_symmetry_Int_Tables_number   1
_chemical_formula_structural   Er7Lu3(ZnIn3)2
_chemical_formula_sum   'Er7 Lu3 Zn2 In6'
_cell_volume   469.69918900
_cell_formula_units_Z   1
loop_
 _symmetry_equiv_pos_site_id
 _symmetry_equiv_pos_as_xyz
  1  'x, y, z'
loop_
 _atom_site_type_symbol
 _atom_site_label
 _atom_site_symmetry_multiplicity
 _atom_site_fract_x
 _atom_site_fract_y
 _atom_site_fract_z
 _atom_site_occupancy
  Er  Er0  1  0.333333  0.666667  0.500000  1
  Er  Er1  1  0.277137  0.000292  0.750332  1
  Er  Er2  1  0.723155  0.000292  0.249668  1
  Er  Er3  1  0.999708  0.276845  0.750332  1
  Er  Er4  1  0.999708  0.722863  0.249668  1
  Er  Er5  1  0.723155  0.722863  0.750332  1
  Er  Er6  1  0.277137  0.276845  0.249668  1
  Lu  Lu7  1  0.666667  0.333333  0.500000  1
  Lu  Lu8  1  0.666667  0.333333  0.000000  1
  Lu  Lu9  1  0.333333  0.666667  0.000000  1
  Zn  Zn10  1  0.000000  0.000000  0.500000  1
  Zn  Zn11  1  0.000000  0.000000  0.000000  1
  In  In12  1  0.622380  0.000701  0.750381  1
  In  In13  1  0.378321  0.000701  0.249619  1
  In  In14  1  0.999299  0.621679  0.750381  1
  In  In15  1  0.999299  0.377620  0.249619  1
  In  In16  1  0.378321  0.377620  0.750381  1
  In  In17  1  0.622380  0.621679  0.249619  1
