# generated using pymatgen
data_Y3Lu5Se12
_symmetry_space_group_name_H-M   'P 1'
_cell_length_a   13.35865950
_cell_length_b   12.74698422
_cell_length_c   7.01212331
_cell_angle_alpha   79.29652914
_cell_angle_beta   69.65390215
_cell_angle_gamma   31.23368032
_symmetry_Int_Tables_number   1
_chemical_formula_structural   Y3Lu5Se12
_chemical_formula_sum   'Y3 Lu5 Se12'
_cell_volume   565.02533321
_cell_formula_units_Z   1
loop_
 _symmetry_equiv_pos_site_id
 _symmetry_equiv_pos_as_xyz
  1  'x, y, z'
loop_
 _atom_site_type_symbol
 _atom_site_label
 _atom_site_symmetry_multiplicity
 _atom_site_fract_x
 _atom_site_fract_y
 _atom_site_fract_z
 _atom_site_occupancy
  Y  Y0  1  0.502818  0.502818  0.997182  1
  Y  Y1  1  0.252875  0.252875  0.747125  1
  Y  Y2  1  0.747154  0.747154  0.252846  1
  Lu  Lu3  1  0.334008  0.334008  0.165992  1
  Lu  Lu4  1  0.166270  0.166270  0.333730  1
  Lu  Lu5  1  0.916522  0.916522  0.083478  1
  Lu  Lu6  1  0.083492  0.083492  0.916508  1
  Lu  Lu7  1  0.997508  0.997508  0.502492  1
  Se  Se8  1  0.010612  0.489507  0.489795  1
  Se  Se9  1  0.489507  0.010612  0.010086  1
  Se  Se10  1  0.237512  0.762350  0.756969  1
  Se  Se11  1  0.762350  0.237512  0.243169  1
  Se  Se12  1  0.666862  0.169379  0.841497  1
  Se  Se13  1  0.847162  0.315951  0.661082  1
  Se  Se14  1  0.315951  0.847162  0.175804  1
  Se  Se15  1  0.169379  0.666862  0.322260  1
  Se  Se16  1  0.586507  0.079119  0.404292  1
  Se  Se17  1  0.404455  0.929937  0.586785  1
  Se  Se18  1  0.929937  0.404455  0.078824  1
  Se  Se19  1  0.079119  0.586507  0.930083  1
