# generated using pymatgen
data_V12Ni8Ge4C3N
_symmetry_space_group_name_H-M   'P 1'
_cell_length_a   7.72509070
_cell_length_b   7.68690480
_cell_length_c   7.72509100
_cell_angle_alpha   59.83553775
_cell_angle_beta   60.00000302
_cell_angle_gamma   59.83553425
_symmetry_Int_Tables_number   1
_chemical_formula_structural   V12Ni8Ge4C3N
_chemical_formula_sum   'V12 Ni8 Ge4 C3 N1'
_cell_volume   323.56357128
_cell_formula_units_Z   1
loop_
 _symmetry_equiv_pos_site_id
 _symmetry_equiv_pos_as_xyz
  1  'x, y, z'
loop_
 _atom_site_type_symbol
 _atom_site_label
 _atom_site_symmetry_multiplicity
 _atom_site_fract_x
 _atom_site_fract_y
 _atom_site_fract_z
 _atom_site_occupancy
  V  V0  1  0.820620  0.817579  0.180900  1
  V  V1  1  0.182124  0.182694  0.817591  1
  V  V2  1  0.817591  0.182694  0.817591  1
  V  V3  1  0.180900  0.817579  0.180900  1
  V  V4  1  0.180900  0.817579  0.820620  1
  V  V5  1  0.817591  0.182694  0.182124  1
  V  V6  1  0.429380  0.432421  0.069100  1
  V  V7  1  0.067876  0.067306  0.432409  1
  V  V8  1  0.432409  0.067306  0.432409  1
  V  V9  1  0.069100  0.432421  0.069100  1
  V  V10  1  0.069100  0.432421  0.429380  1
  V  V11  1  0.432409  0.067306  0.067876  1
  Ni  Ni12  1  0.756929  0.414780  0.414145  1
  Ni  Ni13  1  0.413819  0.758542  0.413819  1
  Ni  Ni14  1  0.414145  0.414780  0.756929  1
  Ni  Ni15  1  0.414145  0.414780  0.414145  1
  Ni  Ni16  1  0.493071  0.835220  0.835855  1
  Ni  Ni17  1  0.836181  0.491458  0.836181  1
  Ni  Ni18  1  0.835855  0.835220  0.493071  1
  Ni  Ni19  1  0.835855  0.835220  0.835855  1
  Ge  Ge20  1  0.125000  0.625000  0.625000  1
  Ge  Ge21  1  0.625000  0.125000  0.625000  1
  Ge  Ge22  1  0.625000  0.625000  0.125000  1
  Ge  Ge23  1  0.625000  0.625000  0.625000  1
  C  C24  1  0.625000  0.125000  0.125000  1
  C  C25  1  0.125000  0.125000  0.625000  1
  C  C26  1  0.125000  0.125000  0.125000  1
  N  N27  1  0.125000  0.625000  0.125000  1
