# generated using pymatgen
data_Er4LuMo2C7
_symmetry_space_group_name_H-M   'P 1'
_cell_length_a   8.31899350
_cell_length_b   8.31899247
_cell_length_c   3.39881000
_cell_angle_alpha   90.00000000
_cell_angle_beta   90.00000000
_cell_angle_gamma   122.18837067
_symmetry_Int_Tables_number   1
_chemical_formula_structural   Er4LuMo2C7
_chemical_formula_sum   'Er4 Lu1 Mo2 C7'
_cell_volume   199.06431546
_cell_formula_units_Z   1
loop_
 _symmetry_equiv_pos_site_id
 _symmetry_equiv_pos_as_xyz
  1  'x, y, z'
loop_
 _atom_site_type_symbol
 _atom_site_label
 _atom_site_symmetry_multiplicity
 _atom_site_fract_x
 _atom_site_fract_y
 _atom_site_fract_z
 _atom_site_occupancy
  Er  Er0  1  0.075937  0.333563  0.500000  1
  Er  Er1  1  0.924063  0.666437  0.500000  1
  Er  Er2  1  0.666437  0.924063  0.500000  1
  Er  Er3  1  0.333563  0.075937  0.500000  1
  Lu  Lu4  1  0.500000  0.500000  0.000000  1
  Mo  Mo5  1  0.711629  0.288371  0.000000  1
  Mo  Mo6  1  0.288371  0.711629  0.000000  1
  C  C7  1  0.621293  0.378707  0.500000  1
  C  C8  1  0.378707  0.621293  0.500000  1
  C  C9  1  0.000000  0.000000  0.000000  1
  C  C10  1  0.168597  0.168597  0.000000  1
  C  C11  1  0.831403  0.831403  0.000000  1
  C  C12  1  0.000000  0.500000  0.000000  1
  C  C13  1  0.500000  0.000000  0.000000  1
