# generated using pymatgen
data_Na2In2SiSe6
_symmetry_space_group_name_H-M   'P 1'
_cell_length_a   7.66672231
_cell_length_b   7.66672180
_cell_length_c   13.00720482
_cell_angle_alpha   74.79457591
_cell_angle_beta   74.79457681
_cell_angle_gamma   65.94165753
_symmetry_Int_Tables_number   1
_chemical_formula_structural   Na2In2SiSe6
_chemical_formula_sum   'Na4 In4 Si2 Se12'
_cell_volume   663.13631902
_cell_formula_units_Z   2
loop_
 _symmetry_equiv_pos_site_id
 _symmetry_equiv_pos_as_xyz
  1  'x, y, z'
loop_
 _atom_site_type_symbol
 _atom_site_label
 _atom_site_symmetry_multiplicity
 _atom_site_fract_x
 _atom_site_fract_y
 _atom_site_fract_z
 _atom_site_occupancy
  Na  Na0  1  0.903381  0.533702  0.340548  1
  Na  Na1  1  0.533702  0.903381  0.840548  1
  Na  Na2  1  0.072360  0.927872  0.503746  1
  Na  Na3  1  0.927872  0.072360  0.003746  1
  In  In4  1  0.615543  0.451208  0.694218  1
  In  In5  1  0.451208  0.615543  0.194218  1
  In  In6  1  0.293647  0.410032  0.996902  1
  In  In7  1  0.410032  0.293647  0.496902  1
  Si  Si8  1  0.073158  0.508237  0.748798  1
  Si  Si9  1  0.508237  0.073158  0.248798  1
  Se  Se10  1  0.738905  0.294065  0.520909  1
  Se  Se11  1  0.294065  0.738905  0.020909  1
  Se  Se12  1  0.615047  0.213641  0.879843  1
  Se  Se13  1  0.213641  0.615047  0.379843  1
  Se  Se14  1  0.252702  0.703959  0.699361  1
  Se  Se15  1  0.703959  0.252702  0.199361  1
  Se  Se16  1  0.216811  0.213134  0.694546  1
  Se  Se17  1  0.213134  0.216811  0.194546  1
  Se  Se18  1  0.801469  0.693090  0.669053  1
  Se  Se19  1  0.693090  0.801469  0.169053  1
  Se  Se20  1  0.972547  0.463569  0.932774  1
  Se  Se21  1  0.463569  0.972547  0.432774  1
