# generated using pymatgen
data_Nd12Ge3BBr12
_symmetry_space_group_name_H-M   'P 1'
_cell_length_a   10.34841885
_cell_length_b   10.34842051
_cell_length_c   10.34841932
_cell_angle_alpha   109.12669301
_cell_angle_beta   109.12670208
_cell_angle_gamma   109.12669764
_symmetry_Int_Tables_number   1
_chemical_formula_structural   Nd12Ge3BBr12
_chemical_formula_sum   'Nd12 Ge3 B1 Br12'
_cell_volume   863.81094469
_cell_formula_units_Z   1
loop_
 _symmetry_equiv_pos_site_id
 _symmetry_equiv_pos_as_xyz
  1  'x, y, z'
loop_
 _atom_site_type_symbol
 _atom_site_label
 _atom_site_symmetry_multiplicity
 _atom_site_fract_x
 _atom_site_fract_y
 _atom_site_fract_z
 _atom_site_occupancy
  Nd  Nd0  1  0.466940  0.471883  0.242229  1
  Nd  Nd1  1  0.750000  0.241565  0.258435  1
  Nd  Nd2  1  0.750000  0.009877  0.490123  1
  Nd  Nd3  1  0.242229  0.466940  0.471883  1
  Nd  Nd4  1  0.258435  0.750000  0.241565  1
  Nd  Nd5  1  0.033060  0.257771  0.028117  1
  Nd  Nd6  1  0.028117  0.033060  0.257771  1
  Nd  Nd7  1  0.490123  0.750000  0.009877  1
  Nd  Nd8  1  0.471883  0.242229  0.466940  1
  Nd  Nd9  1  0.009877  0.490123  0.750000  1
  Nd  Nd10  1  0.257771  0.028117  0.033060  1
  Nd  Nd11  1  0.241565  0.258435  0.750000  1
  Ge  Ge12  1  0.499992  0.000008  0.250000  1
  Ge  Ge13  1  0.000008  0.250000  0.499992  1
  Ge  Ge14  1  0.250000  0.499992  0.000008  1
  B  B15  1  0.250000  0.250000  0.250000  1
  Br  Br16  1  0.250000  0.753055  0.746945  1
  Br  Br17  1  0.509980  0.504650  0.753570  1
  Br  Br18  1  0.990020  0.746430  0.995350  1
  Br  Br19  1  0.746945  0.250000  0.753055  1
  Br  Br20  1  0.995350  0.990020  0.746430  1
  Br  Br21  1  0.250000  0.994802  0.505198  1
  Br  Br22  1  0.753570  0.509980  0.504650  1
  Br  Br23  1  0.505198  0.250000  0.994802  1
  Br  Br24  1  0.753055  0.746945  0.250000  1
  Br  Br25  1  0.746430  0.995350  0.990020  1
  Br  Br26  1  0.994802  0.505198  0.250000  1
  Br  Br27  1  0.504650  0.753570  0.509980  1
