# generated using pymatgen
data_DyHoRuC2
_symmetry_space_group_name_H-M   'P 1'
_cell_length_a   5.10070800
_cell_length_b   6.45282400
_cell_length_c   9.75973800
_cell_angle_alpha   90.00000000
_cell_angle_beta   90.00000000
_cell_angle_gamma   90.00000000
_symmetry_Int_Tables_number   1
_chemical_formula_structural   DyHoRuC2
_chemical_formula_sum   'Dy4 Ho4 Ru4 C8'
_cell_volume   321.23173349
_cell_formula_units_Z   4
loop_
 _symmetry_equiv_pos_site_id
 _symmetry_equiv_pos_as_xyz
  1  'x, y, z'
loop_
 _atom_site_type_symbol
 _atom_site_label
 _atom_site_symmetry_multiplicity
 _atom_site_fract_x
 _atom_site_fract_y
 _atom_site_fract_z
 _atom_site_occupancy
  Dy  Dy0  1  0.250000  0.471893  0.783903  1
  Dy  Dy1  1  0.750000  0.028107  0.283903  1
  Dy  Dy2  1  0.250000  0.971893  0.716097  1
  Dy  Dy3  1  0.750000  0.528107  0.216097  1
  Ho  Ho4  1  0.250000  0.823396  0.054780  1
  Ho  Ho5  1  0.750000  0.676604  0.554780  1
  Ho  Ho6  1  0.250000  0.323396  0.445220  1
  Ho  Ho7  1  0.750000  0.176604  0.945220  1
  Ru  Ru8  1  0.250000  0.280818  0.134262  1
  Ru  Ru9  1  0.750000  0.219182  0.634262  1
  Ru  Ru10  1  0.250000  0.780818  0.365738  1
  Ru  Ru11  1  0.750000  0.719182  0.865738  1
  C  C12  1  0.250000  0.172928  0.946562  1
  C  C13  1  0.750000  0.827072  0.053438  1
  C  C14  1  0.250000  0.672928  0.553438  1
  C  C15  1  0.750000  0.327072  0.446562  1
  C  C16  1  0.250000  0.045435  0.257469  1
  C  C17  1  0.750000  0.454565  0.757469  1
  C  C18  1  0.250000  0.545435  0.242531  1
  C  C19  1  0.750000  0.954565  0.742531  1
