# generated using pymatgen
data_Eu2Te4Au
_symmetry_space_group_name_H-M   'P 1'
_cell_length_a   4.55790900
_cell_length_b   4.55790900
_cell_length_c   10.22143600
_cell_angle_alpha   90.00000000
_cell_angle_beta   90.00000000
_cell_angle_gamma   90.00000000
_symmetry_Int_Tables_number   1
_chemical_formula_structural   Eu2Te4Au
_chemical_formula_sum   'Eu2 Te4 Au1'
_cell_volume   212.34557433
_cell_formula_units_Z   1
loop_
 _symmetry_equiv_pos_site_id
 _symmetry_equiv_pos_as_xyz
  1  'x, y, z'
loop_
 _atom_site_type_symbol
 _atom_site_label
 _atom_site_symmetry_multiplicity
 _atom_site_fract_x
 _atom_site_fract_y
 _atom_site_fract_z
 _atom_site_occupancy
  Eu  Eu0  1  0.000000  0.500000  0.253738  1
  Eu  Eu1  1  0.500000  0.000000  0.746262  1
  Te  Te2  1  0.500000  0.000000  0.338623  1
  Te  Te3  1  0.000000  0.500000  0.661377  1
  Te  Te4  1  0.500000  0.500000  0.000000  1
  Te  Te5  1  0.000000  0.000000  0.000000  1
  Au  Au6  1  0.500000  0.500000  0.500000  1
