# generated using pymatgen
data_CeNd2(HgPd)3
_symmetry_space_group_name_H-M   'P 1'
_cell_length_a   7.81751115
_cell_length_b   7.91468365
_cell_length_c   3.90346200
_cell_angle_alpha   90.00000000
_cell_angle_beta   90.00000000
_cell_angle_gamma   120.41204300
_symmetry_Int_Tables_number   1
_chemical_formula_structural   CeNd2(HgPd)3
_chemical_formula_sum   'Ce1 Nd2 Hg3 Pd3'
_cell_volume   208.28809279
_cell_formula_units_Z   1
loop_
 _symmetry_equiv_pos_site_id
 _symmetry_equiv_pos_as_xyz
  1  'x, y, z'
loop_
 _atom_site_type_symbol
 _atom_site_label
 _atom_site_symmetry_multiplicity
 _atom_site_fract_x
 _atom_site_fract_y
 _atom_site_fract_z
 _atom_site_occupancy
  Ce  Ce0  1  0.000000  0.600024  0.500000  1
  Nd  Nd1  1  0.397179  0.397909  0.500000  1
  Nd  Nd2  1  0.602821  0.000730  0.500000  1
  Hg  Hg3  1  0.731565  0.733855  0.000000  1
  Hg  Hg4  1  0.268435  0.002289  0.000000  1
  Hg  Hg5  1  0.000000  0.263089  0.000000  1
  Pd  Pd6  1  0.675366  0.341029  0.000000  1
  Pd  Pd7  1  0.324634  0.665664  0.000000  1
  Pd  Pd8  1  0.000000  0.995410  0.500000  1
