# generated using pymatgen
data_La12AlCdCo4
_symmetry_space_group_name_H-M   'P 1'
_cell_length_a   8.75762781
_cell_length_b   8.75759049
_cell_length_c   8.75762892
_cell_angle_alpha   114.72628825
_cell_angle_beta   108.28890165
_cell_angle_gamma   105.53997229
_symmetry_Int_Tables_number   1
_chemical_formula_structural   La12AlCdCo4
_chemical_formula_sum   'La12 Al1 Cd1 Co4'
_cell_volume   513.49110543
_cell_formula_units_Z   1
loop_
 _symmetry_equiv_pos_site_id
 _symmetry_equiv_pos_as_xyz
  1  'x, y, z'
loop_
 _atom_site_type_symbol
 _atom_site_label
 _atom_site_symmetry_multiplicity
 _atom_site_fract_x
 _atom_site_fract_y
 _atom_site_fract_z
 _atom_site_occupancy
  La  La0  1  0.574551  0.271883  0.302660  1
  La  La1  1  0.170690  0.205102  0.375786  1
  La  La2  1  0.170684  0.794898  0.965589  1
  La  La3  1  0.669800  0.485836  0.816036  1
  La  La4  1  0.669783  0.853735  0.183952  1
  La  La5  1  0.969224  0.271883  0.697333  1
  La  La6  1  0.030776  0.728117  0.302667  1
  La  La7  1  0.330200  0.514164  0.183964  1
  La  La8  1  0.330217  0.146265  0.816048  1
  La  La9  1  0.829316  0.205102  0.034411  1
  La  La10  1  0.829310  0.794898  0.624214  1
  La  La11  1  0.425449  0.728117  0.697340  1
  Al  Al12  1  0.000000  0.500000  0.500000  1
  Cd  Cd13  1  0.500000  0.000000  0.500000  1
  Co  Co14  1  0.854971  0.854963  0.999992  1
  Co  Co15  1  0.263874  0.500000  0.763874  1
  Co  Co16  1  0.736126  0.500000  0.236126  1
  Co  Co17  1  0.145029  0.145037  0.000008  1
