# generated using pymatgen
data_HoErTcB6
_symmetry_space_group_name_H-M   'P 1'
_cell_length_a   3.66375700
_cell_length_b   9.12930900
_cell_length_c   11.50700100
_cell_angle_alpha   90.00000000
_cell_angle_beta   90.00000000
_cell_angle_gamma   90.00000000
_symmetry_Int_Tables_number   1
_chemical_formula_structural   HoErTcB6
_chemical_formula_sum   'Ho4 Er4 Tc4 B24'
_cell_volume   384.88121861
_cell_formula_units_Z   4
loop_
 _symmetry_equiv_pos_site_id
 _symmetry_equiv_pos_as_xyz
  1  'x, y, z'
loop_
 _atom_site_type_symbol
 _atom_site_label
 _atom_site_symmetry_multiplicity
 _atom_site_fract_x
 _atom_site_fract_y
 _atom_site_fract_z
 _atom_site_occupancy
  Ho  Ho0  1  0.000000  0.323767  0.414260  1
  Ho  Ho1  1  0.000000  0.676233  0.585740  1
  Ho  Ho2  1  0.000000  0.823767  0.085740  1
  Ho  Ho3  1  0.000000  0.176233  0.914260  1
  Er  Er4  1  0.000000  0.943099  0.369748  1
  Er  Er5  1  0.000000  0.056901  0.630252  1
  Er  Er6  1  0.000000  0.443099  0.130252  1
  Er  Er7  1  0.000000  0.556901  0.869748  1
  Tc  Tc8  1  0.000000  0.639044  0.320339  1
  Tc  Tc9  1  0.000000  0.360956  0.679661  1
  Tc  Tc10  1  0.000000  0.139044  0.179661  1
  Tc  Tc11  1  0.000000  0.860956  0.820339  1
  B  B12  1  0.500000  0.553511  0.432953  1
  B  B13  1  0.500000  0.446489  0.567047  1
  B  B14  1  0.500000  0.053511  0.067047  1
  B  B15  1  0.500000  0.946489  0.932953  1
  B  B16  1  0.500000  0.749308  0.418674  1
  B  B17  1  0.500000  0.250692  0.581326  1
  B  B18  1  0.500000  0.249308  0.081326  1
  B  B19  1  0.500000  0.750692  0.918674  1
  B  B20  1  0.500000  0.792453  0.265299  1
  B  B21  1  0.500000  0.207547  0.734701  1
  B  B22  1  0.500000  0.292453  0.234701  1
  B  B23  1  0.500000  0.707547  0.765299  1
  B  B24  1  0.500000  0.630720  0.185251  1
  B  B25  1  0.500000  0.369280  0.814749  1
  B  B26  1  0.500000  0.130720  0.314749  1
  B  B27  1  0.500000  0.869280  0.685251  1
  B  B28  1  0.500000  0.981885  0.211959  1
  B  B29  1  0.500000  0.018115  0.788041  1
  B  B30  1  0.500000  0.481885  0.288041  1
  B  B31  1  0.500000  0.518115  0.711959  1
  B  B32  1  0.500000  0.599976  0.027874  1
  B  B33  1  0.500000  0.400024  0.972126  1
  B  B34  1  0.500000  0.099976  0.472126  1
  B  B35  1  0.500000  0.900024  0.527874  1
