# generated using pymatgen
data_PrSmCuSi4Pt3
_symmetry_space_group_name_H-M   'P 1'
_cell_length_a   4.24009000
_cell_length_b   4.23405300
_cell_length_c   9.90137000
_cell_angle_alpha   90.00000000
_cell_angle_beta   90.00000000
_cell_angle_gamma   90.00000000
_symmetry_Int_Tables_number   1
_chemical_formula_structural   PrSmCuSi4Pt3
_chemical_formula_sum   'Pr1 Sm1 Cu1 Si4 Pt3'
_cell_volume   177.75697656
_cell_formula_units_Z   1
loop_
 _symmetry_equiv_pos_site_id
 _symmetry_equiv_pos_as_xyz
  1  'x, y, z'
loop_
 _atom_site_type_symbol
 _atom_site_label
 _atom_site_symmetry_multiplicity
 _atom_site_fract_x
 _atom_site_fract_y
 _atom_site_fract_z
 _atom_site_occupancy
  Pr  Pr0  1  0.000000  0.500000  0.751638  1
  Sm  Sm1  1  0.500000  0.000000  0.247969  1
  Cu  Cu2  1  0.000000  0.000000  0.000901  1
  Si  Si3  1  0.000000  0.500000  0.132225  1
  Si  Si4  1  0.500000  0.500000  0.498932  1
  Si  Si5  1  0.500000  0.000000  0.869129  1
  Si  Si6  1  0.000000  0.000000  0.499097  1
  Pt  Pt7  1  0.500000  0.000000  0.620496  1
  Pt  Pt8  1  0.500000  0.500000  0.001934  1
  Pt  Pt9  1  0.000000  0.500000  0.377680  1
