# generated using pymatgen
data_Pr8Tm12Ga3Si13
_symmetry_space_group_name_H-M   'P 1'
_cell_length_a   7.48288523
_cell_length_b   7.79689031
_cell_length_c   14.79548698
_cell_angle_alpha   90.01224191
_cell_angle_beta   90.08315453
_cell_angle_gamma   90.03004409
_symmetry_Int_Tables_number   1
_chemical_formula_structural   Pr8Tm12Ga3Si13
_chemical_formula_sum   'Pr8 Tm12 Ga3 Si13'
_cell_volume   863.21553125
_cell_formula_units_Z   1
loop_
 _symmetry_equiv_pos_site_id
 _symmetry_equiv_pos_as_xyz
  1  'x, y, z'
loop_
 _atom_site_type_symbol
 _atom_site_label
 _atom_site_symmetry_multiplicity
 _atom_site_fract_x
 _atom_site_fract_y
 _atom_site_fract_z
 _atom_site_occupancy
  Pr  Pr0  1  0.018818  0.175979  0.401591  1
  Pr  Pr1  1  0.520209  0.322304  0.400905  1
  Pr  Pr2  1  0.481827  0.676479  0.899315  1
  Pr  Pr3  1  0.482744  0.680814  0.598799  1
  Pr  Pr4  1  0.979015  0.822739  0.599158  1
  Pr  Pr5  1  0.981787  0.824349  0.899602  1
  Pr  Pr6  1  0.517844  0.320835  0.099949  1
  Pr  Pr7  1  0.017964  0.179112  0.099956  1
  Tm  Tm8  1  0.325032  0.174732  0.624753  1
  Tm  Tm9  1  0.676558  0.822996  0.376635  1
  Tm  Tm10  1  0.656019  0.993077  0.749758  1
  Tm  Tm11  1  0.178362  0.678009  0.376285  1
  Tm  Tm12  1  0.823716  0.322134  0.875066  1
  Tm  Tm13  1  0.821611  0.324002  0.623308  1
  Tm  Tm14  1  0.843441  0.492206  0.252151  1
  Tm  Tm15  1  0.343489  0.007025  0.251132  1
  Tm  Tm16  1  0.324189  0.176645  0.875029  1
  Tm  Tm17  1  0.176036  0.673344  0.124773  1
  Tm  Tm18  1  0.676572  0.826560  0.124605  1
  Tm  Tm19  1  0.155286  0.506238  0.751305  1
  Ga  Ga20  1  0.154096  0.463245  0.538879  1
  Ga  Ga21  1  0.846540  0.537149  0.038251  1
  Ga  Ga22  1  0.346659  0.962922  0.038432  1
  Si  Si23  1  0.276413  0.878048  0.748995  1
  Si  Si24  1  0.472000  0.616211  0.250862  1
  Si  Si25  1  0.027905  0.117124  0.749959  1
  Si  Si26  1  0.528084  0.384910  0.749175  1
  Si  Si27  1  0.972047  0.883936  0.251253  1
  Si  Si28  1  0.723195  0.120765  0.251041  1
  Si  Si29  1  0.150906  0.464864  0.959493  1
  Si  Si30  1  0.648014  0.034480  0.538435  1
  Si  Si31  1  0.352235  0.966794  0.461093  1
  Si  Si32  1  0.849695  0.535322  0.460436  1
  Si  Si33  1  0.777671  0.621525  0.749436  1
  Si  Si34  1  0.223351  0.378618  0.251090  1
  Si  Si35  1  0.650668  0.034510  0.959098  1
