# generated using pymatgen
data_CeDyEr2(B6Os)2
_symmetry_space_group_name_H-M   'P 1'
_cell_length_a   3.66485100
_cell_length_b   9.15765708
_cell_length_c   11.53308788
_cell_angle_alpha   89.90603124
_cell_angle_beta   90.00000000
_cell_angle_gamma   90.00000000
_symmetry_Int_Tables_number   1
_chemical_formula_structural   CeDyEr2(B6Os)2
_chemical_formula_sum   'Ce2 Dy2 Er4 B24 Os4'
_cell_volume   387.06661664
_cell_formula_units_Z   2
loop_
 _symmetry_equiv_pos_site_id
 _symmetry_equiv_pos_as_xyz
  1  'x, y, z'
loop_
 _atom_site_type_symbol
 _atom_site_label
 _atom_site_symmetry_multiplicity
 _atom_site_fract_x
 _atom_site_fract_y
 _atom_site_fract_z
 _atom_site_occupancy
  Ce  Ce0  1  0.000000  0.822390  0.086785  1
  Ce  Ce1  1  0.000000  0.177610  0.913215  1
  Dy  Dy2  1  0.000000  0.321693  0.414493  1
  Dy  Dy3  1  0.000000  0.678307  0.585507  1
  Er  Er4  1  0.000000  0.944333  0.374778  1
  Er  Er5  1  0.000000  0.055667  0.625222  1
  Er  Er6  1  0.000000  0.445024  0.126904  1
  Er  Er7  1  0.000000  0.554976  0.873096  1
  B  B8  1  0.500000  0.554159  0.433088  1
  B  B9  1  0.500000  0.445841  0.566912  1
  B  B10  1  0.500000  0.054842  0.068579  1
  B  B11  1  0.500000  0.945158  0.931421  1
  B  B12  1  0.500000  0.748343  0.420528  1
  B  B13  1  0.500000  0.251657  0.579472  1
  B  B14  1  0.500000  0.249811  0.081680  1
  B  B15  1  0.500000  0.750189  0.918320  1
  B  B16  1  0.500000  0.791477  0.267850  1
  B  B17  1  0.500000  0.208523  0.732150  1
  B  B18  1  0.500000  0.292440  0.235048  1
  B  B19  1  0.500000  0.707560  0.764952  1
  B  B20  1  0.500000  0.631552  0.185920  1
  B  B21  1  0.500000  0.368448  0.814080  1
  B  B22  1  0.500000  0.132626  0.316300  1
  B  B23  1  0.500000  0.867374  0.683700  1
  B  B24  1  0.500000  0.984932  0.215191  1
  B  B25  1  0.500000  0.015068  0.784809  1
  B  B26  1  0.500000  0.483131  0.287573  1
  B  B27  1  0.500000  0.516869  0.712427  1
  B  B28  1  0.500000  0.606005  0.029064  1
  B  B29  1  0.500000  0.393995  0.970936  1
  B  B30  1  0.500000  0.108893  0.470159  1
  B  B31  1  0.500000  0.891107  0.529841  1
  Os  Os32  1  0.000000  0.638313  0.320428  1
  Os  Os33  1  0.000000  0.361687  0.679572  1
  Os  Os34  1  0.000000  0.139289  0.179110  1
  Os  Os35  1  0.000000  0.860711  0.820890  1
