# generated using pymatgen
data_Dy3Ho5(TcB6)4
_symmetry_space_group_name_H-M   'P 1'
_cell_length_a   3.68026500
_cell_length_b   9.14934600
_cell_length_c   11.53084000
_cell_angle_alpha   89.99979245
_cell_angle_beta   90.00000000
_cell_angle_gamma   90.00000000
_symmetry_Int_Tables_number   1
_chemical_formula_structural   Dy3Ho5(TcB6)4
_chemical_formula_sum   'Dy3 Ho5 Tc4 B24'
_cell_volume   388.26665041
_cell_formula_units_Z   1
loop_
 _symmetry_equiv_pos_site_id
 _symmetry_equiv_pos_as_xyz
  1  'x, y, z'
loop_
 _atom_site_type_symbol
 _atom_site_label
 _atom_site_symmetry_multiplicity
 _atom_site_fract_x
 _atom_site_fract_y
 _atom_site_fract_z
 _atom_site_occupancy
  Dy  Dy0  1  0.000000  0.323806  0.414053  1
  Dy  Dy1  1  0.000000  0.676233  0.585984  1
  Dy  Dy2  1  0.000000  0.823801  0.085887  1
  Ho  Ho3  1  0.000000  0.176103  0.914041  1
  Ho  Ho4  1  0.000000  0.942822  0.369306  1
  Ho  Ho5  1  0.000000  0.057150  0.630751  1
  Ho  Ho6  1  0.000000  0.442827  0.130570  1
  Ho  Ho7  1  0.000000  0.557177  0.869385  1
  Tc  Tc8  1  0.000000  0.638893  0.320450  1
  Tc  Tc9  1  0.000000  0.360994  0.679698  1
  Tc  Tc10  1  0.000000  0.138872  0.179330  1
  Tc  Tc11  1  0.000000  0.861289  0.820562  1
  B  B12  1  0.500000  0.553411  0.432887  1
  B  B13  1  0.500000  0.446535  0.567170  1
  B  B14  1  0.500000  0.053483  0.066880  1
  B  B15  1  0.500000  0.946788  0.932914  1
  B  B16  1  0.500000  0.749144  0.418598  1
  B  B17  1  0.500000  0.250816  0.581472  1
  B  B18  1  0.500000  0.249131  0.081069  1
  B  B19  1  0.500000  0.750953  0.918599  1
  B  B20  1  0.500000  0.792166  0.265308  1
  B  B21  1  0.500000  0.207701  0.734902  1
  B  B22  1  0.500000  0.292159  0.234548  1
  B  B23  1  0.500000  0.707894  0.765385  1
  B  B24  1  0.500000  0.630856  0.185486  1
  B  B25  1  0.500000  0.368952  0.814707  1
  B  B26  1  0.500000  0.130886  0.314423  1
  B  B27  1  0.500000  0.869210  0.685599  1
  B  B28  1  0.500000  0.982324  0.211714  1
  B  B29  1  0.500000  0.017937  0.788342  1
  B  B30  1  0.500000  0.482278  0.288143  1
  B  B31  1  0.500000  0.517659  0.711893  1
  B  B32  1  0.500000  0.600043  0.027932  1
  B  B33  1  0.500000  0.399679  0.971970  1
  B  B34  1  0.500000  0.099990  0.472091  1
  B  B35  1  0.500000  0.900040  0.527951  1
