# generated using pymatgen
data_Nb8VZnTe8
_symmetry_space_group_name_H-M   'P 1'
_cell_length_a   4.90234200
_cell_length_b   11.39614500
_cell_length_c   20.15011300
_cell_angle_alpha   90.00000000
_cell_angle_beta   90.00000000
_cell_angle_gamma   90.00000000
_symmetry_Int_Tables_number   1
_chemical_formula_structural   Nb8VZnTe8
_chemical_formula_sum   'Nb16 V2 Zn2 Te16'
_cell_volume   1125.74248853
_cell_formula_units_Z   2
loop_
 _symmetry_equiv_pos_site_id
 _symmetry_equiv_pos_as_xyz
  1  'x, y, z'
loop_
 _atom_site_type_symbol
 _atom_site_label
 _atom_site_symmetry_multiplicity
 _atom_site_fract_x
 _atom_site_fract_y
 _atom_site_fract_z
 _atom_site_occupancy
  Nb  Nb0  1  0.499509  0.563732  0.386612  1
  Nb  Nb1  1  0.499509  0.436268  0.613388  1
  Nb  Nb2  1  0.500491  0.063732  0.113388  1
  Nb  Nb3  1  0.500491  0.936268  0.886612  1
  Nb  Nb4  1  0.499420  0.700781  0.535627  1
  Nb  Nb5  1  0.499420  0.299219  0.464373  1
  Nb  Nb6  1  0.500580  0.200781  0.964373  1
  Nb  Nb7  1  0.500580  0.799219  0.035627  1
  Nb  Nb8  1  0.001731  0.686907  0.444974  1
  Nb  Nb9  1  0.001731  0.313093  0.555026  1
  Nb  Nb10  1  0.998269  0.186907  0.055026  1
  Nb  Nb11  1  0.998269  0.813093  0.944974  1
  Nb  Nb12  1  0.000406  0.403224  0.394499  1
  Nb  Nb13  1  0.000406  0.596776  0.605501  1
  Nb  Nb14  1  0.999594  0.903224  0.105501  1
  Nb  Nb15  1  0.999594  0.096776  0.894499  1
  V  V16  1  0.749873  0.500000  0.500000  1
  V  V17  1  0.250127  0.000000  0.000000  1
  Zn  Zn18  1  0.249885  0.500000  0.500000  1
  Zn  Zn19  1  0.750115  0.000000  0.000000  1
  Te  Te20  1  0.000924  0.834768  0.559918  1
  Te  Te21  1  0.000924  0.165232  0.440082  1
  Te  Te22  1  0.999076  0.334768  0.940082  1
  Te  Te23  1  0.999076  0.665232  0.059918  1
  Te  Te24  1  0.499148  0.338082  0.324179  1
  Te  Te25  1  0.499148  0.661918  0.675821  1
  Te  Te26  1  0.500852  0.838082  0.175821  1
  Te  Te27  1  0.500852  0.161918  0.824179  1
  Te  Te28  1  0.500132  0.812145  0.408268  1
  Te  Te29  1  0.500132  0.187855  0.591732  1
  Te  Te30  1  0.499868  0.312145  0.091732  1
  Te  Te31  1  0.499868  0.687855  0.908268  1
  Te  Te32  1  0.001275  0.606024  0.310599  1
  Te  Te33  1  0.001275  0.393976  0.689401  1
  Te  Te34  1  0.998725  0.106024  0.189401  1
  Te  Te35  1  0.998725  0.893976  0.810599  1
