# generated using pymatgen
data_Nd4Zn(Ga3Pd2)3
_symmetry_space_group_name_H-M   'P 1'
_cell_length_a   5.87942012
_cell_length_b   8.73885732
_cell_length_c   8.73796357
_cell_angle_alpha   72.45672376
_cell_angle_beta   70.31057108
_cell_angle_gamma   70.31174837
_symmetry_Int_Tables_number   1
_chemical_formula_structural   Nd4Zn(Ga3Pd2)3
_chemical_formula_sum   'Nd4 Zn1 Ga9 Pd6'
_cell_volume   388.94656695
_cell_formula_units_Z   1
loop_
 _symmetry_equiv_pos_site_id
 _symmetry_equiv_pos_as_xyz
  1  'x, y, z'
loop_
 _atom_site_type_symbol
 _atom_site_label
 _atom_site_symmetry_multiplicity
 _atom_site_fract_x
 _atom_site_fract_y
 _atom_site_fract_z
 _atom_site_occupancy
  Nd  Nd0  1  0.634076  0.092396  0.638729  1
  Nd  Nd1  1  0.364518  0.907497  0.361160  1
  Nd  Nd2  1  0.135483  0.638841  0.092504  1
  Nd  Nd3  1  0.865925  0.361261  0.907603  1
  Zn  Zn4  1  0.249990  0.000393  0.999606  1
  Ga  Ga5  1  0.459877  0.290166  0.290003  1
  Ga  Ga6  1  0.536197  0.713768  0.714250  1
  Ga  Ga7  1  0.040098  0.710005  0.709835  1
  Ga  Ga8  1  0.963825  0.285750  0.286231  1
  Ga  Ga9  1  0.899407  0.762707  0.435454  1
  Ga  Ga10  1  0.098060  0.237253  0.564823  1
  Ga  Ga11  1  0.401942  0.435177  0.762753  1
  Ga  Ga12  1  0.600596  0.564544  0.237290  1
  Ga  Ga13  1  0.750013  0.999861  0.000134  1
  Pd  Pd14  1  0.848869  0.045931  0.242020  1
  Pd  Pd15  1  0.137423  0.954059  0.757780  1
  Pd  Pd16  1  0.362572  0.242232  0.045945  1
  Pd  Pd17  1  0.651136  0.757972  0.954066  1
  Pd  Pd18  1  0.749998  0.499823  0.500178  1
  Pd  Pd19  1  0.249997  0.500363  0.499634  1
