# generated using pymatgen
data_Sr4In2PdPt3
_symmetry_space_group_name_H-M   'P 1'
_cell_length_a   6.04281193
_cell_length_b   6.01695551
_cell_length_c   8.42728825
_cell_angle_alpha   78.56619749
_cell_angle_beta   78.48839143
_cell_angle_gamma   60.46904479
_symmetry_Int_Tables_number   1
_chemical_formula_structural   Sr4In2PdPt3
_chemical_formula_sum   'Sr4 In2 Pd1 Pt3'
_cell_volume   259.44318929
_cell_formula_units_Z   1
loop_
 _symmetry_equiv_pos_site_id
 _symmetry_equiv_pos_as_xyz
  1  'x, y, z'
loop_
 _atom_site_type_symbol
 _atom_site_label
 _atom_site_symmetry_multiplicity
 _atom_site_fract_x
 _atom_site_fract_y
 _atom_site_fract_z
 _atom_site_occupancy
  Sr  Sr0  1  0.508113  0.789025  0.354357  1
  Sr  Sr1  1  0.209747  0.493083  0.147854  1
  Sr  Sr2  1  0.494676  0.210946  0.646198  1
  Sr  Sr3  1  0.788199  0.507423  0.851891  1
  In  In4  1  0.865245  0.133831  0.250628  1
  In  In5  1  0.132617  0.865643  0.749563  1
  Pd  Pd6  1  0.272452  0.999024  0.997091  1
  Pt  Pt7  1  0.000791  0.724587  0.502109  1
  Pt  Pt8  1  0.728431  0.000933  0.003392  1
  Pt  Pt9  1  0.999729  0.275504  0.496917  1
