# generated using pymatgen
data_Y4Si8Tc5Mo
_symmetry_space_group_name_H-M   'P 1'
_cell_length_a   6.83350117
_cell_length_b   6.73645954
_cell_length_c   6.82470045
_cell_angle_alpha   70.25737587
_cell_angle_beta   90.00580177
_cell_angle_gamma   90.08885782
_symmetry_Int_Tables_number   1
_chemical_formula_structural   Y4Si8Tc5Mo
_chemical_formula_sum   'Y4 Si8 Tc5 Mo1'
_cell_volume   295.69836724
_cell_formula_units_Z   1
loop_
 _symmetry_equiv_pos_site_id
 _symmetry_equiv_pos_as_xyz
  1  'x, y, z'
loop_
 _atom_site_type_symbol
 _atom_site_label
 _atom_site_symmetry_multiplicity
 _atom_site_fract_x
 _atom_site_fract_y
 _atom_site_fract_z
 _atom_site_occupancy
  Y  Y0  1  0.169162  0.939078  0.193858  1
  Y  Y1  1  0.331295  0.439756  0.192757  1
  Y  Y2  1  0.831791  0.059481  0.809055  1
  Y  Y3  1  0.667638  0.560715  0.808218  1
  Si  Si4  1  0.548226  0.124548  0.098676  1
  Si  Si5  1  0.358724  0.627940  0.514252  1
  Si  Si6  1  0.862189  0.871322  0.490463  1
  Si  Si7  1  0.050745  0.380426  0.895123  1
  Si  Si8  1  0.140937  0.130919  0.513254  1
  Si  Si9  1  0.638052  0.365626  0.489780  1
  Si  Si10  1  0.953991  0.621501  0.099154  1
  Si  Si11  1  0.449066  0.878807  0.896604  1
  Tc  Tc12  1  0.843744  0.246073  0.236048  1
  Tc  Tc13  1  0.345996  0.255235  0.762277  1
  Tc  Tc14  1  0.151677  0.757826  0.759074  1
  Tc  Tc15  1  0.499342  0.998475  0.499216  1
  Tc  Tc16  1  0.999720  0.498279  0.500322  1
  Mo  Mo17  1  0.657703  0.743993  0.241868  1
