# generated using pymatgen
data_Dy2Y2ReB12Ir
_symmetry_space_group_name_H-M   'P 1'
_cell_length_a   3.67407700
_cell_length_b   9.17179236
_cell_length_c   11.55769702
_cell_angle_alpha   90.35436062
_cell_angle_beta   90.00000000
_cell_angle_gamma   90.00000000
_symmetry_Int_Tables_number   1
_chemical_formula_structural   Dy2Y2ReB12Ir
_chemical_formula_sum   'Dy4 Y4 Re2 B24 Ir2'
_cell_volume   389.46233852
_cell_formula_units_Z   2
loop_
 _symmetry_equiv_pos_site_id
 _symmetry_equiv_pos_as_xyz
  1  'x, y, z'
loop_
 _atom_site_type_symbol
 _atom_site_label
 _atom_site_symmetry_multiplicity
 _atom_site_fract_x
 _atom_site_fract_y
 _atom_site_fract_z
 _atom_site_occupancy
  Dy  Dy0  1  0.000000  0.946168  0.372287  1
  Dy  Dy1  1  0.000000  0.053832  0.627713  1
  Dy  Dy2  1  0.000000  0.441828  0.125831  1
  Dy  Dy3  1  0.000000  0.558172  0.874169  1
  Y  Y4  1  0.000000  0.317419  0.409693  1
  Y  Y5  1  0.000000  0.682581  0.590307  1
  Y  Y6  1  0.000000  0.826789  0.082368  1
  Y  Y7  1  0.000000  0.173211  0.917632  1
  Re  Re8  1  0.000000  0.138445  0.179785  1
  Re  Re9  1  0.000000  0.861555  0.820215  1
  B  B10  1  0.500000  0.554152  0.433648  1
  B  B11  1  0.500000  0.445848  0.566352  1
  B  B12  1  0.500000  0.053402  0.067477  1
  B  B13  1  0.500000  0.946598  0.932523  1
  B  B14  1  0.500000  0.748972  0.421070  1
  B  B15  1  0.500000  0.251028  0.578930  1
  B  B16  1  0.500000  0.247391  0.080840  1
  B  B17  1  0.500000  0.752609  0.919160  1
  B  B18  1  0.500000  0.790651  0.266451  1
  B  B19  1  0.500000  0.209349  0.733549  1
  B  B20  1  0.500000  0.292089  0.233819  1
  B  B21  1  0.500000  0.707911  0.766181  1
  B  B22  1  0.500000  0.632125  0.184407  1
  B  B23  1  0.500000  0.367875  0.815593  1
  B  B24  1  0.500000  0.131946  0.314315  1
  B  B25  1  0.500000  0.868054  0.685685  1
  B  B26  1  0.500000  0.983525  0.213100  1
  B  B27  1  0.500000  0.016475  0.786900  1
  B  B28  1  0.500000  0.483076  0.287140  1
  B  B29  1  0.500000  0.516924  0.712860  1
  B  B30  1  0.500000  0.608469  0.030377  1
  B  B31  1  0.500000  0.391531  0.969623  1
  B  B32  1  0.500000  0.109055  0.470352  1
  B  B33  1  0.500000  0.890945  0.529648  1
  Ir  Ir34  1  0.000000  0.636712  0.322289  1
  Ir  Ir35  1  0.000000  0.363288  0.677711  1
