# generated using pymatgen
data_PrYB4(IrOs)2
_symmetry_space_group_name_H-M   'P 1'
_cell_length_a   6.91500334
_cell_length_b   6.06784711
_cell_length_c   5.59850978
_cell_angle_alpha   72.57573550
_cell_angle_beta   56.84827760
_cell_angle_gamma   50.57599356
_symmetry_Int_Tables_number   1
_chemical_formula_structural   PrYB4(IrOs)2
_chemical_formula_sum   'Pr1 Y1 B4 Ir2 Os2'
_cell_volume   151.50628886
_cell_formula_units_Z   1
loop_
 _symmetry_equiv_pos_site_id
 _symmetry_equiv_pos_as_xyz
  1  'x, y, z'
loop_
 _atom_site_type_symbol
 _atom_site_label
 _atom_site_symmetry_multiplicity
 _atom_site_fract_x
 _atom_site_fract_y
 _atom_site_fract_z
 _atom_site_occupancy
  Pr  Pr0  1  0.500000  0.500000  0.500000  1
  Y  Y1  1  0.750000  0.750000  0.750000  1
  B  B2  1  0.176210  0.823790  0.176210  1
  B  B3  1  0.059436  0.440564  0.059436  1
  B  B4  1  0.823790  0.176210  0.823790  1
  B  B5  1  0.440564  0.059436  0.440564  1
  Ir  Ir6  1  0.382948  0.382948  0.117052  1
  Ir  Ir7  1  0.117052  0.117052  0.382948  1
  Os  Os8  1  0.864448  0.864448  0.135552  1
  Os  Os9  1  0.135552  0.135552  0.864448  1
