# generated using pymatgen
data_LiSmHo5Co17P12
_symmetry_space_group_name_H-M   'P 1'
_cell_length_a   3.70573500
_cell_length_b   10.53158300
_cell_length_c   12.17263200
_cell_angle_alpha   90.00000000
_cell_angle_beta   90.00000000
_cell_angle_gamma   90.00000000
_symmetry_Int_Tables_number   1
_chemical_formula_structural   LiSmHo5Co17P12
_chemical_formula_sum   'Li1 Sm1 Ho5 Co17 P12'
_cell_volume   475.06442195
_cell_formula_units_Z   1
loop_
 _symmetry_equiv_pos_site_id
 _symmetry_equiv_pos_as_xyz
  1  'x, y, z'
loop_
 _atom_site_type_symbol
 _atom_site_label
 _atom_site_symmetry_multiplicity
 _atom_site_fract_x
 _atom_site_fract_y
 _atom_site_fract_z
 _atom_site_occupancy
  Li  Li0  1  0.500000  0.500000  0.151370  1
  Sm  Sm1  1  0.000000  0.500000  0.523325  1
  Ho  Ho2  1  0.500000  0.000000  0.478079  1
  Ho  Ho3  1  0.500000  0.819433  0.206291  1
  Ho  Ho4  1  0.500000  0.180567  0.206291  1
  Ho  Ho5  1  0.000000  0.682582  0.794842  1
  Ho  Ho6  1  0.000000  0.317418  0.794842  1
  Co  Co7  1  0.000000  0.500000  0.986040  1
  Co  Co8  1  0.500000  0.000000  0.012448  1
  Co  Co9  1  0.500000  0.294396  0.431441  1
  Co  Co10  1  0.500000  0.705604  0.431441  1
  Co  Co11  1  0.000000  0.200850  0.570575  1
  Co  Co12  1  0.000000  0.799150  0.570575  1
  Co  Co13  1  0.500000  0.880265  0.709680  1
  Co  Co14  1  0.500000  0.119735  0.709680  1
  Co  Co15  1  0.000000  0.622680  0.291890  1
  Co  Co16  1  0.000000  0.377320  0.291890  1
  Co  Co17  1  0.500000  0.330794  0.995064  1
  Co  Co18  1  0.500000  0.669206  0.995064  1
  Co  Co19  1  0.000000  0.164853  0.003254  1
  Co  Co20  1  0.000000  0.835147  0.003254  1
  Co  Co21  1  0.000000  0.000000  0.840409  1
  Co  Co22  1  0.500000  0.500000  0.705733  1
  Co  Co23  1  0.000000  0.000000  0.296712  1
  P  P24  1  0.500000  0.307980  0.617635  1
  P  P25  1  0.500000  0.692020  0.617635  1
  P  P26  1  0.000000  0.189104  0.384819  1
  P  P27  1  0.000000  0.810896  0.384819  1
  P  P28  1  0.500000  0.500000  0.884844  1
  P  P29  1  0.000000  0.000000  0.117085  1
  P  P30  1  0.500000  0.847675  0.891788  1
  P  P31  1  0.500000  0.152325  0.891788  1
  P  P32  1  0.000000  0.657593  0.105307  1
  P  P33  1  0.000000  0.342407  0.105307  1
  P  P34  1  0.500000  0.500000  0.343261  1
  P  P35  1  0.000000  0.000000  0.655524  1
