# generated using pymatgen
data_Ca2Al9Ni2Rh
_symmetry_space_group_name_H-M   'P 1'
_cell_length_a   7.47056434
_cell_length_b   7.47055800
_cell_length_c   9.48847100
_cell_angle_alpha   90.00000000
_cell_angle_beta   90.00000000
_cell_angle_gamma   118.83368371
_symmetry_Int_Tables_number   1
_chemical_formula_structural   Ca2Al9Ni2Rh
_chemical_formula_sum   'Ca4 Al18 Ni4 Rh2'
_cell_volume   463.89356592
_cell_formula_units_Z   2
loop_
 _symmetry_equiv_pos_site_id
 _symmetry_equiv_pos_as_xyz
  1  'x, y, z'
loop_
 _atom_site_type_symbol
 _atom_site_label
 _atom_site_symmetry_multiplicity
 _atom_site_fract_x
 _atom_site_fract_y
 _atom_site_fract_z
 _atom_site_occupancy
  Ca  Ca0  1  0.995078  0.675477  0.250000  1
  Ca  Ca1  1  0.004922  0.324523  0.750000  1
  Ca  Ca2  1  0.675476  0.995078  0.250000  1
  Ca  Ca3  1  0.324524  0.004922  0.750000  1
  Al  Al4  1  0.133776  0.133776  0.250000  1
  Al  Al5  1  0.866224  0.866224  0.750000  1
  Al  Al6  1  0.999199  0.338375  0.071918  1
  Al  Al7  1  0.000801  0.661625  0.928082  1
  Al  Al8  1  0.000801  0.661625  0.571918  1
  Al  Al9  1  0.338375  0.999199  0.428082  1
  Al  Al10  1  0.999199  0.338375  0.428082  1
  Al  Al11  1  0.661625  0.000801  0.571918  1
  Al  Al12  1  0.661625  0.000801  0.928082  1
  Al  Al13  1  0.338375  0.999199  0.071918  1
  Al  Al14  1  0.335127  0.335127  0.545178  1
  Al  Al15  1  0.664873  0.664873  0.454822  1
  Al  Al16  1  0.664873  0.664873  0.045178  1
  Al  Al17  1  0.335127  0.335127  0.954822  1
  Al  Al18  1  0.339282  0.551952  0.250000  1
  Al  Al19  1  0.660718  0.448048  0.750000  1
  Al  Al20  1  0.551952  0.339282  0.250000  1
  Al  Al21  1  0.448048  0.660718  0.750000  1
  Ni  Ni22  1  0.669789  0.330213  0.000000  1
  Ni  Ni23  1  0.330211  0.669787  0.000000  1
  Ni  Ni24  1  0.330211  0.669787  0.500000  1
  Ni  Ni25  1  0.669789  0.330213  0.500000  1
  Rh  Rh26  1  0.000000  0.000000  0.000000  1
  Rh  Rh27  1  0.000000  0.000000  0.500000  1
