# generated using pymatgen
data_Ca2YSbO6
_symmetry_space_group_name_H-M   'P 1'
_cell_length_a   5.65128799
_cell_length_b   5.85368400
_cell_length_c   8.14666205
_cell_angle_alpha   90.00000000
_cell_angle_beta   89.73155734
_cell_angle_gamma   90.00000000
_symmetry_Int_Tables_number   1
_chemical_formula_structural   Ca2YSbO6
_chemical_formula_sum   'Ca4 Y2 Sb2 O12'
_cell_volume   269.49558075
_cell_formula_units_Z   2
loop_
 _symmetry_equiv_pos_site_id
 _symmetry_equiv_pos_as_xyz
  1  'x, y, z'
loop_
 _atom_site_type_symbol
 _atom_site_label
 _atom_site_symmetry_multiplicity
 _atom_site_fract_x
 _atom_site_fract_y
 _atom_site_fract_z
 _atom_site_occupancy
  Ca  Ca0  1  0.014824  0.446664  0.250220  1
  Ca  Ca1  1  0.985176  0.553336  0.749780  1
  Ca  Ca2  1  0.485176  0.946664  0.249780  1
  Ca  Ca3  1  0.514824  0.053336  0.750220  1
  Y  Y4  1  0.000000  0.000000  0.000000  1
  Y  Y5  1  0.500000  0.500000  0.500000  1
  Sb  Sb6  1  0.000000  0.000000  0.500000  1
  Sb  Sb7  1  0.500000  0.500000  0.000000  1
  O  O8  1  0.887965  0.046864  0.266477  1
  O  O9  1  0.112035  0.953136  0.733523  1
  O  O10  1  0.612035  0.546864  0.233523  1
  O  O11  1  0.387965  0.453136  0.766477  1
  O  O12  1  0.211904  0.685683  0.056561  1
  O  O13  1  0.788096  0.314317  0.943439  1
  O  O14  1  0.288096  0.185683  0.443439  1
  O  O15  1  0.711904  0.814317  0.556561  1
  O  O16  1  0.321538  0.212895  0.061945  1
  O  O17  1  0.678462  0.787105  0.938055  1
  O  O18  1  0.178462  0.712895  0.438055  1
  O  O19  1  0.821538  0.287105  0.561945  1
