# generated using pymatgen
data_CeHoNp4(Ni3Bi4)2
_symmetry_space_group_name_H-M   'P 1'
_cell_length_a   8.37994374
_cell_length_b   8.37994452
_cell_length_c   8.37994421
_cell_angle_alpha   110.07751543
_cell_angle_beta   109.16891621
_cell_angle_gamma   109.16892751
_symmetry_Int_Tables_number   1
_chemical_formula_structural   CeHoNp4(Ni3Bi4)2
_chemical_formula_sum   'Ce1 Ho1 Np4 Ni6 Bi8'
_cell_volume   452.96538305
_cell_formula_units_Z   1
loop_
 _symmetry_equiv_pos_site_id
 _symmetry_equiv_pos_as_xyz
  1  'x, y, z'
loop_
 _atom_site_type_symbol
 _atom_site_label
 _atom_site_symmetry_multiplicity
 _atom_site_fract_x
 _atom_site_fract_y
 _atom_site_fract_z
 _atom_site_occupancy
  Ce  Ce0  1  0.250000  0.125000  0.875000  1
  Ho  Ho1  1  0.750000  0.375000  0.625000  1
  Np  Np2  1  0.125450  0.874933  0.249631  1
  Np  Np3  1  0.374550  0.624181  0.749483  1
  Np  Np4  1  0.874698  0.250517  0.125067  1
  Np  Np5  1  0.625302  0.750369  0.375819  1
  Ni  Ni6  1  0.622970  0.373832  0.246791  1
  Ni  Ni7  1  0.877030  0.123821  0.750864  1
  Ni  Ni8  1  0.372957  0.249136  0.626168  1
  Ni  Ni9  1  0.127043  0.753209  0.876179  1
  Ni  Ni10  1  0.250000  0.625000  0.375000  1
  Ni  Ni11  1  0.750000  0.875000  0.125000  1
  Bi  Bi12  1  0.337136  0.335920  0.338476  1
  Bi  Bi13  1  0.162864  0.501338  0.998784  1
  Bi  Bi14  1  0.999909  0.164723  0.498487  1
  Bi  Bi15  1  0.833764  0.835187  0.835277  1
  Bi  Bi16  1  0.500091  0.998577  0.164813  1
  Bi  Bi17  1  0.666236  0.501513  0.001423  1
  Bi  Bi18  1  0.502554  0.001216  0.664080  1
  Bi  Bi19  1  0.997446  0.661524  0.498662  1
