# generated using pymatgen
data_Nd5(RhO6)2
_symmetry_space_group_name_H-M   'P 1'
_cell_length_a   7.07260532
_cell_length_b   7.07260473
_cell_length_c   7.58299600
_cell_angle_alpha   74.51005667
_cell_angle_beta   74.51005773
_cell_angle_gamma   51.10080993
_symmetry_Int_Tables_number   1
_chemical_formula_structural   Nd5(RhO6)2
_chemical_formula_sum   'Nd5 Rh2 O12'
_cell_volume   281.97213941
_cell_formula_units_Z   1
loop_
 _symmetry_equiv_pos_site_id
 _symmetry_equiv_pos_as_xyz
  1  'x, y, z'
loop_
 _atom_site_type_symbol
 _atom_site_label
 _atom_site_symmetry_multiplicity
 _atom_site_fract_x
 _atom_site_fract_y
 _atom_site_fract_z
 _atom_site_occupancy
  Nd  Nd0  1  0.305080  0.305080  0.357996  1
  Nd  Nd1  1  0.694920  0.694920  0.642004  1
  Nd  Nd2  1  0.692430  0.692430  0.166969  1
  Nd  Nd3  1  0.307570  0.307570  0.833031  1
  Nd  Nd4  1  0.000000  0.000000  0.500000  1
  Rh  Rh5  1  0.754384  0.245616  0.000000  1
  Rh  Rh6  1  0.245616  0.754384  0.000000  1
  O  O7  1  0.095410  0.597638  0.576460  1
  O  O8  1  0.999245  0.999245  0.174161  1
  O  O9  1  0.402362  0.904590  0.423540  1
  O  O10  1  0.500256  0.500256  0.178244  1
  O  O11  1  0.100464  0.576225  0.080391  1
  O  O12  1  0.904590  0.402362  0.423540  1
  O  O13  1  0.000755  0.000755  0.825839  1
  O  O14  1  0.597638  0.095409  0.576460  1
  O  O15  1  0.499744  0.499744  0.821756  1
  O  O16  1  0.576225  0.100464  0.080391  1
  O  O17  1  0.423775  0.899536  0.919609  1
  O  O18  1  0.899536  0.423775  0.919609  1
