# generated using pymatgen
data_Rb4Zr6GaBr18
_symmetry_space_group_name_H-M   'P 1'
_cell_length_a   10.70011855
_cell_length_b   10.99105243
_cell_length_c   11.08577425
_cell_angle_alpha   118.91623326
_cell_angle_beta   100.16328736
_cell_angle_gamma   104.11795187
_symmetry_Int_Tables_number   1
_chemical_formula_structural   Rb4Zr6GaBr18
_chemical_formula_sum   'Rb4 Zr6 Ga1 Br18'
_cell_volume   1038.05185330
_cell_formula_units_Z   1
loop_
 _symmetry_equiv_pos_site_id
 _symmetry_equiv_pos_as_xyz
  1  'x, y, z'
loop_
 _atom_site_type_symbol
 _atom_site_label
 _atom_site_symmetry_multiplicity
 _atom_site_fract_x
 _atom_site_fract_y
 _atom_site_fract_z
 _atom_site_occupancy
  Rb  Rb0  1  0.654224  0.537973  0.227804  1
  Rb  Rb1  1  0.345776  0.462027  0.772196  1
  Rb  Rb2  1  0.689257  0.226091  0.564651  1
  Rb  Rb3  1  0.310743  0.773909  0.435349  1
  Zr  Zr4  1  0.155410  0.056306  0.240514  1
  Zr  Zr5  1  0.844590  0.943694  0.759486  1
  Zr  Zr6  1  0.854887  0.132635  0.139085  1
  Zr  Zr7  1  0.145113  0.867365  0.860915  1
  Zr  Zr8  1  0.150121  0.249220  0.044853  1
  Zr  Zr9  1  0.849879  0.750780  0.955147  1
  Ga  Ga10  1  0.000000  0.000000  0.000000  1
  Br  Br11  1  0.007992  0.407377  0.196522  1
  Br  Br12  1  0.992008  0.592623  0.803478  1
  Br  Br13  1  0.326886  0.331101  0.308824  1
  Br  Br14  1  0.673114  0.668899  0.691176  1
  Br  Br15  1  0.320932  0.520519  0.100054  1
  Br  Br16  1  0.679068  0.479481  0.899946  1
  Br  Br17  1  0.004248  0.795926  0.209241  1
  Br  Br18  1  0.995752  0.204074  0.790759  1
  Br  Br19  1  0.702926  0.274150  0.286769  1
  Br  Br20  1  0.297074  0.725850  0.713231  1
  Br  Br21  1  0.316152  0.127322  0.904623  1
  Br  Br22  1  0.683848  0.872678  0.095377  1
  Br  Br23  1  0.014796  0.203812  0.405531  1
  Br  Br24  1  0.985204  0.796188  0.594469  1
  Br  Br25  1  0.319822  0.924391  0.109973  1
  Br  Br26  1  0.680178  0.075609  0.890027  1
  Br  Br27  1  0.331888  0.120445  0.500126  1
  Br  Br28  1  0.668112  0.879555  0.499874  1
