# generated using pymatgen
data_SmPa2Cu3Sn4
_symmetry_space_group_name_H-M   'P 1'
_cell_length_a   8.30965599
_cell_length_b   8.31534702
_cell_length_c   8.30598327
_cell_angle_alpha   109.62029641
_cell_angle_beta   109.38946151
_cell_angle_gamma   109.42210019
_symmetry_Int_Tables_number   1
_chemical_formula_structural   SmPa2Cu3Sn4
_chemical_formula_sum   'Sm2 Pa4 Cu6 Sn8'
_cell_volume   441.70617347
_cell_formula_units_Z   2
loop_
 _symmetry_equiv_pos_site_id
 _symmetry_equiv_pos_as_xyz
  1  'x, y, z'
loop_
 _atom_site_type_symbol
 _atom_site_label
 _atom_site_symmetry_multiplicity
 _atom_site_fract_x
 _atom_site_fract_y
 _atom_site_fract_z
 _atom_site_occupancy
  Sm  Sm0  1  0.877315  0.751390  0.125772  1
  Sm  Sm1  1  0.122708  0.374006  0.248405  1
  Pa  Pa2  1  0.626046  0.252073  0.374284  1
  Pa  Pa3  1  0.750054  0.873306  0.626597  1
  Pa  Pa4  1  0.373884  0.126015  0.748178  1
  Pa  Pa5  1  0.249970  0.623268  0.876578  1
  Cu  Cu6  1  0.742611  0.369392  0.122471  1
  Cu  Cu7  1  0.623682  0.878580  0.252006  1
  Cu  Cu8  1  0.257413  0.126820  0.379846  1
  Cu  Cu9  1  0.376309  0.754802  0.628195  1
  Cu  Cu10  1  0.873856  0.621628  0.745508  1
  Cu  Cu11  1  0.126139  0.247685  0.871570  1
  Sn  Sn12  1  0.170065  0.000269  0.999707  1
  Sn  Sn13  1  0.665424  0.999014  0.998546  1
  Sn  Sn14  1  0.501636  0.500874  0.169052  1
  Sn  Sn15  1  0.334562  0.833573  0.333046  1
  Sn  Sn16  1  0.001287  0.669455  0.502179  1
  Sn  Sn17  1  0.998631  0.168282  0.500877  1
  Sn  Sn18  1  0.498440  0.499322  0.667474  1
  Sn  Sn19  1  0.829968  0.330248  0.829710  1
