# generated using pymatgen
data_Nb10SiB4P
_symmetry_space_group_name_H-M   'P 1'
_cell_length_a   7.31311196
_cell_length_b   7.31311262
_cell_length_c   7.31311311
_cell_angle_alpha   129.33924216
_cell_angle_beta   129.33925063
_cell_angle_gamma   74.46532105
_symmetry_Int_Tables_number   1
_chemical_formula_structural   Nb10SiB4P
_chemical_formula_sum   'Nb10 Si1 B4 P1'
_cell_volume   228.00153614
_cell_formula_units_Z   1
loop_
 _symmetry_equiv_pos_site_id
 _symmetry_equiv_pos_as_xyz
  1  'x, y, z'
loop_
 _atom_site_type_symbol
 _atom_site_label
 _atom_site_symmetry_multiplicity
 _atom_site_fract_x
 _atom_site_fract_y
 _atom_site_fract_z
 _atom_site_occupancy
  Nb  Nb0  1  0.999430  0.999430  0.000000  1
  Nb  Nb1  1  0.500570  0.500570  0.000000  1
  Nb  Nb2  1  0.808941  0.306388  0.837531  1
  Nb  Nb3  1  0.193612  0.691059  0.162469  1
  Nb  Nb4  1  0.468858  0.971411  0.162469  1
  Nb  Nb5  1  0.306388  0.468858  0.497447  1
  Nb  Nb6  1  0.031142  0.193612  0.502553  1
  Nb  Nb7  1  0.528589  0.031142  0.837531  1
  Nb  Nb8  1  0.691059  0.528589  0.497447  1
  Nb  Nb9  1  0.971411  0.808941  0.502553  1
  Si  Si10  1  0.750000  0.750000  0.000000  1
  B  B11  1  0.112836  0.612836  0.725672  1
  B  B12  1  0.887164  0.387164  0.274328  1
  B  B13  1  0.612836  0.887164  0.500000  1
  B  B14  1  0.387164  0.112836  0.500000  1
  P  P15  1  0.250000  0.250000  0.000000  1
