# generated using pymatgen
data_Cs7K9(CrSe4)4
_symmetry_space_group_name_H-M   'P 1'
_cell_length_a   8.58253711
_cell_length_b   10.33152850
_cell_length_c   15.67065200
_cell_angle_alpha   90.40834602
_cell_angle_beta   90.49870607
_cell_angle_gamma   90.41379350
_symmetry_Int_Tables_number   1
_chemical_formula_structural   Cs7K9(CrSe4)4
_chemical_formula_sum   'Cs7 K9 Cr4 Se16'
_cell_volume   1389.40331239
_cell_formula_units_Z   1
loop_
 _symmetry_equiv_pos_site_id
 _symmetry_equiv_pos_as_xyz
  1  'x, y, z'
loop_
 _atom_site_type_symbol
 _atom_site_label
 _atom_site_symmetry_multiplicity
 _atom_site_fract_x
 _atom_site_fract_y
 _atom_site_fract_z
 _atom_site_occupancy
  Cs  Cs0  1  0.000000  0.000000  0.000000  1
  Cs  Cs1  1  0.500000  0.000000  0.500000  1
  Cs  Cs2  1  0.000000  0.500000  0.000000  1
  Cs  Cs3  1  0.994839  0.749515  0.426494  1
  Cs  Cs4  1  0.493022  0.249650  0.075118  1
  Cs  Cs5  1  0.005161  0.250485  0.573506  1
  Cs  Cs6  1  0.506978  0.750350  0.924882  1
  K  K7  1  0.500000  0.500000  0.500000  1
  K  K8  1  0.839361  0.050970  0.273674  1
  K  K9  1  0.339755  0.950160  0.227525  1
  K  K10  1  0.158278  0.549299  0.724978  1
  K  K11  1  0.659294  0.449202  0.772215  1
  K  K12  1  0.160639  0.949030  0.726326  1
  K  K13  1  0.660245  0.049840  0.772475  1
  K  K14  1  0.841722  0.450701  0.275022  1
  K  K15  1  0.340706  0.550798  0.227785  1
  Cr  Cr16  1  0.758556  0.747803  0.669670  1
  Cr  Cr17  1  0.241444  0.252197  0.330330  1
  Cr  Cr18  1  0.737258  0.749890  0.172379  1
  Cr  Cr19  1  0.262742  0.250110  0.827621  1
  Se  Se20  1  0.988569  0.249643  0.820385  1
  Se  Se21  1  0.515478  0.252606  0.323932  1
  Se  Se22  1  0.484522  0.747394  0.676068  1
  Se  Se23  1  0.011431  0.750357  0.179615  1
  Se  Se24  1  0.647366  0.565211  0.102073  1
  Se  Se25  1  0.163137  0.438393  0.402246  1
  Se  Se26  1  0.352260  0.066175  0.896768  1
  Se  Se27  1  0.851245  0.932007  0.602392  1
  Se  Se28  1  0.352634  0.434789  0.897927  1
  Se  Se29  1  0.836863  0.561607  0.597754  1
  Se  Se30  1  0.647740  0.933825  0.103232  1
  Se  Se31  1  0.148755  0.067993  0.397608  1
  Se  Se32  1  0.628872  0.750170  0.310080  1
  Se  Se33  1  0.129122  0.252758  0.192217  1
  Se  Se34  1  0.371128  0.249830  0.689920  1
  Se  Se35  1  0.870878  0.747242  0.807783  1
