# generated using pymatgen
data_LaErTh7Se17
_symmetry_space_group_name_H-M   'P 1'
_cell_length_a   8.49383157
_cell_length_b   8.47979933
_cell_length_c   11.24713000
_cell_angle_alpha   80.63323778
_cell_angle_beta   80.61848926
_cell_angle_gamma   65.18031533
_symmetry_Int_Tables_number   1
_chemical_formula_structural   LaErTh7Se17
_chemical_formula_sum   'La1 Er1 Th7 Se17'
_cell_volume   721.39059326
_cell_formula_units_Z   1
loop_
 _symmetry_equiv_pos_site_id
 _symmetry_equiv_pos_as_xyz
  1  'x, y, z'
loop_
 _atom_site_type_symbol
 _atom_site_label
 _atom_site_symmetry_multiplicity
 _atom_site_fract_x
 _atom_site_fract_y
 _atom_site_fract_z
 _atom_site_occupancy
  La  La0  1  0.811146  0.305101  0.298874  1
  Er  Er1  1  0.998657  0.001841  0.001838  1
  Th  Th2  1  0.302991  0.813078  0.297912  1
  Th  Th3  1  0.186347  0.697218  0.700116  1
  Th  Th4  1  0.697687  0.187574  0.700516  1
  Th  Th5  1  0.205968  0.204059  0.538400  1
  Th  Th6  1  0.794155  0.792609  0.460900  1
  Th  Th7  1  0.681496  0.682738  0.980942  1
  Th  Th8  1  0.315443  0.319437  0.020938  1
  Se  Se9  1  0.825356  0.430825  0.538235  1
  Se  Se10  1  0.431445  0.819897  0.533062  1
  Se  Se11  1  0.178105  0.566869  0.467755  1
  Se  Se12  1  0.569212  0.171900  0.472414  1
  Se  Se13  1  0.943122  0.336325  0.030980  1
  Se  Se14  1  0.333332  0.944558  0.033891  1
  Se  Se15  1  0.057332  0.668070  0.961885  1
  Se  Se16  1  0.665424  0.060058  0.963395  1
  Se  Se17  1  0.218647  0.202705  0.277191  1
  Se  Se18  1  0.791001  0.791609  0.723789  1
  Se  Se19  1  0.065291  0.062013  0.762697  1
  Se  Se20  1  0.942893  0.927085  0.238667  1
  Se  Se21  1  0.304430  0.304075  0.752393  1
  Se  Se22  1  0.689239  0.706053  0.245874  1
  Se  Se23  1  0.519305  0.521530  0.831715  1
  Se  Se24  1  0.470391  0.488295  0.162334  1
  Se  Se25  1  0.001582  0.994481  0.503288  1
