# generated using pymatgen
data_Y3Er7(Bi2Ru)2
_symmetry_space_group_name_H-M   'P 1'
_cell_length_a   7.92019723
_cell_length_b   8.97043100
_cell_length_c   12.44231136
_cell_angle_alpha   90.00000000
_cell_angle_beta   90.02743133
_cell_angle_gamma   90.00000000
_symmetry_Int_Tables_number   1
_chemical_formula_structural   Y3Er7(Bi2Ru)2
_chemical_formula_sum   'Y6 Er14 Bi8 Ru4'
_cell_volume   883.99604415
_cell_formula_units_Z   2
loop_
 _symmetry_equiv_pos_site_id
 _symmetry_equiv_pos_as_xyz
  1  'x, y, z'
loop_
 _atom_site_type_symbol
 _atom_site_label
 _atom_site_symmetry_multiplicity
 _atom_site_fract_x
 _atom_site_fract_y
 _atom_site_fract_z
 _atom_site_occupancy
  Y  Y0  1  0.661484  0.750000  0.708938  1
  Y  Y1  1  0.338516  0.250000  0.291062  1
  Y  Y2  1  0.161895  0.250000  0.790874  1
  Y  Y3  1  0.838105  0.750000  0.209126  1
  Y  Y4  1  0.128491  0.750000  0.809991  1
  Y  Y5  1  0.871509  0.250000  0.190009  1
  Er  Er6  1  0.626721  0.250000  0.688115  1
  Er  Er7  1  0.373279  0.750000  0.311885  1
  Er  Er8  1  0.555342  0.750000  0.995352  1
  Er  Er9  1  0.444658  0.250000  0.004648  1
  Er  Er10  1  0.055573  0.250000  0.504186  1
  Er  Er11  1  0.944427  0.750000  0.495814  1
  Er  Er12  1  0.827052  0.457822  0.934359  1
  Er  Er13  1  0.172948  0.542178  0.065641  1
  Er  Er14  1  0.327392  0.541712  0.565116  1
  Er  Er15  1  0.172948  0.957822  0.065641  1
  Er  Er16  1  0.672608  0.458288  0.434884  1
  Er  Er17  1  0.827052  0.042178  0.934359  1
  Er  Er18  1  0.672608  0.041712  0.434884  1
  Er  Er19  1  0.327392  0.958288  0.565116  1
  Bi  Bi20  1  0.934829  0.006471  0.671420  1
  Bi  Bi21  1  0.065171  0.993529  0.328580  1
  Bi  Bi22  1  0.436394  0.994766  0.828204  1
  Bi  Bi23  1  0.065171  0.506471  0.328580  1
  Bi  Bi24  1  0.563606  0.005234  0.171796  1
  Bi  Bi25  1  0.934829  0.493529  0.671420  1
  Bi  Bi26  1  0.563606  0.494766  0.171796  1
  Bi  Bi27  1  0.436394  0.505234  0.828204  1
  Ru  Ru28  1  0.925964  0.750000  0.990619  1
  Ru  Ru29  1  0.074036  0.250000  0.009381  1
  Ru  Ru30  1  0.427037  0.250000  0.510526  1
  Ru  Ru31  1  0.572963  0.750000  0.489474  1
