# generated using pymatgen
data_Ho20AlBi11
_symmetry_space_group_name_H-M   'P 1'
_cell_length_a   8.20523611
_cell_length_b   9.48109000
_cell_length_c   11.98825451
_cell_angle_alpha   90.00000000
_cell_angle_beta   90.24087578
_cell_angle_gamma   90.00000000
_symmetry_Int_Tables_number   1
_chemical_formula_structural   Ho20AlBi11
_chemical_formula_sum   'Ho20 Al1 Bi11'
_cell_volume   932.61300729
_cell_formula_units_Z   1
loop_
 _symmetry_equiv_pos_site_id
 _symmetry_equiv_pos_as_xyz
  1  'x, y, z'
loop_
 _atom_site_type_symbol
 _atom_site_label
 _atom_site_symmetry_multiplicity
 _atom_site_fract_x
 _atom_site_fract_y
 _atom_site_fract_z
 _atom_site_occupancy
  Ho  Ho0  1  0.355151  0.750000  0.207941  1
  Ho  Ho1  1  0.853648  0.750000  0.284165  1
  Ho  Ho2  1  0.647149  0.250000  0.783986  1
  Ho  Ho3  1  0.148811  0.250000  0.716041  1
  Ho  Ho4  1  0.685473  0.570009  0.055965  1
  Ho  Ho5  1  0.192962  0.935639  0.440333  1
  Ho  Ho6  1  0.308090  0.053057  0.940950  1
  Ho  Ho7  1  0.807098  0.435842  0.559018  1
  Ho  Ho8  1  0.308090  0.446943  0.940950  1
  Ho  Ho9  1  0.807098  0.064158  0.559018  1
  Ho  Ho10  1  0.685473  0.929991  0.055965  1
  Ho  Ho11  1  0.192962  0.564361  0.440333  1
  Ho  Ho12  1  0.475784  0.250000  0.488906  1
  Ho  Ho13  1  0.978434  0.250000  0.010970  1
  Ho  Ho14  1  0.524509  0.750000  0.511243  1
  Ho  Ho15  1  0.034089  0.750000  0.989333  1
  Ho  Ho16  1  0.313997  0.250000  0.219186  1
  Ho  Ho17  1  0.812400  0.250000  0.281618  1
  Ho  Ho18  1  0.677678  0.750000  0.786675  1
  Ho  Ho19  1  0.188745  0.750000  0.722208  1
  Al  Al20  1  0.408059  0.750000  0.958698  1
  Bi  Bi21  1  0.907445  0.750000  0.543944  1
  Bi  Bi22  1  0.593733  0.250000  0.042897  1
  Bi  Bi23  1  0.093563  0.250000  0.457359  1
  Bi  Bi24  1  0.565245  0.995956  0.326074  1
  Bi  Bi25  1  0.064739  0.503520  0.175177  1
  Bi  Bi26  1  0.435004  0.496647  0.674856  1
  Bi  Bi27  1  0.934790  0.003703  0.825043  1
  Bi  Bi28  1  0.435004  0.003353  0.674856  1
  Bi  Bi29  1  0.934790  0.496297  0.825043  1
  Bi  Bi30  1  0.565245  0.504044  0.326074  1
  Bi  Bi31  1  0.064739  0.996480  0.175177  1
