# generated using pymatgen
data_Si5Ni7(Mo3C)4
_symmetry_space_group_name_H-M   'P 1'
_cell_length_a   7.86377259
_cell_length_b   7.83546754
_cell_length_c   7.86377200
_cell_angle_alpha   59.88043226
_cell_angle_beta   60.00000247
_cell_angle_gamma   59.88043631
_symmetry_Int_Tables_number   1
_chemical_formula_structural   Si5Ni7(Mo3C)4
_chemical_formula_sum   'Si5 Ni7 Mo12 C4'
_cell_volume   341.99876981
_cell_formula_units_Z   1
loop_
 _symmetry_equiv_pos_site_id
 _symmetry_equiv_pos_as_xyz
  1  'x, y, z'
loop_
 _atom_site_type_symbol
 _atom_site_label
 _atom_site_symmetry_multiplicity
 _atom_site_fract_x
 _atom_site_fract_y
 _atom_site_fract_z
 _atom_site_occupancy
  Si  Si0  1  0.919473  0.241582  0.919473  1
  Si  Si1  1  0.124357  0.626927  0.124357  1
  Si  Si2  1  0.610589  0.117051  0.136180  1
  Si  Si3  1  0.136180  0.117051  0.136180  1
  Si  Si4  1  0.136180  0.117051  0.610589  1
  Ni  Ni5  1  0.332989  0.331789  0.002234  1
  Ni  Ni6  1  0.335032  0.994904  0.335032  1
  Ni  Ni7  1  0.915939  0.930855  0.237268  1
  Ni  Ni8  1  0.332989  0.331789  0.332989  1
  Ni  Ni9  1  0.915939  0.930855  0.915939  1
  Ni  Ni10  1  0.002234  0.331789  0.332989  1
  Ni  Ni11  1  0.237268  0.930855  0.915939  1
  Mo  Mo12  1  0.561963  0.939102  0.561963  1
  Mo  Mo13  1  0.936971  0.939102  0.561963  1
  Mo  Mo14  1  0.305712  0.693200  0.305712  1
  Mo  Mo15  1  0.561963  0.939102  0.936971  1
  Mo  Mo16  1  0.696210  0.306466  0.696210  1
  Mo  Mo17  1  0.695376  0.693200  0.305712  1
  Mo  Mo18  1  0.941767  0.558014  0.558451  1
  Mo  Mo19  1  0.301113  0.306466  0.696210  1
  Mo  Mo20  1  0.558451  0.558014  0.941767  1
  Mo  Mo21  1  0.941767  0.558014  0.941767  1
  Mo  Mo22  1  0.696210  0.306466  0.301113  1
  Mo  Mo23  1  0.305712  0.693200  0.695376  1
  C  C24  1  0.623163  0.130509  0.623163  1
  C  C25  1  0.624048  0.625549  0.126353  1
  C  C26  1  0.126353  0.625549  0.624048  1
  C  C27  1  0.624048  0.625549  0.624048  1
