# generated using pymatgen
data_Tm4Al3(Ga5Ir2)3
_symmetry_space_group_name_H-M   'P 1'
_cell_length_a   7.55460680
_cell_length_b   7.55460539
_cell_length_c   9.47623836
_cell_angle_alpha   89.98400423
_cell_angle_beta   89.98400711
_cell_angle_gamma   119.81385374
_symmetry_Int_Tables_number   1
_chemical_formula_structural   Tm4Al3(Ga5Ir2)3
_chemical_formula_sum   'Tm4 Al3 Ga15 Ir6'
_cell_volume   469.24727382
_cell_formula_units_Z   1
loop_
 _symmetry_equiv_pos_site_id
 _symmetry_equiv_pos_as_xyz
  1  'x, y, z'
loop_
 _atom_site_type_symbol
 _atom_site_label
 _atom_site_symmetry_multiplicity
 _atom_site_fract_x
 _atom_site_fract_y
 _atom_site_fract_z
 _atom_site_occupancy
  Tm  Tm0  1  0.000158  0.669910  0.249832  1
  Tm  Tm1  1  0.000694  0.330808  0.749219  1
  Tm  Tm2  1  0.669911  0.000159  0.249832  1
  Tm  Tm3  1  0.330808  0.000694  0.749219  1
  Al  Al4  1  0.665270  0.665270  0.445491  1
  Al  Al5  1  0.668446  0.668446  0.054630  1
  Al  Al6  1  0.331939  0.331939  0.946183  1
  Ga  Ga7  1  0.127082  0.127082  0.249410  1
  Ga  Ga8  1  0.873099  0.873099  0.749425  1
  Ga  Ga9  1  0.999227  0.335023  0.079836  1
  Ga  Ga10  1  0.000818  0.665131  0.920042  1
  Ga  Ga11  1  0.000287  0.665066  0.580148  1
  Ga  Ga12  1  0.335366  0.000294  0.418329  1
  Ga  Ga13  1  0.000294  0.335365  0.418331  1
  Ga  Ga14  1  0.665065  0.000287  0.580148  1
  Ga  Ga15  1  0.665131  0.000818  0.920042  1
  Ga  Ga16  1  0.335023  0.999226  0.079837  1
  Ga  Ga17  1  0.329109  0.329109  0.565294  1
  Ga  Ga18  1  0.346051  0.550057  0.249879  1
  Ga  Ga19  1  0.657307  0.451316  0.750155  1
  Ga  Ga20  1  0.550058  0.346052  0.249878  1
  Ga  Ga21  1  0.451316  0.657305  0.750155  1
  Ir  Ir22  1  0.669276  0.329997  0.999655  1
  Ir  Ir23  1  0.329997  0.669277  0.999655  1
  Ir  Ir24  1  0.330045  0.672080  0.499197  1
  Ir  Ir25  1  0.672080  0.330045  0.499197  1
  Ir  Ir26  1  0.000232  0.000232  0.999357  1
  Ir  Ir27  1  0.995913  0.995913  0.497623  1
