# generated using pymatgen
data_Y3Tm7CdHg2Ru
_symmetry_space_group_name_H-M   'P 1'
_cell_length_a   9.50585057
_cell_length_b   9.50585006
_cell_length_c   9.66594300
_cell_angle_alpha   90.00000000
_cell_angle_beta   90.00000000
_cell_angle_gamma   119.87600166
_symmetry_Int_Tables_number   1
_chemical_formula_structural   Y3Tm7CdHg2Ru
_chemical_formula_sum   'Y6 Tm14 Cd2 Hg4 Ru2'
_cell_volume   757.35255617
_cell_formula_units_Z   2
loop_
 _symmetry_equiv_pos_site_id
 _symmetry_equiv_pos_as_xyz
  1  'x, y, z'
loop_
 _atom_site_type_symbol
 _atom_site_label
 _atom_site_symmetry_multiplicity
 _atom_site_fract_x
 _atom_site_fract_y
 _atom_site_fract_z
 _atom_site_occupancy
  Y  Y0  1  0.540457  0.459543  0.250000  1
  Y  Y1  1  0.540041  0.080288  0.250000  1
  Y  Y2  1  0.919712  0.459959  0.250000  1
  Y  Y3  1  0.459857  0.540143  0.750000  1
  Y  Y4  1  0.457239  0.919630  0.750000  1
  Y  Y5  1  0.080370  0.542761  0.750000  1
  Tm  Tm6  1  0.001307  0.998693  0.495960  1
  Tm  Tm7  1  0.001307  0.998693  0.004040  1
  Tm  Tm8  1  0.209586  0.790414  0.439377  1
  Tm  Tm9  1  0.209689  0.419319  0.439818  1
  Tm  Tm10  1  0.580681  0.790311  0.439818  1
  Tm  Tm11  1  0.790206  0.209794  0.559644  1
  Tm  Tm12  1  0.790190  0.580644  0.559711  1
  Tm  Tm13  1  0.419356  0.209810  0.559711  1
  Tm  Tm14  1  0.790206  0.209794  0.940356  1
  Tm  Tm15  1  0.790190  0.580644  0.940289  1
  Tm  Tm16  1  0.419356  0.209810  0.940289  1
  Tm  Tm17  1  0.209586  0.790414  0.060623  1
  Tm  Tm18  1  0.209689  0.419319  0.060182  1
  Tm  Tm19  1  0.580681  0.790311  0.060182  1
  Cd  Cd20  1  0.113325  0.228031  0.750000  1
  Cd  Cd21  1  0.771969  0.886675  0.750000  1
  Hg  Hg22  1  0.882319  0.117681  0.250000  1
  Hg  Hg23  1  0.882334  0.764327  0.250000  1
  Hg  Hg24  1  0.235673  0.117666  0.250000  1
  Hg  Hg25  1  0.115122  0.884878  0.750000  1
  Ru  Ru26  1  0.333165  0.666835  0.250000  1
  Ru  Ru27  1  0.666386  0.333614  0.750000  1
