# generated using pymatgen
data_SrFeCo2(PO4)3
_symmetry_space_group_name_H-M   'P 1'
_cell_length_a   9.14538926
_cell_length_b   9.14538947
_cell_length_c   9.14538942
_cell_angle_alpha   137.48555221
_cell_angle_beta   109.75081776
_cell_angle_gamma   85.69664093
_symmetry_Int_Tables_number   1
_chemical_formula_structural   SrFeCo2(PO4)3
_chemical_formula_sum   'Sr2 Fe2 Co4 P6 O24'
_cell_volume   467.92343714
_cell_formula_units_Z   2
loop_
 _symmetry_equiv_pos_site_id
 _symmetry_equiv_pos_as_xyz
  1  'x, y, z'
loop_
 _atom_site_type_symbol
 _atom_site_label
 _atom_site_symmetry_multiplicity
 _atom_site_fract_x
 _atom_site_fract_y
 _atom_site_fract_z
 _atom_site_occupancy
  Sr  Sr0  1  0.250000  0.345595  0.095595  1
  Sr  Sr1  1  0.750000  0.654405  0.904405  1
  Fe  Fe2  1  0.000000  0.500000  0.500000  1
  Fe  Fe3  1  0.500000  0.000000  0.500000  1
  Co  Co4  1  0.117075  0.117075  0.500000  1
  Co  Co5  1  0.382925  0.882925  0.000000  1
  Co  Co6  1  0.617075  0.117075  0.000000  1
  Co  Co7  1  0.882925  0.882925  0.500000  1
  P  P8  1  0.250000  0.839180  0.589180  1
  P  P9  1  0.750000  0.160820  0.410820  1
  P  P10  1  0.322459  0.322459  0.500000  1
  P  P11  1  0.177541  0.677541  0.000000  1
  P  P12  1  0.822459  0.322459  0.000000  1
  P  P13  1  0.677541  0.677541  0.500000  1
  O  O14  1  0.343534  0.797209  0.453677  1
  O  O15  1  0.656466  0.202791  0.546323  1
  O  O16  1  0.843534  0.389857  0.546323  1
  O  O17  1  0.156466  0.610143  0.453677  1
  O  O18  1  0.132875  0.984540  0.617415  1
  O  O19  1  0.632875  0.015460  0.148335  1
  O  O20  1  0.867125  0.015460  0.382585  1
  O  O21  1  0.367125  0.984540  0.851665  1
  O  O22  1  0.345982  0.203954  0.278027  1
  O  O23  1  0.074073  0.796046  0.142028  1
  O  O24  1  0.845982  0.567955  0.142028  1
  O  O25  1  0.574073  0.432045  0.278027  1
  O  O26  1  0.654018  0.796046  0.721973  1
  O  O27  1  0.925927  0.203954  0.857972  1
  O  O28  1  0.154018  0.432045  0.857972  1
  O  O29  1  0.425927  0.567955  0.721973  1
  O  O30  1  0.134522  0.291489  0.434354  1
  O  O31  1  0.142867  0.708511  0.843034  1
  O  O32  1  0.634522  0.200168  0.843034  1
  O  O33  1  0.642867  0.799832  0.434354  1
  O  O34  1  0.865478  0.708511  0.565646  1
  O  O35  1  0.857133  0.291489  0.156966  1
  O  O36  1  0.365478  0.799832  0.156966  1
  O  O37  1  0.357133  0.200168  0.565646  1
