# generated using pymatgen
data_Zr5ZnBi2Pb
_symmetry_space_group_name_H-M   'P 1'
_cell_length_a   8.85124502
_cell_length_b   8.85020444
_cell_length_c   5.94259700
_cell_angle_alpha   90.00000000
_cell_angle_beta   90.00000000
_cell_angle_gamma   119.99610797
_symmetry_Int_Tables_number   1
_chemical_formula_structural   Zr5ZnBi2Pb
_chemical_formula_sum   'Zr10 Zn2 Bi4 Pb2'
_cell_volume   403.16387266
_cell_formula_units_Z   2
loop_
 _symmetry_equiv_pos_site_id
 _symmetry_equiv_pos_as_xyz
  1  'x, y, z'
loop_
 _atom_site_type_symbol
 _atom_site_label
 _atom_site_symmetry_multiplicity
 _atom_site_fract_x
 _atom_site_fract_y
 _atom_site_fract_z
 _atom_site_occupancy
  Zr  Zr0  1  0.333655  0.666828  0.000000  1
  Zr  Zr1  1  0.666618  0.333308  0.500000  1
  Zr  Zr2  1  0.666618  0.333308  0.000000  1
  Zr  Zr3  1  0.333655  0.666828  0.500000  1
  Zr  Zr4  1  0.266162  0.000515  0.250000  1
  Zr  Zr5  1  0.266162  0.265647  0.750000  1
  Zr  Zr6  1  0.000867  0.734008  0.750000  1
  Zr  Zr7  1  0.000867  0.266859  0.250000  1
  Zr  Zr8  1  0.733222  0.733085  0.250000  1
  Zr  Zr9  1  0.733222  0.000137  0.750000  1
  Zn  Zn10  1  0.000622  0.000311  0.000000  1
  Zn  Zn11  1  0.000622  0.000311  0.500000  1
  Bi  Bi12  1  0.614325  0.999905  0.250000  1
  Bi  Bi13  1  0.614325  0.614420  0.750000  1
  Bi  Bi14  1  0.000625  0.385253  0.750000  1
  Bi  Bi15  1  0.000625  0.615373  0.250000  1
  Pb  Pb16  1  0.383905  0.383777  0.250000  1
  Pb  Pb17  1  0.383905  0.000127  0.750000  1
