# generated using pymatgen
data_Ac3In4Ge
_symmetry_space_group_name_H-M   'P 1'
_cell_length_a   8.92125276
_cell_length_b   8.92125238
_cell_length_c   8.92125228
_cell_angle_alpha   119.63724155
_cell_angle_beta   119.63724365
_cell_angle_gamma   90.62947221
_symmetry_Int_Tables_number   1
_chemical_formula_structural   Ac3In4Ge
_chemical_formula_sum   'Ac6 In8 Ge2'
_cell_volume   504.78782905
_cell_formula_units_Z   2
loop_
 _symmetry_equiv_pos_site_id
 _symmetry_equiv_pos_as_xyz
  1  'x, y, z'
loop_
 _atom_site_type_symbol
 _atom_site_label
 _atom_site_symmetry_multiplicity
 _atom_site_fract_x
 _atom_site_fract_y
 _atom_site_fract_z
 _atom_site_occupancy
  Ac  Ac0  1  0.750000  0.750000  0.000000  1
  Ac  Ac1  1  0.250000  0.250000  0.000000  1
  Ac  Ac2  1  0.336388  0.836388  0.172775  1
  Ac  Ac3  1  0.663612  0.163612  0.827225  1
  Ac  Ac4  1  0.836388  0.663612  0.500000  1
  Ac  Ac5  1  0.163612  0.336388  0.500000  1
  In  In6  1  0.954341  0.454341  0.782860  1
  In  In7  1  0.671481  0.171481  0.217140  1
  In  In8  1  0.454341  0.671481  0.500000  1
  In  In9  1  0.171481  0.954341  0.500000  1
  In  In10  1  0.045659  0.545659  0.217140  1
  In  In11  1  0.328519  0.828519  0.782860  1
  In  In12  1  0.545659  0.328519  0.500000  1
  In  In13  1  0.828519  0.045659  0.500000  1
  Ge  Ge14  1  0.000000  0.000000  0.000000  1
  Ge  Ge15  1  0.500000  0.500000  0.000000  1
