# generated using pymatgen
data_YLu3Si4RuRh
_symmetry_space_group_name_H-M   'P 1'
_cell_length_a   5.61437648
_cell_length_b   5.61437716
_cell_length_c   9.95609466
_cell_angle_alpha   63.65941710
_cell_angle_beta   63.65941076
_cell_angle_gamma   43.72988031
_symmetry_Int_Tables_number   1
_chemical_formula_structural   YLu3Si4RuRh
_chemical_formula_sum   'Y1 Lu3 Si4 Ru1 Rh1'
_cell_volume   190.53691334
_cell_formula_units_Z   1
loop_
 _symmetry_equiv_pos_site_id
 _symmetry_equiv_pos_as_xyz
  1  'x, y, z'
loop_
 _atom_site_type_symbol
 _atom_site_label
 _atom_site_symmetry_multiplicity
 _atom_site_fract_x
 _atom_site_fract_y
 _atom_site_fract_z
 _atom_site_occupancy
  Y  Y0  1  0.813179  0.813179  0.107613  1
  Lu  Lu1  1  0.000466  0.000466  0.326258  1
  Lu  Lu2  1  0.185081  0.185081  0.890213  1
  Lu  Lu3  1  0.999270  0.999270  0.674750  1
  Si  Si4  1  0.357761  0.357761  0.566418  1
  Si  Si5  1  0.491727  0.491727  0.875669  1
  Si  Si6  1  0.638347  0.638347  0.438235  1
  Si  Si7  1  0.513050  0.513050  0.120627  1
  Ru  Ru8  1  0.728681  0.728681  0.625700  1
  Rh  Rh9  1  0.272438  0.272438  0.374514  1
