# generated using pymatgen
data_Er4Co9SiB4
_symmetry_space_group_name_H-M   'P 1'
_cell_length_a   5.09615400
_cell_length_b   5.09615415
_cell_length_c   19.43249400
_cell_angle_alpha   90.00000000
_cell_angle_beta   90.00000000
_cell_angle_gamma   119.99999902
_symmetry_Int_Tables_number   1
_chemical_formula_structural   Er4Co9SiB4
_chemical_formula_sum   'Er8 Co18 Si2 B8'
_cell_volume   437.06323705
_cell_formula_units_Z   2
loop_
 _symmetry_equiv_pos_site_id
 _symmetry_equiv_pos_as_xyz
  1  'x, y, z'
loop_
 _atom_site_type_symbol
 _atom_site_label
 _atom_site_symmetry_multiplicity
 _atom_site_fract_x
 _atom_site_fract_y
 _atom_site_fract_z
 _atom_site_occupancy
  Er  Er0  1  0.666667  0.333333  0.825690  1
  Er  Er1  1  0.666667  0.333333  0.977028  1
  Er  Er2  1  0.333333  0.666667  0.477028  1
  Er  Er3  1  0.333333  0.666667  0.022972  1
  Er  Er4  1  0.333333  0.666667  0.174310  1
  Er  Er5  1  0.666667  0.333333  0.522972  1
  Er  Er6  1  0.666667  0.333333  0.674310  1
  Er  Er7  1  0.333333  0.666667  0.325690  1
  Co  Co8  1  0.164762  0.329523  0.896765  1
  Co  Co9  1  0.164762  0.835238  0.603235  1
  Co  Co10  1  0.835238  0.164762  0.396765  1
  Co  Co11  1  0.334496  0.167248  0.250000  1
  Co  Co12  1  0.329523  0.164762  0.396765  1
  Co  Co13  1  0.835238  0.670477  0.103235  1
  Co  Co14  1  0.835238  0.670477  0.396765  1
  Co  Co15  1  0.832752  0.665504  0.250000  1
  Co  Co16  1  0.670477  0.835238  0.603235  1
  Co  Co17  1  0.665504  0.832752  0.750000  1
  Co  Co18  1  0.835238  0.164762  0.103235  1
  Co  Co19  1  0.670477  0.835238  0.896765  1
  Co  Co20  1  0.167248  0.334496  0.750000  1
  Co  Co21  1  0.167248  0.832752  0.750000  1
  Co  Co22  1  0.832752  0.167248  0.250000  1
  Co  Co23  1  0.329523  0.164762  0.103235  1
  Co  Co24  1  0.164762  0.835238  0.896765  1
  Co  Co25  1  0.164762  0.329523  0.603235  1
  Si  Si26  1  0.000000  0.000000  0.000000  1
  Si  Si27  1  0.000000  0.000000  0.500000  1
  B  B28  1  0.333333  0.666667  0.826429  1
  B  B29  1  0.333333  0.666667  0.673571  1
  B  B30  1  0.666667  0.333333  0.326429  1
  B  B31  1  0.000000  0.000000  0.824513  1
  B  B32  1  0.666667  0.333333  0.173571  1
  B  B33  1  0.000000  0.000000  0.675487  1
  B  B34  1  0.000000  0.000000  0.324513  1
  B  B35  1  0.000000  0.000000  0.175487  1
