# generated using pymatgen
data_Ho2Mn5P7Ir6Rh
_symmetry_space_group_name_H-M   'P 1'
_cell_length_a   9.37910381
_cell_length_b   9.36629328
_cell_length_c   3.86559300
_cell_angle_alpha   90.00000000
_cell_angle_beta   90.00000000
_cell_angle_gamma   119.78683418
_symmetry_Int_Tables_number   1
_chemical_formula_structural   Ho2Mn5P7Ir6Rh
_chemical_formula_sum   'Ho2 Mn5 P7 Ir6 Rh1'
_cell_volume   294.71667963
_cell_formula_units_Z   1
loop_
 _symmetry_equiv_pos_site_id
 _symmetry_equiv_pos_as_xyz
  1  'x, y, z'
loop_
 _atom_site_type_symbol
 _atom_site_label
 _atom_site_symmetry_multiplicity
 _atom_site_fract_x
 _atom_site_fract_y
 _atom_site_fract_z
 _atom_site_occupancy
  Ho  Ho0  1  0.666722  0.333816  0.000000  1
  Ho  Ho1  1  0.334040  0.667921  0.500000  1
  Mn  Mn2  1  0.268350  0.159034  0.000000  1
  Mn  Mn3  1  0.841820  0.112422  0.000000  1
  Mn  Mn4  1  0.890386  0.728977  0.000000  1
  Mn  Mn5  1  0.779643  0.876341  0.500000  1
  Mn  Mn6  1  0.123396  0.902417  0.500000  1
  P  P7  1  0.302928  0.412634  0.000000  1
  P  P8  1  0.592953  0.890813  0.000000  1
  P  P9  1  0.112363  0.702125  0.000000  1
  P  P10  1  0.393959  0.116595  0.500000  1
  P  P11  1  0.877280  0.276020  0.500000  1
  P  P12  1  0.723970  0.606970  0.500000  1
  P  P13  1  0.996847  0.996726  0.000000  1
  Ir  Ir14  1  0.066387  0.428628  0.000000  1
  Ir  Ir15  1  0.573509  0.638127  0.000000  1
  Ir  Ir16  1  0.363385  0.935808  0.000000  1
  Ir  Ir17  1  0.444949  0.387533  0.500000  1
  Ir  Ir18  1  0.612408  0.055424  0.500000  1
  Ir  Ir19  1  0.943522  0.554974  0.500000  1
  Rh  Rh20  1  0.091182  0.216693  0.500000  1
