# generated using pymatgen
data_KRb5Er2F12
_symmetry_space_group_name_H-M   'P 1'
_cell_length_a   6.81718383
_cell_length_b   6.58349738
_cell_length_c   11.41946086
_cell_angle_alpha   55.25388932
_cell_angle_beta   89.96389102
_cell_angle_gamma   90.16673334
_symmetry_Int_Tables_number   1
_chemical_formula_structural   KRb5Er2F12
_chemical_formula_sum   'K1 Rb5 Er2 F12'
_cell_volume   421.12346382
_cell_formula_units_Z   1
loop_
 _symmetry_equiv_pos_site_id
 _symmetry_equiv_pos_as_xyz
  1  'x, y, z'
loop_
 _atom_site_type_symbol
 _atom_site_label
 _atom_site_symmetry_multiplicity
 _atom_site_fract_x
 _atom_site_fract_y
 _atom_site_fract_z
 _atom_site_occupancy
  K  K0  1  0.000000  0.500000  0.500000  1
  Rb  Rb1  1  0.500000  0.500000  0.000000  1
  Rb  Rb2  1  0.048139  0.736630  0.750214  1
  Rb  Rb3  1  0.951861  0.263370  0.249786  1
  Rb  Rb4  1  0.549857  0.269409  0.744999  1
  Rb  Rb5  1  0.450143  0.730591  0.255001  1
  Er  Er6  1  0.500000  0.000000  0.500000  1
  Er  Er7  1  0.000000  0.000000  0.000000  1
  F  F8  1  0.760349  0.768094  0.559897  1
  F  F9  1  0.239651  0.231906  0.440103  1
  F  F10  1  0.263587  0.225525  0.937992  1
  F  F11  1  0.736413  0.774475  0.062008  1
  F  F12  1  0.452970  0.883208  0.717395  1
  F  F13  1  0.547030  0.116792  0.282605  1
  F  F14  1  0.954943  0.124260  0.779273  1
  F  F15  1  0.045057  0.875740  0.220727  1
  F  F16  1  0.319793  0.690902  0.542145  1
  F  F17  1  0.680207  0.309098  0.457855  1
  F  F18  1  0.829783  0.313775  0.955532  1
  F  F19  1  0.170217  0.686225  0.044468  1
