# generated using pymatgen
data_TmLu(Si2Rh3)2
_symmetry_space_group_name_H-M   'P 1'
_cell_length_a   6.59968685
_cell_length_b   6.59968720
_cell_length_c   6.59968628
_cell_angle_alpha   130.39932148
_cell_angle_beta   114.01444420
_cell_angle_gamma   86.84267846
_symmetry_Int_Tables_number   1
_chemical_formula_structural   TmLu(Si2Rh3)2
_chemical_formula_sum   'Tm1 Lu1 Si4 Rh6'
_cell_volume   190.75221076
_cell_formula_units_Z   1
loop_
 _symmetry_equiv_pos_site_id
 _symmetry_equiv_pos_as_xyz
  1  'x, y, z'
loop_
 _atom_site_type_symbol
 _atom_site_label
 _atom_site_symmetry_multiplicity
 _atom_site_fract_x
 _atom_site_fract_y
 _atom_site_fract_z
 _atom_site_occupancy
  Tm  Tm0  1  0.250000  0.952351  0.702351  1
  Lu  Lu1  1  0.750000  0.049668  0.299668  1
  Si  Si2  1  0.578688  0.385797  0.807110  1
  Si  Si3  1  0.921312  0.728422  0.807110  1
  Si  Si4  1  0.421519  0.614775  0.193257  1
  Si  Si5  1  0.078481  0.271737  0.193257  1
  Rh  Rh6  1  0.212740  0.498842  0.712609  1
  Rh  Rh7  1  0.786233  0.498842  0.286102  1
  Rh  Rh8  1  0.500516  0.499914  0.500430  1
  Rh  Rh9  1  0.999484  0.499914  0.999399  1
  Rh  Rh10  1  0.713767  0.999869  0.712609  1
  Rh  Rh11  1  0.287260  0.999869  0.286102  1
