# generated using pymatgen
data_Hf5ScAl3(GaPt2)3
_symmetry_space_group_name_H-M   'P 1'
_cell_length_a   7.15177612
_cell_length_b   7.16905978
_cell_length_c   7.09049879
_cell_angle_alpha   90.02103372
_cell_angle_beta   89.80760904
_cell_angle_gamma   119.47268680
_symmetry_Int_Tables_number   1
_chemical_formula_structural   Hf5ScAl3(GaPt2)3
_chemical_formula_sum   'Hf5 Sc1 Al3 Ga3 Pt6'
_cell_volume   316.49279025
_cell_formula_units_Z   1
loop_
 _symmetry_equiv_pos_site_id
 _symmetry_equiv_pos_as_xyz
  1  'x, y, z'
loop_
 _atom_site_type_symbol
 _atom_site_label
 _atom_site_symmetry_multiplicity
 _atom_site_fract_x
 _atom_site_fract_y
 _atom_site_fract_z
 _atom_site_occupancy
  Hf  Hf0  1  0.596481  0.981932  0.750361  1
  Hf  Hf1  1  0.390391  0.408421  0.750196  1
  Hf  Hf2  1  0.019428  0.612476  0.750124  1
  Hf  Hf3  1  0.978534  0.588727  0.250081  1
  Hf  Hf4  1  0.612293  0.021904  0.249274  1
  Sc  Sc5  1  0.411601  0.394084  0.249441  1
  Al  Al6  1  0.264085  0.004349  0.002373  1
  Al  Al7  1  0.263141  0.005271  0.497368  1
  Al  Al8  1  0.004395  0.261072  0.498246  1
  Ga  Ga9  1  0.004600  0.269930  0.002169  1
  Ga  Ga10  1  0.731181  0.728653  0.997569  1
  Ga  Ga11  1  0.731537  0.730193  0.502669  1
  Pt  Pt12  1  0.668763  0.326714  0.530701  1
  Pt  Pt13  1  0.006026  0.002758  0.751116  1
  Pt  Pt14  1  0.663048  0.327105  0.968199  1
  Pt  Pt15  1  0.331450  0.673580  0.025140  1
  Pt  Pt16  1  0.326185  0.667368  0.475816  1
  Pt  Pt17  1  0.996862  0.995463  0.249156  1
