# generated using pymatgen
data_BaHoLuSi3O10
_symmetry_space_group_name_H-M   'P 1'
_cell_length_a   12.30938700
_cell_length_b   5.42900688
_cell_length_c   6.86068309
_cell_angle_alpha   73.34494063
_cell_angle_beta   90.00000000
_cell_angle_gamma   90.00000000
_symmetry_Int_Tables_number   1
_chemical_formula_structural   BaHoLuSi3O10
_chemical_formula_sum   'Ba2 Ho2 Lu2 Si6 O20'
_cell_volume   439.24948563
_cell_formula_units_Z   2
loop_
 _symmetry_equiv_pos_site_id
 _symmetry_equiv_pos_as_xyz
  1  'x, y, z'
loop_
 _atom_site_type_symbol
 _atom_site_label
 _atom_site_symmetry_multiplicity
 _atom_site_fract_x
 _atom_site_fract_y
 _atom_site_fract_z
 _atom_site_occupancy
  Ba  Ba0  1  0.250430  0.239132  0.015014  1
  Ba  Ba1  1  0.750430  0.760868  0.984986  1
  Ho  Ho2  1  0.100155  0.848769  0.679137  1
  Ho  Ho3  1  0.600155  0.151231  0.320863  1
  Lu  Lu4  1  0.899161  0.153545  0.319723  1
  Lu  Lu5  1  0.399161  0.846455  0.680277  1
  Si  Si6  1  0.251286  0.425808  0.483137  1
  Si  Si7  1  0.751286  0.574192  0.516863  1
  Si  Si8  1  0.057187  0.695096  0.212583  1
  Si  Si9  1  0.557187  0.304904  0.787417  1
  Si  Si10  1  0.941756  0.302897  0.789741  1
  Si  Si11  1  0.441756  0.697103  0.210259  1
  O  O12  1  0.251838  0.641375  0.607098  1
  O  O13  1  0.751838  0.358625  0.392902  1
  O  O14  1  0.252472  0.129677  0.632014  1
  O  O15  1  0.752472  0.870323  0.367986  1
  O  O16  1  0.143549  0.458266  0.334361  1
  O  O17  1  0.643549  0.541734  0.665639  1
  O  O18  1  0.856478  0.543319  0.671378  1
  O  O19  1  0.356478  0.456681  0.328622  1
  O  O20  1  0.944087  0.550261  0.195289  1
  O  O21  1  0.444087  0.449739  0.804711  1
  O  O22  1  0.057017  0.440825  0.805337  1
  O  O23  1  0.557017  0.559175  0.194663  1
  O  O24  1  0.116601  0.844955  0.999188  1
  O  O25  1  0.616601  0.155045  0.000812  1
  O  O26  1  0.883481  0.153844  0.004957  1
  O  O27  1  0.383481  0.846156  0.995043  1
  O  O28  1  0.042923  0.895571  0.353111  1
  O  O29  1  0.542923  0.104429  0.646889  1
  O  O30  1  0.951579  0.107973  0.643457  1
  O  O31  1  0.451579  0.892027  0.356543  1
