# generated using pymatgen
data_Hf8TiSi16Mo11
_symmetry_space_group_name_H-M   'P 1'
_cell_length_a   6.57662793
_cell_length_b   6.75290044
_cell_length_c   12.65312200
_cell_angle_alpha   90.00000000
_cell_angle_beta   90.00000000
_cell_angle_gamma   90.15387761
_symmetry_Int_Tables_number   1
_chemical_formula_structural   Hf8TiSi16Mo11
_chemical_formula_sum   'Hf8 Ti1 Si16 Mo11'
_cell_volume   561.93974315
_cell_formula_units_Z   1
loop_
 _symmetry_equiv_pos_site_id
 _symmetry_equiv_pos_as_xyz
  1  'x, y, z'
loop_
 _atom_site_type_symbol
 _atom_site_label
 _atom_site_symmetry_multiplicity
 _atom_site_fract_x
 _atom_site_fract_y
 _atom_site_fract_z
 _atom_site_occupancy
  Hf  Hf0  1  0.994794  0.170366  0.091815  1
  Hf  Hf1  1  0.006001  0.828246  0.906510  1
  Hf  Hf2  1  0.500598  0.670349  0.906050  1
  Hf  Hf3  1  0.006001  0.828246  0.593490  1
  Hf  Hf4  1  0.494481  0.328279  0.092925  1
  Hf  Hf5  1  0.994794  0.170366  0.408185  1
  Hf  Hf6  1  0.494481  0.328279  0.407075  1
  Hf  Hf7  1  0.500598  0.670349  0.593950  1
  Ti  Ti8  1  0.163679  0.501328  0.750000  1
  Si  Si9  1  0.033176  0.119197  0.750000  1
  Si  Si10  1  0.966459  0.878467  0.250000  1
  Si  Si11  1  0.467922  0.623510  0.250000  1
  Si  Si12  1  0.537192  0.376185  0.750000  1
  Si  Si13  1  0.299216  0.860089  0.750000  1
  Si  Si14  1  0.700471  0.138542  0.250000  1
  Si  Si15  1  0.198096  0.361773  0.250000  1
  Si  Si16  1  0.798875  0.640001  0.750000  1
  Si  Si17  1  0.167852  0.460276  0.540496  1
  Si  Si18  1  0.832475  0.541248  0.456940  1
  Si  Si19  1  0.332504  0.959403  0.457113  1
  Si  Si20  1  0.832475  0.541248  0.043060  1
  Si  Si21  1  0.668877  0.040621  0.543728  1
  Si  Si22  1  0.167852  0.460276  0.959504  1
  Si  Si23  1  0.668877  0.040621  0.956272  1
  Si  Si24  1  0.332504  0.959403  0.042887  1
  Mo  Mo25  1  0.830467  0.487544  0.250000  1
  Mo  Mo26  1  0.331414  0.015535  0.250000  1
  Mo  Mo27  1  0.666329  0.990190  0.750000  1
  Mo  Mo28  1  0.332298  0.167759  0.622771  1
  Mo  Mo29  1  0.668724  0.836046  0.377066  1
  Mo  Mo30  1  0.168360  0.663788  0.374872  1
  Mo  Mo31  1  0.668724  0.836046  0.122934  1
  Mo  Mo32  1  0.836387  0.337438  0.623106  1
  Mo  Mo33  1  0.332298  0.167759  0.877229  1
  Mo  Mo34  1  0.836387  0.337438  0.876894  1
  Mo  Mo35  1  0.168360  0.663788  0.125128  1
