# generated using pymatgen
data_TbPr2Y3OsI10
_symmetry_space_group_name_H-M   'P 1'
_cell_length_a   7.85200207
_cell_length_b   9.91575862
_cell_length_c   9.85965411
_cell_angle_alpha   106.59820164
_cell_angle_beta   96.03503254
_cell_angle_gamma   105.06336745
_symmetry_Int_Tables_number   1
_chemical_formula_structural   TbPr2Y3OsI10
_chemical_formula_sum   'Tb1 Pr2 Y3 Os1 I10'
_cell_volume   696.91966662
_cell_formula_units_Z   1
loop_
 _symmetry_equiv_pos_site_id
 _symmetry_equiv_pos_as_xyz
  1  'x, y, z'
loop_
 _atom_site_type_symbol
 _atom_site_label
 _atom_site_symmetry_multiplicity
 _atom_site_fract_x
 _atom_site_fract_y
 _atom_site_fract_z
 _atom_site_occupancy
  Tb  Tb0  1  0.969142  0.288272  0.086481  1
  Pr  Pr1  1  0.114949  0.043570  0.767308  1
  Pr  Pr2  1  0.885134  0.956341  0.232636  1
  Y  Y3  1  0.030596  0.711370  0.913521  1
  Y  Y4  1  0.351617  0.126239  0.167380  1
  Y  Y5  1  0.648442  0.873681  0.832613  1
  Os  Os6  1  0.000113  0.000061  0.000002  1
  I  I7  1  0.346542  0.445919  0.269339  1
  I  I8  1  0.653779  0.554159  0.730769  1
  I  I9  1  0.264726  0.088523  0.454601  1
  I  I10  1  0.735270  0.911459  0.545409  1
  I  I11  1  0.084671  0.377385  0.824235  1
  I  I12  1  0.915437  0.623145  0.175469  1
  I  I13  1  0.450732  0.817944  0.088923  1
  I  I14  1  0.549138  0.181983  0.911017  1
  I  I15  1  0.776439  0.260064  0.342417  1
  I  I16  1  0.223274  0.739884  0.657880  1
