# generated using pymatgen
data_ErInAg2(BrO3)8
_symmetry_space_group_name_H-M   'P 1'
_cell_length_a   5.22609574
_cell_length_b   7.29932324
_cell_length_c   16.53834468
_cell_angle_alpha   78.78245517
_cell_angle_beta   89.74950876
_cell_angle_gamma   90.68278664
_symmetry_Int_Tables_number   1
_chemical_formula_structural   ErInAg2(BrO3)8
_chemical_formula_sum   'Er1 In1 Ag2 Br8 O24'
_cell_volume   618.77656355
_cell_formula_units_Z   1
loop_
 _symmetry_equiv_pos_site_id
 _symmetry_equiv_pos_as_xyz
  1  'x, y, z'
loop_
 _atom_site_type_symbol
 _atom_site_label
 _atom_site_symmetry_multiplicity
 _atom_site_fract_x
 _atom_site_fract_y
 _atom_site_fract_z
 _atom_site_occupancy
  Er  Er0  1  0.500000  0.000000  0.000000  1
  In  In1  1  0.000000  0.000000  0.500000  1
  Ag  Ag2  1  0.500000  0.500000  0.000000  1
  Ag  Ag3  1  0.000000  0.500000  0.500000  1
  Br  Br4  1  0.830806  0.663339  0.166464  1
  Br  Br5  1  0.327969  0.327895  0.337326  1
  Br  Br6  1  0.169194  0.336661  0.833536  1
  Br  Br7  1  0.672031  0.672105  0.662674  1
  Br  Br8  1  0.005274  0.182809  0.125571  1
  Br  Br9  1  0.505101  0.821995  0.379087  1
  Br  Br10  1  0.994726  0.817191  0.874429  1
  Br  Br11  1  0.494899  0.178005  0.620913  1
  O  O12  1  0.654193  0.737319  0.073619  1
  O  O13  1  0.147483  0.262331  0.432608  1
  O  O14  1  0.345807  0.262681  0.926381  1
  O  O15  1  0.852517  0.737669  0.567392  1
  O  O16  1  0.752692  0.823163  0.221060  1
  O  O17  1  0.244989  0.164872  0.284457  1
  O  O18  1  0.247308  0.176837  0.778940  1
  O  O19  1  0.755011  0.835128  0.715543  1
  O  O20  1  0.690287  0.460182  0.204520  1
  O  O21  1  0.190616  0.528308  0.298896  1
  O  O22  1  0.309713  0.539818  0.795480  1
  O  O23  1  0.809384  0.471692  0.701104  1
  O  O24  1  0.758413  0.189430  0.055826  1
  O  O25  1  0.255539  0.805096  0.450431  1
  O  O26  1  0.241587  0.810570  0.944174  1
  O  O27  1  0.744461  0.194904  0.549569  1
  O  O28  1  0.201872  0.018172  0.099423  1
  O  O29  1  0.705965  0.993323  0.401466  1
  O  O30  1  0.798128  0.981828  0.900577  1
  O  O31  1  0.294035  0.006677  0.598534  1
  O  O32  1  0.151592  0.386918  0.094442  1
  O  O33  1  0.647763  0.619126  0.408964  1
  O  O34  1  0.848408  0.613082  0.905558  1
  O  O35  1  0.352237  0.380874  0.591036  1
