# generated using pymatgen
data_Ca9Pd5Pt
_symmetry_space_group_name_H-M   'P 1'
_cell_length_a   7.67464237
_cell_length_b   7.69822902
_cell_length_c   7.68366210
_cell_angle_alpha   71.39207315
_cell_angle_beta   71.41036838
_cell_angle_gamma   71.27025397
_symmetry_Int_Tables_number   1
_chemical_formula_structural   Ca9Pd5Pt
_chemical_formula_sum   'Ca9 Pd5 Pt1'
_cell_volume   395.43357741
_cell_formula_units_Z   1
loop_
 _symmetry_equiv_pos_site_id
 _symmetry_equiv_pos_as_xyz
  1  'x, y, z'
loop_
 _atom_site_type_symbol
 _atom_site_label
 _atom_site_symmetry_multiplicity
 _atom_site_fract_x
 _atom_site_fract_y
 _atom_site_fract_z
 _atom_site_occupancy
  Ca  Ca0  1  0.001387  0.997121  0.999490  1
  Ca  Ca1  1  0.395445  0.665802  0.153768  1
  Ca  Ca2  1  0.201836  0.203362  0.200855  1
  Ca  Ca3  1  0.846856  0.602229  0.330205  1
  Ca  Ca4  1  0.666334  0.155388  0.398211  1
  Ca  Ca5  1  0.332269  0.841191  0.605456  1
  Ca  Ca6  1  0.156468  0.398873  0.669077  1
  Ca  Ca7  1  0.800861  0.797105  0.799276  1
  Ca  Ca8  1  0.598490  0.335702  0.844931  1
  Pd  Pd9  1  0.840833  0.412061  0.045370  1
  Pd  Pd10  1  0.586509  0.954685  0.158263  1
  Pd  Pd11  1  0.044614  0.842993  0.412930  1
  Pd  Pd12  1  0.954398  0.159651  0.586343  1
  Pd  Pd13  1  0.414657  0.045377  0.841102  1
  Pt  Pt14  1  0.159042  0.588459  0.954724  1
