# generated using pymatgen
data_Ce3Cd2Pb3
_symmetry_space_group_name_H-M   'P 1'
_cell_length_a   6.72706400
_cell_length_b   6.72706425
_cell_length_c   10.58277000
_cell_angle_alpha   90.00000000
_cell_angle_beta   90.00000000
_cell_angle_gamma   103.44047132
_symmetry_Int_Tables_number   1
_chemical_formula_structural   Ce3Cd2Pb3
_chemical_formula_sum   'Ce6 Cd4 Pb6'
_cell_volume   465.78992302
_cell_formula_units_Z   2
loop_
 _symmetry_equiv_pos_site_id
 _symmetry_equiv_pos_as_xyz
  1  'x, y, z'
loop_
 _atom_site_type_symbol
 _atom_site_label
 _atom_site_symmetry_multiplicity
 _atom_site_fract_x
 _atom_site_fract_y
 _atom_site_fract_z
 _atom_site_occupancy
  Ce  Ce0  1  0.613378  0.613378  0.250000  1
  Ce  Ce1  1  0.386622  0.386622  0.750000  1
  Ce  Ce2  1  0.204720  0.795280  0.500000  1
  Ce  Ce3  1  0.204720  0.795280  0.000000  1
  Ce  Ce4  1  0.795280  0.204720  0.500000  1
  Ce  Ce5  1  0.795280  0.204720  0.000000  1
  Cd  Cd6  1  0.312047  0.312047  0.042906  1
  Cd  Cd7  1  0.687953  0.687953  0.957094  1
  Cd  Cd8  1  0.312047  0.312047  0.457094  1
  Cd  Cd9  1  0.687953  0.687953  0.542906  1
  Pb  Pb10  1  0.004337  0.004336  0.250000  1
  Pb  Pb11  1  0.995664  0.995663  0.750000  1
  Pb  Pb12  1  0.496939  0.061069  0.250000  1
  Pb  Pb13  1  0.938931  0.503061  0.750000  1
  Pb  Pb14  1  0.503061  0.938931  0.750000  1
  Pb  Pb15  1  0.061069  0.496939  0.250000  1
