# generated using pymatgen
data_NdY15Cd4TcNi3
_symmetry_space_group_name_H-M   'P 1'
_cell_length_a   9.68780931
_cell_length_b   9.68781009
_cell_length_c   9.68780962
_cell_angle_alpha   59.15029575
_cell_angle_beta   59.15029531
_cell_angle_gamma   59.15028465
_symmetry_Int_Tables_number   1
_chemical_formula_structural   NdY15Cd4TcNi3
_chemical_formula_sum   'Nd1 Y15 Cd4 Tc1 Ni3'
_cell_volume   630.47681885
_cell_formula_units_Z   1
loop_
 _symmetry_equiv_pos_site_id
 _symmetry_equiv_pos_as_xyz
  1  'x, y, z'
loop_
 _atom_site_type_symbol
 _atom_site_label
 _atom_site_symmetry_multiplicity
 _atom_site_fract_x
 _atom_site_fract_y
 _atom_site_fract_z
 _atom_site_occupancy
  Nd  Nd0  1  0.597701  0.597701  0.597701  1
  Y  Y1  1  0.601870  0.601870  0.201702  1
  Y  Y2  1  0.601870  0.201702  0.601870  1
  Y  Y3  1  0.201702  0.601870  0.601870  1
  Y  Y4  1  0.062686  0.437242  0.437242  1
  Y  Y5  1  0.437901  0.060611  0.060611  1
  Y  Y6  1  0.437242  0.062686  0.437242  1
  Y  Y7  1  0.060611  0.437901  0.060611  1
  Y  Y8  1  0.437242  0.437242  0.062686  1
  Y  Y9  1  0.060611  0.060611  0.437901  1
  Y  Y10  1  0.185907  0.815641  0.815641  1
  Y  Y11  1  0.805773  0.189155  0.189155  1
  Y  Y12  1  0.815641  0.185907  0.815641  1
  Y  Y13  1  0.189155  0.805773  0.189155  1
  Y  Y14  1  0.815641  0.815641  0.185907  1
  Y  Y15  1  0.189155  0.189155  0.805773  1
  Cd  Cd16  1  0.829577  0.829577  0.829577  1
  Cd  Cd17  1  0.830481  0.830481  0.505544  1
  Cd  Cd18  1  0.830481  0.505544  0.830481  1
  Cd  Cd19  1  0.505544  0.830481  0.830481  1
  Tc  Tc20  1  0.394300  0.394300  0.394300  1
  Ni  Ni21  1  0.391113  0.391113  0.826681  1
  Ni  Ni22  1  0.391113  0.826681  0.391113  1
  Ni  Ni23  1  0.826681  0.391113  0.391113  1
