# generated using pymatgen
data_Sm2DyEr17Pt16
_symmetry_space_group_name_H-M   'P 1'
_cell_length_a   7.43727600
_cell_length_b   7.51548452
_cell_length_c   14.69496800
_cell_angle_alpha   90.03856066
_cell_angle_beta   89.94057237
_cell_angle_gamma   89.97325796
_symmetry_Int_Tables_number   1
_chemical_formula_structural   Sm2DyEr17Pt16
_chemical_formula_sum   'Sm2 Dy1 Er17 Pt16'
_cell_volume   821.37059047
_cell_formula_units_Z   1
loop_
 _symmetry_equiv_pos_site_id
 _symmetry_equiv_pos_as_xyz
  1  'x, y, z'
loop_
 _atom_site_type_symbol
 _atom_site_label
 _atom_site_symmetry_multiplicity
 _atom_site_fract_x
 _atom_site_fract_y
 _atom_site_fract_z
 _atom_site_occupancy
  Sm  Sm0  1  0.501076  0.677184  0.408608  1
  Sm  Sm1  1  0.001158  0.822855  0.091712  1
  Dy  Dy2  1  0.499701  0.321197  0.907167  1
  Er  Er3  1  0.682483  0.988929  0.250155  1
  Er  Er4  1  0.182451  0.511177  0.250215  1
  Er  Er5  1  0.817082  0.489364  0.749663  1
  Er  Er6  1  0.317127  0.010486  0.749965  1
  Er  Er7  1  0.656838  0.833610  0.623194  1
  Er  Er8  1  0.155900  0.666421  0.876533  1
  Er  Er9  1  0.846875  0.331797  0.377918  1
  Er  Er10  1  0.346545  0.168008  0.122488  1
  Er  Er11  1  0.345996  0.167673  0.378553  1
  Er  Er12  1  0.846293  0.332085  0.121643  1
  Er  Er13  1  0.153547  0.668775  0.621936  1
  Er  Er14  1  0.653533  0.831293  0.877906  1
  Er  Er15  1  0.999660  0.822772  0.406630  1
  Er  Er16  1  0.499664  0.677807  0.093957  1
  Er  Er17  1  0.500002  0.318151  0.594494  1
  Er  Er18  1  0.999881  0.181549  0.905386  1
  Er  Er19  1  0.999906  0.179150  0.592978  1
  Pt  Pt20  1  0.819079  0.641981  0.251198  1
  Pt  Pt21  1  0.319654  0.857758  0.249145  1
  Pt  Pt22  1  0.680382  0.143627  0.749762  1
  Pt  Pt23  1  0.179544  0.356315  0.748769  1
  Pt  Pt24  1  0.548515  0.383337  0.249188  1
  Pt  Pt25  1  0.048748  0.116405  0.250874  1
  Pt  Pt26  1  0.951540  0.886964  0.750254  1
  Pt  Pt27  1  0.451144  0.613631  0.748884  1
  Pt  Pt28  1  0.814880  0.529104  0.543993  1
  Pt  Pt29  1  0.314090  0.969389  0.956385  1
  Pt  Pt30  1  0.687422  0.036863  0.460928  1
  Pt  Pt31  1  0.187594  0.464030  0.039420  1
  Pt  Pt32  1  0.180037  0.463914  0.459716  1
  Pt  Pt33  1  0.680388  0.035585  0.040501  1
  Pt  Pt34  1  0.314702  0.970461  0.543026  1
  Pt  Pt35  1  0.816561  0.530351  0.956851  1
