# generated using pymatgen
data_K2CuNiO4
_symmetry_space_group_name_H-M   'P 1'
_cell_length_a   6.25959165
_cell_length_b   6.25959107
_cell_length_c   5.50404000
_cell_angle_alpha   90.00000000
_cell_angle_beta   90.00000000
_cell_angle_gamma   138.26407014
_symmetry_Int_Tables_number   1
_chemical_formula_structural   K2CuNiO4
_chemical_formula_sum   'K2 Cu1 Ni1 O4'
_cell_volume   143.56582914
_cell_formula_units_Z   1
loop_
 _symmetry_equiv_pos_site_id
 _symmetry_equiv_pos_as_xyz
  1  'x, y, z'
loop_
 _atom_site_type_symbol
 _atom_site_label
 _atom_site_symmetry_multiplicity
 _atom_site_fract_x
 _atom_site_fract_y
 _atom_site_fract_z
 _atom_site_occupancy
  K  K0  1  0.698234  0.301766  0.250000  1
  K  K1  1  0.301451  0.698549  0.750000  1
  Cu  Cu2  1  0.997685  0.002315  0.250000  1
  Ni  Ni3  1  0.002431  0.997569  0.750000  1
  O  O4  1  0.104660  0.895340  0.496469  1
  O  O5  1  0.895440  0.104560  0.505510  1
  O  O6  1  0.104660  0.895340  0.003531  1
  O  O7  1  0.895440  0.104560  0.994490  1
