# generated using pymatgen
data_Ca8TbYbIr4
_symmetry_space_group_name_H-M   'P 1'
_cell_length_a   6.47721353
_cell_length_b   7.54819690
_cell_length_c   8.56774000
_cell_angle_alpha   97.39230338
_cell_angle_beta   112.20986525
_cell_angle_gamma   90.00000136
_symmetry_Int_Tables_number   1
_chemical_formula_structural   Ca8TbYbIr4
_chemical_formula_sum   'Ca8 Tb1 Yb1 Ir4'
_cell_volume   384.04538276
_cell_formula_units_Z   1
loop_
 _symmetry_equiv_pos_site_id
 _symmetry_equiv_pos_as_xyz
  1  'x, y, z'
loop_
 _atom_site_type_symbol
 _atom_site_label
 _atom_site_symmetry_multiplicity
 _atom_site_fract_x
 _atom_site_fract_y
 _atom_site_fract_z
 _atom_site_occupancy
  Ca  Ca0  1  0.967799  0.919867  0.172208  1
  Ca  Ca1  1  0.795590  0.580133  0.827792  1
  Ca  Ca2  1  0.026798  0.079593  0.825459  1
  Ca  Ca3  1  0.201340  0.420407  0.174541  1
  Ca  Ca4  1  0.637486  0.822287  0.434529  1
  Ca  Ca5  1  0.202958  0.677713  0.565471  1
  Ca  Ca6  1  0.361212  0.177898  0.561666  1
  Ca  Ca7  1  0.799547  0.322102  0.438334  1
  Tb  Tb8  1  0.568150  0.250000  0.000000  1
  Yb  Yb9  1  0.427437  0.750000  0.000000  1
  Ir  Ir10  1  0.813471  0.572194  0.211912  1
  Ir  Ir11  1  0.601557  0.927806  0.788088  1
  Ir  Ir12  1  0.191902  0.417956  0.787148  1
  Ir  Ir13  1  0.404754  0.082044  0.212852  1
