# generated using pymatgen
data_Dy3Tm2Lu(AlAu)6
_symmetry_space_group_name_H-M   'P 1'
_cell_length_a   7.34311400
_cell_length_b   7.34138250
_cell_length_c   7.91429900
_cell_angle_alpha   90.00000000
_cell_angle_beta   90.00000000
_cell_angle_gamma   119.97537142
_symmetry_Int_Tables_number   1
_chemical_formula_structural   Dy3Tm2Lu(AlAu)6
_chemical_formula_sum   'Dy3 Tm2 Lu1 Al6 Au6'
_cell_volume   369.58040340
_cell_formula_units_Z   1
loop_
 _symmetry_equiv_pos_site_id
 _symmetry_equiv_pos_as_xyz
  1  'x, y, z'
loop_
 _atom_site_type_symbol
 _atom_site_label
 _atom_site_symmetry_multiplicity
 _atom_site_fract_x
 _atom_site_fract_y
 _atom_site_fract_z
 _atom_site_occupancy
  Dy  Dy0  1  0.585290  0.998524  0.750000  1
  Dy  Dy1  1  0.001758  0.586972  0.750000  1
  Dy  Dy2  1  0.413284  0.414972  0.750000  1
  Tm  Tm3  1  0.998342  0.588866  0.250000  1
  Tm  Tm4  1  0.590675  0.001997  0.250000  1
  Lu  Lu5  1  0.410097  0.407965  0.250000  1
  Al  Al6  1  0.751806  0.752055  0.003354  1
  Al  Al7  1  0.248071  0.000081  0.001964  1
  Al  Al8  1  0.000425  0.248261  0.001980  1
  Al  Al9  1  0.751806  0.752055  0.496646  1
  Al  Al10  1  0.248071  0.000081  0.498036  1
  Al  Al11  1  0.000425  0.248261  0.498020  1
  Au  Au12  1  0.999176  0.999168  0.750000  1
  Au  Au13  1  0.001500  0.001482  0.250000  1
  Au  Au14  1  0.665704  0.333953  0.005848  1
  Au  Au15  1  0.665704  0.333953  0.494152  1
  Au  Au16  1  0.333934  0.665678  0.489784  1
  Au  Au17  1  0.333934  0.665678  0.010216  1
