# generated using pymatgen
data_Ca12Np3Ga12Sn5O48
_symmetry_space_group_name_H-M   'P 1'
_cell_length_a   11.12701467
_cell_length_b   11.10864948
_cell_length_c   11.10864990
_cell_angle_alpha   109.43770960
_cell_angle_beta   109.50471574
_cell_angle_gamma   109.50471160
_symmetry_Int_Tables_number   1
_chemical_formula_structural   Ca12Np3Ga12Sn5O48
_chemical_formula_sum   'Ca12 Np3 Ga12 Sn5 O48'
_cell_volume   1056.57326152
_cell_formula_units_Z   1
loop_
 _symmetry_equiv_pos_site_id
 _symmetry_equiv_pos_as_xyz
  1  'x, y, z'
loop_
 _atom_site_type_symbol
 _atom_site_label
 _atom_site_symmetry_multiplicity
 _atom_site_fract_x
 _atom_site_fract_y
 _atom_site_fract_z
 _atom_site_occupancy
  Ca  Ca0  1  0.243812  0.373191  0.117848  1
  Ca  Ca1  1  0.756188  0.626809  0.882152  1
  Ca  Ca2  1  0.749460  0.128294  0.377659  1
  Ca  Ca3  1  0.121166  0.249365  0.371706  1
  Ca  Ca4  1  0.370622  0.744658  0.126809  1
  Ca  Ca5  1  0.250540  0.871706  0.622341  1
  Ca  Ca6  1  0.878834  0.750635  0.628294  1
  Ca  Ca7  1  0.629378  0.255342  0.873191  1
  Ca  Ca8  1  0.371801  0.122341  0.250635  1
  Ca  Ca9  1  0.628199  0.877659  0.749365  1
  Ca  Ca10  1  0.125964  0.382152  0.755342  1
  Ca  Ca11  1  0.874036  0.617848  0.244658  1
  Np  Np12  1  0.500000  0.000000  0.000000  1
  Np  Np13  1  0.500000  0.500000  0.500000  1
  Np  Np14  1  0.000000  0.000000  0.500000  1
  Ga  Ga15  1  0.246060  0.628677  0.372129  1
  Ga  Ga16  1  0.753940  0.371323  0.627871  1
  Ga  Ga17  1  0.749921  0.870736  0.119917  1
  Ga  Ga18  1  0.379185  0.249181  0.629264  1
  Ga  Ga19  1  0.620815  0.750819  0.370736  1
  Ga  Ga20  1  0.250079  0.129264  0.880083  1
  Ga  Ga21  1  0.117383  0.743452  0.871323  1
  Ga  Ga22  1  0.882617  0.256548  0.128677  1
  Ga  Ga23  1  0.630004  0.380083  0.250819  1
  Ga  Ga24  1  0.369996  0.619917  0.749181  1
  Ga  Ga25  1  0.873930  0.127871  0.756548  1
  Ga  Ga26  1  0.126070  0.872129  0.243452  1
  Sn  Sn27  1  0.000000  0.000000  0.000000  1
  Sn  Sn28  1  0.500000  0.000000  0.500000  1
  Sn  Sn29  1  0.000000  0.500000  0.500000  1
  Sn  Sn30  1  0.500000  0.500000  0.000000  1
  Sn  Sn31  1  0.000000  0.500000  0.000000  1
  O  O32  1  0.479648  0.377678  0.294831  1
  O  O33  1  0.520352  0.622322  0.705169  1
  O  O34  1  0.582602  0.185015  0.206565  1
  O  O35  1  0.917367  0.119924  0.601703  1
  O  O36  1  0.297443  0.481779  0.380076  1
  O  O37  1  0.319237  0.917668  0.294099  1
  O  O38  1  0.417398  0.814985  0.793435  1
  O  O39  1  0.082633  0.880076  0.398297  1
  O  O40  1  0.702557  0.518221  0.619924  1
  O  O41  1  0.680763  0.082332  0.705901  1
  O  O42  1  0.023238  0.319508  0.900000  1
  O  O43  1  0.203731  0.580493  0.180492  1
  O  O44  1  0.121406  0.022299  0.204611  1
  O  O45  1  0.976762  0.680492  0.100000  1
  O  O46  1  0.796269  0.419507  0.819508  1
  O  O47  1  0.878594  0.977701  0.795389  1
  O  O48  1  0.601971  0.917153  0.122322  1
  O  O49  1  0.180256  0.474313  0.597217  1
  O  O50  1  0.398029  0.082847  0.877678  1
  O  O51  1  0.819744  0.525687  0.402783  1
  O  O52  1  0.897587  0.021549  0.314985  1
  O  O53  1  0.378022  0.583594  0.902295  1
  O  O54  1  0.102413  0.978451  0.685015  1
  O  O55  1  0.621978  0.416406  0.097705  1
  O  O56  1  0.376038  0.293435  0.478451  1
  O  O57  1  0.583039  0.902783  0.377096  1
  O  O58  1  0.623962  0.706565  0.521549  1
  O  O59  1  0.416961  0.097217  0.622904  1
  O  O60  1  0.123238  0.600000  0.919507  1
  O  O61  1  0.025138  0.205901  0.123569  1
  O  O62  1  0.876762  0.400000  0.080493  1
  O  O63  1  0.974862  0.794099  0.876431  1
  O  O64  1  0.315665  0.898297  0.018221  1
  O  O65  1  0.916795  0.295389  0.317687  1
  O  O66  1  0.684335  0.101703  0.981779  1
  O  O67  1  0.083205  0.704611  0.682313  1
  O  O68  1  0.184817  0.205169  0.582847  1
  O  O69  1  0.475727  0.597705  0.181299  1
  O  O70  1  0.815183  0.794831  0.417153  1
  O  O71  1  0.524273  0.402295  0.818701  1
  O  O72  1  0.294428  0.318701  0.916406  1
  O  O73  1  0.705572  0.681299  0.083594  1
  O  O74  1  0.205943  0.122904  0.025687  1
  O  O75  1  0.794057  0.877096  0.974313  1
  O  O76  1  0.901570  0.376431  0.582332  1
  O  O77  1  0.098430  0.623569  0.417668  1
  O  O78  1  0.599108  0.182313  0.477701  1
  O  O79  1  0.400892  0.817687  0.522299  1
