# generated using pymatgen
data_Mg4Zn6CuRu
_symmetry_space_group_name_H-M   'P 1'
_cell_length_a   5.11678054
_cell_length_b   5.19779826
_cell_length_c   8.38218000
_cell_angle_alpha   90.00000000
_cell_angle_beta   90.00000000
_cell_angle_gamma   119.39713000
_symmetry_Int_Tables_number   1
_chemical_formula_structural   Mg4Zn6CuRu
_chemical_formula_sum   'Mg4 Zn6 Cu1 Ru1'
_cell_volume   194.22726765
_cell_formula_units_Z   1
loop_
 _symmetry_equiv_pos_site_id
 _symmetry_equiv_pos_as_xyz
  1  'x, y, z'
loop_
 _atom_site_type_symbol
 _atom_site_label
 _atom_site_symmetry_multiplicity
 _atom_site_fract_x
 _atom_site_fract_y
 _atom_site_fract_z
 _atom_site_occupancy
  Mg  Mg0  1  0.324354  0.650157  0.056468  1
  Mg  Mg1  1  0.669890  0.335981  0.573404  1
  Mg  Mg2  1  0.669890  0.335981  0.926596  1
  Mg  Mg3  1  0.324354  0.650157  0.443532  1
  Zn  Zn4  1  0.004680  0.019654  0.001040  1
  Zn  Zn5  1  0.004680  0.019654  0.498960  1
  Zn  Zn6  1  0.345988  0.161736  0.250000  1
  Zn  Zn7  1  0.660626  0.828686  0.750000  1
  Zn  Zn8  1  0.168831  0.830463  0.750000  1
  Zn  Zn9  1  0.831999  0.662792  0.250000  1
  Cu  Cu10  1  0.823116  0.163303  0.250000  1
  Ru  Ru11  1  0.171593  0.341437  0.750000  1
