# generated using pymatgen
data_K12Rb8Si4(As3P)3
_symmetry_space_group_name_H-M   'P 1'
_cell_length_a   5.34772600
_cell_length_b   14.72768116
_cell_length_c   15.79393316
_cell_angle_alpha   90.01667153
_cell_angle_beta   90.00000000
_cell_angle_gamma   90.00000000
_symmetry_Int_Tables_number   1
_chemical_formula_structural   K12Rb8Si4(As3P)3
_chemical_formula_sum   'K12 Rb8 Si4 As9 P3'
_cell_volume   1243.92386030
_cell_formula_units_Z   1
loop_
 _symmetry_equiv_pos_site_id
 _symmetry_equiv_pos_as_xyz
  1  'x, y, z'
loop_
 _atom_site_type_symbol
 _atom_site_label
 _atom_site_symmetry_multiplicity
 _atom_site_fract_x
 _atom_site_fract_y
 _atom_site_fract_z
 _atom_site_occupancy
  K  K0  1  0.250000  0.425905  0.567580  1
  K  K1  1  0.750000  0.572886  0.432940  1
  K  K2  1  0.750000  0.925828  0.932219  1
  K  K3  1  0.250000  0.074788  0.067346  1
  K  K4  1  0.250000  0.822346  0.082052  1
  K  K5  1  0.750000  0.177307  0.918440  1
  K  K6  1  0.750000  0.321774  0.418451  1
  K  K7  1  0.250000  0.678333  0.586890  1
  K  K8  1  0.250000  0.232635  0.258117  1
  K  K9  1  0.750000  0.767791  0.741743  1
  K  K10  1  0.750000  0.733046  0.239606  1
  K  K11  1  0.250000  0.266805  0.758491  1
  Rb  Rb12  1  0.250000  0.947252  0.302598  1
  Rb  Rb13  1  0.750000  0.056233  0.697158  1
  Rb  Rb14  1  0.750000  0.442298  0.195924  1
  Rb  Rb15  1  0.250000  0.555428  0.803920  1
  Rb  Rb16  1  0.250000  0.130646  0.515284  1
  Rb  Rb17  1  0.750000  0.868935  0.484681  1
  Rb  Rb18  1  0.750000  0.631061  0.983399  1
  Rb  Rb19  1  0.250000  0.368377  0.014620  1
  Si  Si20  1  0.250000  0.585819  0.287494  1
  Si  Si21  1  0.750000  0.410439  0.710552  1
  Si  Si22  1  0.750000  0.089591  0.209581  1
  Si  Si23  1  0.250000  0.911539  0.790379  1
  As  As24  1  0.250000  0.599358  0.139889  1
  As  As25  1  0.750000  0.399047  0.858340  1
  As  As26  1  0.750000  0.101782  0.357469  1
  As  As27  1  0.250000  0.899782  0.642756  1
  As  As28  1  0.250000  0.443265  0.350120  1
  As  As29  1  0.750000  0.554210  0.649946  1
  As  As30  1  0.750000  0.946201  0.147849  1
  As  As31  1  0.250000  0.055014  0.851727  1
  As  As32  1  0.250000  0.714051  0.374274  1
  P  P33  1  0.750000  0.289699  0.628736  1
  P  P34  1  0.750000  0.210607  0.128161  1
  P  P35  1  0.250000  0.789921  0.871269  1
