# generated using pymatgen
data_Y2Ho2ReOsC4
_symmetry_space_group_name_H-M   'P 1'
_cell_length_a   5.11007700
_cell_length_b   6.53333400
_cell_length_c   9.80479700
_cell_angle_alpha   90.00000000
_cell_angle_beta   90.00000000
_cell_angle_gamma   90.00000000
_symmetry_Int_Tables_number   1
_chemical_formula_structural   Y2Ho2ReOsC4
_chemical_formula_sum   'Y4 Ho4 Re2 Os2 C8'
_cell_volume   327.34138198
_cell_formula_units_Z   2
loop_
 _symmetry_equiv_pos_site_id
 _symmetry_equiv_pos_as_xyz
  1  'x, y, z'
loop_
 _atom_site_type_symbol
 _atom_site_label
 _atom_site_symmetry_multiplicity
 _atom_site_fract_x
 _atom_site_fract_y
 _atom_site_fract_z
 _atom_site_occupancy
  Y  Y0  1  0.250000  0.467362  0.784892  1
  Y  Y1  1  0.750000  0.032638  0.284892  1
  Y  Y2  1  0.250000  0.969130  0.714314  1
  Y  Y3  1  0.750000  0.530870  0.214314  1
  Ho  Ho4  1  0.250000  0.823499  0.055436  1
  Ho  Ho5  1  0.750000  0.676501  0.555436  1
  Ho  Ho6  1  0.250000  0.320480  0.443753  1
  Ho  Ho7  1  0.750000  0.179520  0.943753  1
  Re  Re8  1  0.250000  0.777764  0.365230  1
  Re  Re9  1  0.750000  0.722236  0.865230  1
  Os  Os10  1  0.250000  0.277532  0.134339  1
  Os  Os11  1  0.750000  0.222468  0.634339  1
  C  C12  1  0.250000  0.175196  0.949860  1
  C  C13  1  0.750000  0.824299  0.051053  1
  C  C14  1  0.250000  0.675701  0.551053  1
  C  C15  1  0.750000  0.324804  0.449860  1
  C  C16  1  0.250000  0.044807  0.259701  1
  C  C17  1  0.750000  0.455193  0.759701  1
  C  C18  1  0.250000  0.544105  0.241421  1
  C  C19  1  0.750000  0.955895  0.741421  1
