# generated using pymatgen
data_Tm3In3HgRh
_symmetry_space_group_name_H-M   'P 1'
_cell_length_a   7.80398600
_cell_length_b   7.80398589
_cell_length_c   3.63132800
_cell_angle_alpha   90.00000000
_cell_angle_beta   90.00000000
_cell_angle_gamma   120.00000047
_symmetry_Int_Tables_number   1
_chemical_formula_structural   Tm3In3HgRh
_chemical_formula_sum   'Tm3 In3 Hg1 Rh1'
_cell_volume   191.52658503
_cell_formula_units_Z   1
loop_
 _symmetry_equiv_pos_site_id
 _symmetry_equiv_pos_as_xyz
  1  'x, y, z'
loop_
 _atom_site_type_symbol
 _atom_site_label
 _atom_site_symmetry_multiplicity
 _atom_site_fract_x
 _atom_site_fract_y
 _atom_site_fract_z
 _atom_site_occupancy
  Tm  Tm0  1  0.568588  0.974362  0.500000  1
  Tm  Tm1  1  0.405775  0.431412  0.500000  1
  Tm  Tm2  1  0.025638  0.594226  0.500000  1
  In  In3  1  0.228862  0.995074  0.000000  1
  In  In4  1  0.004926  0.233786  0.000000  1
  In  In5  1  0.766213  0.771138  0.000000  1
  Hg  Hg6  1  0.666667  0.333334  0.000000  1
  Rh  Rh7  1  0.333334  0.666667  0.000000  1
