# generated using pymatgen
data_Pr2Dy3(Co2Sn5)2
_symmetry_space_group_name_H-M   'P 1'
_cell_length_a   13.86831500
_cell_length_b   13.86831500
_cell_length_c   4.50995900
_cell_angle_alpha   90.00000000
_cell_angle_beta   90.00000000
_cell_angle_gamma   90.00000000
_symmetry_Int_Tables_number   1
_chemical_formula_structural   Pr2Dy3(Co2Sn5)2
_chemical_formula_sum   'Pr4 Dy6 Co8 Sn20'
_cell_volume   867.40114030
_cell_formula_units_Z   2
loop_
 _symmetry_equiv_pos_site_id
 _symmetry_equiv_pos_as_xyz
  1  'x, y, z'
loop_
 _atom_site_type_symbol
 _atom_site_label
 _atom_site_symmetry_multiplicity
 _atom_site_fract_x
 _atom_site_fract_y
 _atom_site_fract_z
 _atom_site_occupancy
  Pr  Pr0  1  0.889859  0.389859  0.500000  1
  Pr  Pr1  1  0.110141  0.610141  0.500000  1
  Pr  Pr2  1  0.389859  0.110141  0.500000  1
  Pr  Pr3  1  0.610141  0.889859  0.500000  1
  Dy  Dy4  1  0.500000  0.500000  0.000000  1
  Dy  Dy5  1  0.000000  0.000000  0.000000  1
  Dy  Dy6  1  0.679514  0.179514  0.500000  1
  Dy  Dy7  1  0.320486  0.820486  0.500000  1
  Dy  Dy8  1  0.179514  0.320486  0.500000  1
  Dy  Dy9  1  0.820486  0.679514  0.500000  1
  Co  Co10  1  0.742938  0.534390  0.000000  1
  Co  Co11  1  0.257062  0.465610  0.000000  1
  Co  Co12  1  0.242938  0.965610  0.000000  1
  Co  Co13  1  0.757062  0.034390  0.000000  1
  Co  Co14  1  0.465610  0.742938  0.000000  1
  Co  Co15  1  0.534390  0.257062  0.000000  1
  Co  Co16  1  0.034390  0.242938  0.000000  1
  Co  Co17  1  0.965610  0.757062  0.000000  1
  Sn  Sn18  1  0.573429  0.073429  0.000000  1
  Sn  Sn19  1  0.426571  0.926571  0.000000  1
  Sn  Sn20  1  0.073429  0.426571  0.000000  1
  Sn  Sn21  1  0.926571  0.573429  0.000000  1
  Sn  Sn22  1  0.648784  0.698957  0.000000  1
  Sn  Sn23  1  0.351216  0.301043  0.000000  1
  Sn  Sn24  1  0.148784  0.801043  0.000000  1
  Sn  Sn25  1  0.851216  0.198957  0.000000  1
  Sn  Sn26  1  0.301043  0.648784  0.000000  1
  Sn  Sn27  1  0.698957  0.351216  0.000000  1
  Sn  Sn28  1  0.198957  0.148784  0.000000  1
  Sn  Sn29  1  0.801043  0.851216  0.000000  1
  Sn  Sn30  1  0.667142  0.510727  0.500000  1
  Sn  Sn31  1  0.332858  0.489273  0.500000  1
  Sn  Sn32  1  0.167142  0.989273  0.500000  1
  Sn  Sn33  1  0.832858  0.010727  0.500000  1
  Sn  Sn34  1  0.489273  0.667142  0.500000  1
  Sn  Sn35  1  0.510727  0.332858  0.500000  1
  Sn  Sn36  1  0.010727  0.167142  0.500000  1
  Sn  Sn37  1  0.989273  0.832858  0.500000  1
