# generated using pymatgen
data_Er3Al3ZnSiPd
_symmetry_space_group_name_H-M   'P 1'
_cell_length_a   6.89880400
_cell_length_b   6.89880492
_cell_length_c   4.24571100
_cell_angle_alpha   90.00000000
_cell_angle_beta   90.00000000
_cell_angle_gamma   120.00000520
_symmetry_Int_Tables_number   1
_chemical_formula_structural   Er3Al3ZnSiPd
_chemical_formula_sum   'Er3 Al3 Zn1 Si1 Pd1'
_cell_volume   174.99623643
_cell_formula_units_Z   1
loop_
 _symmetry_equiv_pos_site_id
 _symmetry_equiv_pos_as_xyz
  1  'x, y, z'
loop_
 _atom_site_type_symbol
 _atom_site_label
 _atom_site_symmetry_multiplicity
 _atom_site_fract_x
 _atom_site_fract_y
 _atom_site_fract_z
 _atom_site_occupancy
  Er  Er0  1  0.419081  0.998675  0.000000  1
  Er  Er1  1  0.001325  0.420405  0.000000  1
  Er  Er2  1  0.579594  0.580919  0.000000  1
  Al  Al3  1  0.762203  0.001496  0.500000  1
  Al  Al4  1  0.239292  0.237797  0.500000  1
  Al  Al5  1  0.998504  0.760707  0.500000  1
  Zn  Zn6  1  0.666666  0.333333  0.500000  1
  Si  Si7  1  0.333333  0.666666  0.500000  1
  Pd  Pd8  1  0.000000  0.000000  0.000000  1
