# generated using pymatgen
data_LiTm8InRh2
_symmetry_space_group_name_H-M   'P 1'
_cell_length_a   9.51772372
_cell_length_b   9.51772402
_cell_length_c   9.55577100
_cell_angle_alpha   59.86767934
_cell_angle_beta   59.86767827
_cell_angle_gamma   59.66132998
_symmetry_Int_Tables_number   1
_chemical_formula_structural   LiTm8InRh2
_chemical_formula_sum   'Li2 Tm16 In2 Rh4'
_cell_volume   609.29267102
_cell_formula_units_Z   2
loop_
 _symmetry_equiv_pos_site_id
 _symmetry_equiv_pos_as_xyz
  1  'x, y, z'
loop_
 _atom_site_type_symbol
 _atom_site_label
 _atom_site_symmetry_multiplicity
 _atom_site_fract_x
 _atom_site_fract_y
 _atom_site_fract_z
 _atom_site_occupancy
  Li  Li0  1  0.427228  0.427228  0.424404  1
  Li  Li1  1  0.427228  0.427228  0.721139  1
  Tm  Tm2  1  0.808211  0.808211  0.191789  1
  Tm  Tm3  1  0.811603  0.187903  0.811415  1
  Tm  Tm4  1  0.183412  0.183412  0.816588  1
  Tm  Tm5  1  0.653359  0.043248  0.651697  1
  Tm  Tm6  1  0.064700  0.064700  0.435300  1
  Tm  Tm7  1  0.437245  0.437245  0.062755  1
  Tm  Tm8  1  0.650533  0.650533  0.649493  1
  Tm  Tm9  1  0.811603  0.187903  0.189079  1
  Tm  Tm10  1  0.187903  0.811603  0.811415  1
  Tm  Tm11  1  0.043248  0.653359  0.651697  1
  Tm  Tm12  1  0.436188  0.064043  0.063228  1
  Tm  Tm13  1  0.436188  0.064043  0.436541  1
  Tm  Tm14  1  0.064043  0.436188  0.063228  1
  Tm  Tm15  1  0.650533  0.650533  0.049441  1
  Tm  Tm16  1  0.187903  0.811603  0.189079  1
  Tm  Tm17  1  0.064043  0.436188  0.436541  1
  In  In18  1  0.415358  0.744346  0.420148  1
  In  In19  1  0.744346  0.415358  0.420148  1
  Rh  Rh20  1  0.855232  0.427217  0.858776  1
  Rh  Rh21  1  0.856339  0.856339  0.860171  1
  Rh  Rh22  1  0.856339  0.856339  0.427152  1
  Rh  Rh23  1  0.427217  0.855232  0.858776  1
