# generated using pymatgen
data_La4Ga3Sn7Pd6
_symmetry_space_group_name_H-M   'P 1'
_cell_length_a   9.04022990
_cell_length_b   9.06005832
_cell_length_c   9.06103174
_cell_angle_alpha   138.03156545
_cell_angle_beta   106.39411093
_cell_angle_gamma   88.55442572
_symmetry_Int_Tables_number   1
_chemical_formula_structural   La4Ga3Sn7Pd6
_chemical_formula_sum   'La4 Ga3 Sn7 Pd6'
_cell_volume   455.96782057
_cell_formula_units_Z   1
loop_
 _symmetry_equiv_pos_site_id
 _symmetry_equiv_pos_as_xyz
  1  'x, y, z'
loop_
 _atom_site_type_symbol
 _atom_site_label
 _atom_site_symmetry_multiplicity
 _atom_site_fract_x
 _atom_site_fract_y
 _atom_site_fract_z
 _atom_site_occupancy
  La  La0  1  0.905501  0.136512  0.768961  1
  La  La1  1  0.099222  0.864688  0.234458  1
  La  La2  1  0.628183  0.360241  0.268043  1
  La  La3  1  0.367261  0.635439  0.731796  1
  Ga  Ga4  1  0.569660  0.909762  0.659770  1
  Ga  Ga5  1  0.250745  0.410058  0.840789  1
  Ga  Ga6  1  0.427280  0.090061  0.337226  1
  Sn  Sn7  1  0.750881  0.589726  0.161208  1
  Sn  Sn8  1  0.000083  0.248353  0.250960  1
  Sn  Sn9  1  0.999952  0.749017  0.751677  1
  Sn  Sn10  1  0.717707  0.976964  0.249910  1
  Sn  Sn11  1  0.283156  0.528535  0.249334  1
  Sn  Sn12  1  0.283207  0.033837  0.754659  1
  Sn  Sn13  1  0.717703  0.467761  0.740796  1
  Pd  Pd14  1  0.253642  0.138327  0.115079  1
  Pd  Pd15  1  0.977122  0.359958  0.617081  1
  Pd  Pd16  1  0.037322  0.641688  0.395811  1
  Pd  Pd17  1  0.744767  0.861251  0.883604  1
  Pd  Pd18  1  0.493297  0.238014  0.733493  1
  Pd  Pd19  1  0.493310  0.759808  0.255345  1
