# generated using pymatgen
data_Ac17Yb3Si15Ir
_symmetry_space_group_name_H-M   'P 1'
_cell_length_a   8.34173656
_cell_length_b   8.29678044
_cell_length_c   15.94679400
_cell_angle_alpha   90.06744191
_cell_angle_beta   89.86096632
_cell_angle_gamma   90.12500616
_symmetry_Int_Tables_number   1
_chemical_formula_structural   Ac17Yb3Si15Ir
_chemical_formula_sum   'Ac17 Yb3 Si15 Ir1'
_cell_volume   1103.66391037
_cell_formula_units_Z   1
loop_
 _symmetry_equiv_pos_site_id
 _symmetry_equiv_pos_as_xyz
  1  'x, y, z'
loop_
 _atom_site_type_symbol
 _atom_site_label
 _atom_site_symmetry_multiplicity
 _atom_site_fract_x
 _atom_site_fract_y
 _atom_site_fract_z
 _atom_site_occupancy
  Ac  Ac0  1  0.697089  0.688331  0.501721  1
  Ac  Ac1  1  0.377788  0.008636  0.445689  1
  Ac  Ac2  1  0.489007  0.882811  0.700341  1
  Ac  Ac3  1  0.509757  0.119788  0.195526  1
  Ac  Ac4  1  0.879460  0.487934  0.298338  1
  Ac  Ac5  1  0.121790  0.500206  0.799503  1
  Ac  Ac6  1  0.622220  0.990546  0.946071  1
  Ac  Ac7  1  0.003859  0.377060  0.558515  1
  Ac  Ac8  1  0.991085  0.622061  0.050291  1
  Ac  Ac9  1  0.126384  0.989538  0.872305  1
  Ac  Ac10  1  0.516324  0.625992  0.126278  1
  Ac  Ac11  1  0.468393  0.363376  0.632296  1
  Ac  Ac12  1  0.624958  0.514002  0.873316  1
  Ac  Ac13  1  0.374565  0.480281  0.372445  1
  Ac  Ac14  1  0.878457  0.022870  0.377278  1
  Ac  Ac15  1  0.983811  0.120095  0.121584  1
  Ac  Ac16  1  0.030791  0.891837  0.627241  1
  Yb  Yb17  1  0.310415  0.308040  0.998690  1
  Yb  Yb18  1  0.188100  0.810650  0.250009  1
  Yb  Yb19  1  0.816483  0.192152  0.748276  1
  Si  Si20  1  0.330353  0.698392  0.953036  1
  Si  Si21  1  0.666051  0.299945  0.457347  1
  Si  Si22  1  0.703438  0.332399  0.046939  1
  Si  Si23  1  0.301938  0.671629  0.544101  1
  Si  Si24  1  0.801075  0.830140  0.205985  1
  Si  Si25  1  0.170065  0.198992  0.291027  1
  Si  Si26  1  0.831314  0.797672  0.795248  1
  Si  Si27  1  0.286794  0.914206  0.057988  1
  Si  Si28  1  0.583301  0.789760  0.309387  1
  Si  Si29  1  0.421912  0.205505  0.814888  1
  Si  Si30  1  0.785721  0.584712  0.691001  1
  Si  Si31  1  0.211873  0.416779  0.187385  1
  Si  Si32  1  0.703113  0.078671  0.560561  1
  Si  Si33  1  0.915734  0.288347  0.941427  1
  Si  Si34  1  0.085165  0.715455  0.440302  1
  Ir  Ir35  1  0.191410  0.181187  0.707664  1
