# generated using pymatgen
data_Hf12TiAl4Rh7
_symmetry_space_group_name_H-M   'P 1'
_cell_length_a   8.53844710
_cell_length_b   8.53844656
_cell_length_c   8.53844708
_cell_angle_alpha   59.67283134
_cell_angle_beta   59.67283373
_cell_angle_gamma   59.67283482
_symmetry_Int_Tables_number   1
_chemical_formula_structural   Hf12TiAl4Rh7
_chemical_formula_sum   'Hf12 Ti1 Al4 Rh7'
_cell_volume   436.89952193
_cell_formula_units_Z   1
loop_
 _symmetry_equiv_pos_site_id
 _symmetry_equiv_pos_as_xyz
  1  'x, y, z'
loop_
 _atom_site_type_symbol
 _atom_site_label
 _atom_site_symmetry_multiplicity
 _atom_site_fract_x
 _atom_site_fract_y
 _atom_site_fract_z
 _atom_site_occupancy
  Hf  Hf0  1  0.807734  0.807734  0.185047  1
  Hf  Hf1  1  0.192721  0.192721  0.807492  1
  Hf  Hf2  1  0.807734  0.185047  0.807734  1
  Hf  Hf3  1  0.192721  0.807492  0.192721  1
  Hf  Hf4  1  0.185047  0.807734  0.807734  1
  Hf  Hf5  1  0.807492  0.192721  0.192721  1
  Hf  Hf6  1  0.445754  0.445754  0.054294  1
  Hf  Hf7  1  0.058792  0.058792  0.444131  1
  Hf  Hf8  1  0.445754  0.054294  0.445754  1
  Hf  Hf9  1  0.058792  0.444131  0.058792  1
  Hf  Hf10  1  0.054294  0.445754  0.445754  1
  Hf  Hf11  1  0.444131  0.058792  0.058792  1
  Ti  Ti12  1  0.829038  0.829038  0.829038  1
  Al  Al13  1  0.138065  0.618682  0.618682  1
  Al  Al14  1  0.618682  0.138065  0.618682  1
  Al  Al15  1  0.618682  0.618682  0.138065  1
  Al  Al16  1  0.626811  0.626811  0.626811  1
  Rh  Rh17  1  0.770916  0.412100  0.412100  1
  Rh  Rh18  1  0.412100  0.770916  0.412100  1
  Rh  Rh19  1  0.412100  0.412100  0.770916  1
  Rh  Rh20  1  0.409341  0.409341  0.409341  1
  Rh  Rh21  1  0.480787  0.841257  0.841257  1
  Rh  Rh22  1  0.841257  0.480787  0.841257  1
  Rh  Rh23  1  0.841257  0.841257  0.480787  1
