# generated using pymatgen
data_Hf20Ni4As5P7
_symmetry_space_group_name_H-M   'P 1'
_cell_length_a   3.63673100
_cell_length_b   10.25133230
_cell_length_c   17.27989051
_cell_angle_alpha   90.02772744
_cell_angle_beta   90.00000000
_cell_angle_gamma   90.00000000
_symmetry_Int_Tables_number   1
_chemical_formula_structural   Hf20Ni4As5P7
_chemical_formula_sum   'Hf20 Ni4 As5 P7'
_cell_volume   644.21736255
_cell_formula_units_Z   1
loop_
 _symmetry_equiv_pos_site_id
 _symmetry_equiv_pos_as_xyz
  1  'x, y, z'
loop_
 _atom_site_type_symbol
 _atom_site_label
 _atom_site_symmetry_multiplicity
 _atom_site_fract_x
 _atom_site_fract_y
 _atom_site_fract_z
 _atom_site_occupancy
  Hf  Hf0  1  0.250000  0.121247  0.475182  1
  Hf  Hf1  1  0.750000  0.877184  0.519560  1
  Hf  Hf2  1  0.750000  0.620210  0.023257  1
  Hf  Hf3  1  0.250000  0.380140  0.977316  1
  Hf  Hf4  1  0.250000  0.062815  0.076132  1
  Hf  Hf5  1  0.750000  0.936603  0.924549  1
  Hf  Hf6  1  0.750000  0.562539  0.423204  1
  Hf  Hf7  1  0.250000  0.436993  0.576373  1
  Hf  Hf8  1  0.250000  0.485463  0.270126  1
  Hf  Hf9  1  0.750000  0.513940  0.729656  1
  Hf  Hf10  1  0.750000  0.985600  0.228823  1
  Hf  Hf11  1  0.250000  0.013922  0.774806  1
  Hf  Hf12  1  0.250000  0.819886  0.371415  1
  Hf  Hf13  1  0.750000  0.187061  0.627795  1
  Hf  Hf14  1  0.750000  0.320213  0.127736  1
  Hf  Hf15  1  0.250000  0.679873  0.872751  1
  Hf  Hf16  1  0.250000  0.755750  0.165947  1
  Hf  Hf17  1  0.750000  0.244584  0.834672  1
  Hf  Hf18  1  0.750000  0.256049  0.333342  1
  Hf  Hf19  1  0.250000  0.739016  0.666925  1
  Ni  Ni20  1  0.250000  0.368864  0.415690  1
  Ni  Ni21  1  0.750000  0.632005  0.583022  1
  Ni  Ni22  1  0.750000  0.868128  0.083746  1
  Ni  Ni23  1  0.250000  0.132351  0.917135  1
  As  As24  1  0.250000  0.990427  0.617454  1
  As  As25  1  0.250000  0.190244  0.219167  1
  As  As26  1  0.750000  0.809008  0.780674  1
  As  As27  1  0.750000  0.689947  0.280013  1
  As  As28  1  0.250000  0.310782  0.720715  1
  P  P29  1  0.250000  0.810718  0.009484  1
  P  P30  1  0.750000  0.189395  0.991398  1
  P  P31  1  0.750000  0.311935  0.490161  1
  P  P32  1  0.250000  0.687821  0.508542  1
  P  P33  1  0.250000  0.508943  0.115921  1
  P  P34  1  0.750000  0.491166  0.884516  1
  P  P35  1  0.750000  0.009179  0.382796  1
