# generated using pymatgen
data_Ca3Mn10N11
_symmetry_space_group_name_H-M   'P 1'
_cell_length_a   8.87098220
_cell_length_b   8.87098245
_cell_length_c   8.87098200
_cell_angle_alpha   60.00000169
_cell_angle_beta   60.00000075
_cell_angle_gamma   60.00000144
_symmetry_Int_Tables_number   1
_chemical_formula_structural   Ca3Mn10N11
_chemical_formula_sum   'Ca6 Mn20 N22'
_cell_volume   493.62840328
_cell_formula_units_Z   2
loop_
 _symmetry_equiv_pos_site_id
 _symmetry_equiv_pos_as_xyz
  1  'x, y, z'
loop_
 _atom_site_type_symbol
 _atom_site_label
 _atom_site_symmetry_multiplicity
 _atom_site_fract_x
 _atom_site_fract_y
 _atom_site_fract_z
 _atom_site_occupancy
  Ca  Ca0  1  0.689912  0.310088  0.310088  1
  Ca  Ca1  1  0.310088  0.689912  0.689912  1
  Ca  Ca2  1  0.310088  0.689912  0.310088  1
  Ca  Ca3  1  0.689912  0.310088  0.689912  1
  Ca  Ca4  1  0.310088  0.310088  0.689912  1
  Ca  Ca5  1  0.689912  0.689912  0.310088  1
  Mn  Mn6  1  0.096129  0.096129  0.096129  1
  Mn  Mn7  1  0.903871  0.903871  0.903871  1
  Mn  Mn8  1  0.096129  0.096129  0.711615  1
  Mn  Mn9  1  0.096129  0.711615  0.096129  1
  Mn  Mn10  1  0.903871  0.903871  0.288385  1
  Mn  Mn11  1  0.903871  0.288385  0.903871  1
  Mn  Mn12  1  0.711615  0.096129  0.096129  1
  Mn  Mn13  1  0.288385  0.903871  0.903871  1
  Mn  Mn14  1  0.399352  0.100648  0.100648  1
  Mn  Mn15  1  0.600648  0.899352  0.899352  1
  Mn  Mn16  1  0.100648  0.399352  0.399352  1
  Mn  Mn17  1  0.100648  0.399352  0.100648  1
  Mn  Mn18  1  0.600648  0.899352  0.600648  1
  Mn  Mn19  1  0.899352  0.600648  0.600648  1
  Mn  Mn20  1  0.899352  0.600648  0.899352  1
  Mn  Mn21  1  0.399352  0.100648  0.399352  1
  Mn  Mn22  1  0.100648  0.100648  0.399352  1
  Mn  Mn23  1  0.899352  0.899352  0.600648  1
  Mn  Mn24  1  0.399352  0.399352  0.100648  1
  Mn  Mn25  1  0.600648  0.600648  0.899352  1
  N  N26  1  0.343973  0.000000  0.000000  1
  N  N27  1  0.656027  0.000000  0.000000  1
  N  N28  1  0.000000  0.343973  0.656027  1
  N  N29  1  0.000000  0.656027  0.343973  1
  N  N30  1  0.000000  0.343973  0.000000  1
  N  N31  1  0.656027  0.000000  0.343973  1
  N  N32  1  0.000000  0.656027  0.000000  1
  N  N33  1  0.343973  0.000000  0.656027  1
  N  N34  1  0.000000  0.000000  0.343973  1
  N  N35  1  0.000000  0.000000  0.656027  1
  N  N36  1  0.656027  0.343973  0.000000  1
  N  N37  1  0.343973  0.656027  0.000000  1
  N  N38  1  0.349885  0.349885  0.349885  1
  N  N39  1  0.650115  0.650115  0.650115  1
  N  N40  1  0.349885  0.349885  0.950342  1
  N  N41  1  0.349885  0.950342  0.349885  1
  N  N42  1  0.650115  0.650115  0.049658  1
  N  N43  1  0.650115  0.049658  0.650115  1
  N  N44  1  0.950342  0.349885  0.349885  1
  N  N45  1  0.049658  0.650115  0.650115  1
  N  N46  1  0.500000  0.500000  0.500000  1
  N  N47  1  0.000000  0.000000  0.000000  1
