# generated using pymatgen
data_Pr4Al4PdRh3
_symmetry_space_group_name_H-M   'P 1'
_cell_length_a   4.36885600
_cell_length_b   7.13176501
_cell_length_c   8.11230702
_cell_angle_alpha   89.99273936
_cell_angle_beta   90.00000000
_cell_angle_gamma   90.00000000
_symmetry_Int_Tables_number   1
_chemical_formula_structural   Pr4Al4PdRh3
_chemical_formula_sum   'Pr4 Al4 Pd1 Rh3'
_cell_volume   252.76045615
_cell_formula_units_Z   1
loop_
 _symmetry_equiv_pos_site_id
 _symmetry_equiv_pos_as_xyz
  1  'x, y, z'
loop_
 _atom_site_type_symbol
 _atom_site_label
 _atom_site_symmetry_multiplicity
 _atom_site_fract_x
 _atom_site_fract_y
 _atom_site_fract_z
 _atom_site_occupancy
  Pr  Pr0  1  0.250000  0.532659  0.184445  1
  Pr  Pr1  1  0.750000  0.458306  0.819013  1
  Pr  Pr2  1  0.750000  0.967203  0.677230  1
  Pr  Pr3  1  0.250000  0.036545  0.319381  1
  Al  Al4  1  0.250000  0.632864  0.559431  1
  Al  Al5  1  0.750000  0.365820  0.438037  1
  Al  Al6  1  0.750000  0.866917  0.064609  1
  Al  Al7  1  0.250000  0.138928  0.938626  1
  Pd  Pd8  1  0.250000  0.775757  0.882813  1
  Rh  Rh9  1  0.750000  0.225594  0.115017  1
  Rh  Rh10  1  0.750000  0.726548  0.384763  1
  Rh  Rh11  1  0.250000  0.272858  0.616634  1
