# generated using pymatgen
data_ErMg3P6N13
_symmetry_space_group_name_H-M   'P 1'
_cell_length_a   7.13293049
_cell_length_b   7.13293129
_cell_length_c   7.13293102
_cell_angle_alpha   109.32526104
_cell_angle_beta   109.32526251
_cell_angle_gamma   109.32526556
_symmetry_Int_Tables_number   1
_chemical_formula_structural   ErMg3P6N13
_chemical_formula_sum   'Er1 Mg3 P6 N13'
_cell_volume   280.87110443
_cell_formula_units_Z   1
loop_
 _symmetry_equiv_pos_site_id
 _symmetry_equiv_pos_as_xyz
  1  'x, y, z'
loop_
 _atom_site_type_symbol
 _atom_site_label
 _atom_site_symmetry_multiplicity
 _atom_site_fract_x
 _atom_site_fract_y
 _atom_site_fract_z
 _atom_site_occupancy
  Er  Er0  1  0.289420  0.289420  0.289420  1
  Mg  Mg1  1  0.992631  0.697372  0.992631  1
  Mg  Mg2  1  0.697372  0.992631  0.992631  1
  Mg  Mg3  1  0.992631  0.992631  0.697372  1
  P  P4  1  0.503586  0.251538  0.756248  1
  P  P5  1  0.503586  0.756248  0.251538  1
  P  P6  1  0.756248  0.251538  0.503586  1
  P  P7  1  0.251538  0.503586  0.756248  1
  P  P8  1  0.756248  0.503586  0.251538  1
  P  P9  1  0.251538  0.756248  0.503586  1
  N  N10  1  0.986572  0.986572  0.986572  1
  N  N11  1  0.001110  0.733396  0.448993  1
  N  N12  1  0.270375  0.715572  0.270375  1
  N  N13  1  0.279418  0.557947  0.557947  1
  N  N14  1  0.557947  0.557947  0.279418  1
  N  N15  1  0.557947  0.279418  0.557947  1
  N  N16  1  0.733396  0.001110  0.448993  1
  N  N17  1  0.448993  0.001110  0.733396  1
  N  N18  1  0.733396  0.448993  0.001110  1
  N  N19  1  0.270375  0.270375  0.715572  1
  N  N20  1  0.715572  0.270375  0.270375  1
  N  N21  1  0.001110  0.448993  0.733396  1
  N  N22  1  0.448993  0.733396  0.001110  1
