# generated using pymatgen
data_Ti8MnSiBi4
_symmetry_space_group_name_H-M   'P 1'
_cell_length_a   7.85769502
_cell_length_b   7.85769587
_cell_length_c   7.85769506
_cell_angle_alpha   95.76228418
_cell_angle_beta   95.76228560
_cell_angle_gamma   143.05350479
_symmetry_Int_Tables_number   1
_chemical_formula_structural   Ti8MnSiBi4
_chemical_formula_sum   'Ti8 Mn1 Si1 Bi4'
_cell_volume   276.58858701
_cell_formula_units_Z   1
loop_
 _symmetry_equiv_pos_site_id
 _symmetry_equiv_pos_as_xyz
  1  'x, y, z'
loop_
 _atom_site_type_symbol
 _atom_site_label
 _atom_site_symmetry_multiplicity
 _atom_site_fract_x
 _atom_site_fract_y
 _atom_site_fract_z
 _atom_site_occupancy
  Ti  Ti0  1  0.696670  0.583668  0.275013  1
  Ti  Ti1  1  0.308655  0.421657  0.724987  1
  Ti  Ti2  1  0.583668  0.308655  0.886998  1
  Ti  Ti3  1  0.078343  0.191345  0.275013  1
  Ti  Ti4  1  0.803330  0.078343  0.886998  1
  Ti  Ti5  1  0.421657  0.696670  0.113002  1
  Ti  Ti6  1  0.916332  0.803330  0.724987  1
  Ti  Ti7  1  0.191345  0.916332  0.113002  1
  Mn  Mn8  1  0.750000  0.750000  0.000000  1
  Si  Si9  1  0.250000  0.250000  0.000000  1
  Bi  Bi10  1  0.138890  0.638890  0.777781  1
  Bi  Bi11  1  0.361110  0.138890  0.500000  1
  Bi  Bi12  1  0.861110  0.361110  0.222219  1
  Bi  Bi13  1  0.638890  0.861110  0.500000  1
