# generated using pymatgen
data_TmLu2Np(ReB6)2
_symmetry_space_group_name_H-M   'P 1'
_cell_length_a   3.63929500
_cell_length_b   9.09024045
_cell_length_c   11.44358501
_cell_angle_alpha   90.20448285
_cell_angle_beta   90.00000000
_cell_angle_gamma   90.00000000
_symmetry_Int_Tables_number   1
_chemical_formula_structural   TmLu2Np(ReB6)2
_chemical_formula_sum   'Tm2 Lu4 Np2 Re4 B24'
_cell_volume   378.57503064
_cell_formula_units_Z   2
loop_
 _symmetry_equiv_pos_site_id
 _symmetry_equiv_pos_as_xyz
  1  'x, y, z'
loop_
 _atom_site_type_symbol
 _atom_site_label
 _atom_site_symmetry_multiplicity
 _atom_site_fract_x
 _atom_site_fract_y
 _atom_site_fract_z
 _atom_site_occupancy
  Tm  Tm0  1  0.000000  0.822257  0.085624  1
  Tm  Tm1  1  0.000000  0.177743  0.914376  1
  Lu  Lu2  1  0.000000  0.944240  0.372750  1
  Lu  Lu3  1  0.000000  0.055760  0.627250  1
  Lu  Lu4  1  0.000000  0.443333  0.127355  1
  Lu  Lu5  1  0.000000  0.556667  0.872645  1
  Np  Np6  1  0.000000  0.320953  0.413493  1
  Np  Np7  1  0.000000  0.679047  0.586507  1
  Re  Re8  1  0.000000  0.635843  0.324172  1
  Re  Re9  1  0.000000  0.364157  0.675828  1
  Re  Re10  1  0.000000  0.140381  0.182098  1
  Re  Re11  1  0.000000  0.859619  0.817902  1
  B  B12  1  0.500000  0.552450  0.433789  1
  B  B13  1  0.500000  0.447550  0.566211  1
  B  B14  1  0.500000  0.053104  0.066775  1
  B  B15  1  0.500000  0.946896  0.933225  1
  B  B16  1  0.500000  0.749969  0.420324  1
  B  B17  1  0.500000  0.250031  0.579676  1
  B  B18  1  0.500000  0.249606  0.080111  1
  B  B19  1  0.500000  0.750394  0.919889  1
  B  B20  1  0.500000  0.792388  0.265487  1
  B  B21  1  0.500000  0.207612  0.734513  1
  B  B22  1  0.500000  0.293195  0.234662  1
  B  B23  1  0.500000  0.706805  0.765338  1
  B  B24  1  0.500000  0.630259  0.184750  1
  B  B25  1  0.500000  0.369741  0.815250  1
  B  B26  1  0.500000  0.131580  0.315677  1
  B  B27  1  0.500000  0.868420  0.684323  1
  B  B28  1  0.500000  0.980748  0.212560  1
  B  B29  1  0.500000  0.019252  0.787440  1
  B  B30  1  0.500000  0.480656  0.286973  1
  B  B31  1  0.500000  0.519344  0.713027  1
  B  B32  1  0.500000  0.601732  0.028572  1
  B  B33  1  0.500000  0.398268  0.971428  1
  B  B34  1  0.500000  0.106217  0.470714  1
  B  B35  1  0.500000  0.893783  0.529286  1
