# generated using pymatgen
data_Nd4Cd2Cu2IrAu
_symmetry_space_group_name_H-M   'P 1'
_cell_length_a   7.91448340
_cell_length_b   7.90530760
_cell_length_c   3.90853800
_cell_angle_alpha   90.00000000
_cell_angle_beta   90.00000000
_cell_angle_gamma   90.30977208
_symmetry_Int_Tables_number   1
_chemical_formula_structural   Nd4Cd2Cu2IrAu
_chemical_formula_sum   'Nd4 Cd2 Cu2 Ir1 Au1'
_cell_volume   244.53967857
_cell_formula_units_Z   1
loop_
 _symmetry_equiv_pos_site_id
 _symmetry_equiv_pos_as_xyz
  1  'x, y, z'
loop_
 _atom_site_type_symbol
 _atom_site_label
 _atom_site_symmetry_multiplicity
 _atom_site_fract_x
 _atom_site_fract_y
 _atom_site_fract_z
 _atom_site_occupancy
  Nd  Nd0  1  0.692644  0.187315  0.000000  1
  Nd  Nd1  1  0.325668  0.819389  0.000000  1
  Nd  Nd2  1  0.158264  0.323830  0.000000  1
  Nd  Nd3  1  0.818666  0.662099  0.000000  1
  Cd  Cd4  1  0.495646  0.504889  0.500000  1
  Cd  Cd5  1  0.995507  0.989749  0.500000  1
  Cu  Cu6  1  0.120562  0.623598  0.500000  1
  Cu  Cu7  1  0.624827  0.879835  0.500000  1
  Ir  Ir8  1  0.884144  0.388028  0.500000  1
  Au  Au9  1  0.384071  0.121269  0.500000  1
