# generated using pymatgen
data_Tm11In(Hg2Ir)4
_symmetry_space_group_name_H-M   'P 1'
_cell_length_a   12.90019857
_cell_length_b   12.90019817
_cell_length_c   3.62180900
_cell_angle_alpha   90.00000000
_cell_angle_beta   90.00000000
_cell_angle_gamma   112.44575241
_symmetry_Int_Tables_number   1
_chemical_formula_structural   Tm11In(Hg2Ir)4
_chemical_formula_sum   'Tm11 In1 Hg8 Ir4'
_cell_volume   557.06228890
_cell_formula_units_Z   1
loop_
 _symmetry_equiv_pos_site_id
 _symmetry_equiv_pos_as_xyz
  1  'x, y, z'
loop_
 _atom_site_type_symbol
 _atom_site_label
 _atom_site_symmetry_multiplicity
 _atom_site_fract_x
 _atom_site_fract_y
 _atom_site_fract_z
 _atom_site_occupancy
  Tm  Tm0  1  0.500000  0.500000  0.500000  1
  Tm  Tm1  1  0.793613  0.793613  0.500000  1
  Tm  Tm2  1  0.206387  0.206387  0.500000  1
  Tm  Tm3  1  0.584977  0.917808  0.500000  1
  Tm  Tm4  1  0.415023  0.082192  0.500000  1
  Tm  Tm5  1  0.917808  0.584977  0.500000  1
  Tm  Tm6  1  0.082192  0.415023  0.500000  1
  Tm  Tm7  1  0.134335  0.865665  0.500000  1
  Tm  Tm8  1  0.865665  0.134335  0.500000  1
  Tm  Tm9  1  0.331965  0.668035  0.500000  1
  Tm  Tm10  1  0.668035  0.331965  0.500000  1
  In  In11  1  0.000000  0.000000  0.000000  1
  Hg  Hg12  1  0.354209  0.868965  0.000000  1
  Hg  Hg13  1  0.645791  0.131035  0.000000  1
  Hg  Hg14  1  0.868965  0.354209  0.000000  1
  Hg  Hg15  1  0.131035  0.645791  0.000000  1
  Hg  Hg16  1  0.557017  0.710181  0.000000  1
  Hg  Hg17  1  0.442983  0.289819  0.000000  1
  Hg  Hg18  1  0.710181  0.557017  0.000000  1
  Hg  Hg19  1  0.289819  0.442983  0.000000  1
  Ir  Ir20  1  0.759216  0.950867  0.000000  1
  Ir  Ir21  1  0.240784  0.049133  0.000000  1
  Ir  Ir22  1  0.950867  0.759216  0.000000  1
  Ir  Ir23  1  0.049133  0.240784  0.000000  1
