# generated using pymatgen
data_Ac2SiOsBr
_symmetry_space_group_name_H-M   'P 1'
_cell_length_a   4.30931300
_cell_length_b   4.30931192
_cell_length_c   18.45068400
_cell_angle_alpha   90.00000000
_cell_angle_beta   90.00000000
_cell_angle_gamma   120.00001593
_symmetry_Int_Tables_number   1
_chemical_formula_structural   Ac2SiOsBr
_chemical_formula_sum   'Ac4 Si2 Os2 Br2'
_cell_volume   296.72832391
_cell_formula_units_Z   2
loop_
 _symmetry_equiv_pos_site_id
 _symmetry_equiv_pos_as_xyz
  1  'x, y, z'
loop_
 _atom_site_type_symbol
 _atom_site_label
 _atom_site_symmetry_multiplicity
 _atom_site_fract_x
 _atom_site_fract_y
 _atom_site_fract_z
 _atom_site_occupancy
  Ac  Ac0  1  0.000000  0.000000  0.392156  1
  Ac  Ac1  1  0.000000  0.000000  0.892156  1
  Ac  Ac2  1  0.000000  0.000000  0.609424  1
  Ac  Ac3  1  0.000000  0.000000  0.109424  1
  Si  Si4  1  0.333333  0.666667  0.500977  1
  Si  Si5  1  0.666667  0.333333  0.000977  1
  Os  Os6  1  0.666667  0.333333  0.498603  1
  Os  Os7  1  0.333333  0.666667  0.998603  1
  Br  Br8  1  0.333333  0.666667  0.248839  1
  Br  Br9  1  0.666667  0.333333  0.748839  1
