# generated using pymatgen
data_NaSr(B3O5)3
_symmetry_space_group_name_H-M   'P 1'
_cell_length_a   8.60894786
_cell_length_b   8.60894826
_cell_length_c   8.60894754
_cell_angle_alpha   77.76499044
_cell_angle_beta   77.76498552
_cell_angle_gamma   77.76499086
_symmetry_Int_Tables_number   1
_chemical_formula_structural   NaSr(B3O5)3
_chemical_formula_sum   'Na2 Sr2 B18 O30'
_cell_volume   599.99915902
_cell_formula_units_Z   2
loop_
 _symmetry_equiv_pos_site_id
 _symmetry_equiv_pos_as_xyz
  1  'x, y, z'
loop_
 _atom_site_type_symbol
 _atom_site_label
 _atom_site_symmetry_multiplicity
 _atom_site_fract_x
 _atom_site_fract_y
 _atom_site_fract_z
 _atom_site_occupancy
  Na  Na0  1  0.208148  0.208148  0.208148  1
  Na  Na1  1  0.708148  0.708148  0.708148  1
  Sr  Sr2  1  0.486733  0.486733  0.486733  1
  Sr  Sr3  1  0.986733  0.986733  0.986733  1
  B  B4  1  0.773671  0.619820  0.108498  1
  B  B5  1  0.275286  0.717038  0.829819  1
  B  B6  1  0.775286  0.329819  0.217038  1
  B  B7  1  0.329819  0.217038  0.775286  1
  B  B8  1  0.119820  0.273671  0.608498  1
  B  B9  1  0.273671  0.608498  0.119820  1
  B  B10  1  0.608498  0.119820  0.273671  1
  B  B11  1  0.829819  0.275286  0.717038  1
  B  B12  1  0.108498  0.773671  0.619820  1
  B  B13  1  0.619820  0.108498  0.773671  1
  B  B14  1  0.934795  0.284256  0.430003  1
  B  B15  1  0.284256  0.430003  0.934795  1
  B  B16  1  0.430003  0.934795  0.284256  1
  B  B17  1  0.930003  0.784256  0.434795  1
  B  B18  1  0.784256  0.434795  0.930003  1
  B  B19  1  0.434795  0.930003  0.784256  1
  B  B20  1  0.717038  0.829819  0.275286  1
  B  B21  1  0.217038  0.775286  0.329819  1
  O  O22  1  0.801309  0.764183  0.127243  1
  O  O23  1  0.764183  0.127243  0.801309  1
  O  O24  1  0.501605  0.236340  0.734285  1
  O  O25  1  0.734285  0.501605  0.236340  1
  O  O26  1  0.127243  0.801309  0.764183  1
  O  O27  1  0.736340  0.001605  0.234285  1
  O  O28  1  0.234285  0.736340  0.001605  1
  O  O29  1  0.001605  0.234285  0.736340  1
  O  O30  1  0.256703  0.283180  0.923372  1
  O  O31  1  0.923372  0.256703  0.283180  1
  O  O32  1  0.283180  0.923372  0.256703  1
  O  O33  1  0.783180  0.756703  0.423372  1
  O  O34  1  0.423372  0.783180  0.756703  1
  O  O35  1  0.756703  0.423372  0.783180  1
  O  O36  1  0.627243  0.264183  0.301309  1
  O  O37  1  0.264183  0.301309  0.627243  1
  O  O38  1  0.805183  0.310109  0.548815  1
  O  O39  1  0.310109  0.548815  0.805183  1
  O  O40  1  0.548815  0.805183  0.310109  1
  O  O41  1  0.048815  0.810109  0.305183  1
  O  O42  1  0.810109  0.305183  0.048815  1
  O  O43  1  0.305183  0.048815  0.810109  1
  O  O44  1  0.090924  0.284740  0.453043  1
  O  O45  1  0.284740  0.453043  0.090924  1
  O  O46  1  0.453043  0.090924  0.284740  1
  O  O47  1  0.953043  0.784740  0.590924  1
  O  O48  1  0.784740  0.590924  0.953043  1
  O  O49  1  0.590924  0.953043  0.784740  1
  O  O50  1  0.236340  0.734285  0.501605  1
  O  O51  1  0.301309  0.627243  0.264183  1
