# generated using pymatgen
data_Tb12Ni5Sn
_symmetry_space_group_name_H-M   'P 1'
_cell_length_a   8.36547679
_cell_length_b   8.36631082
_cell_length_c   8.36547623
_cell_angle_alpha   107.25974378
_cell_angle_beta   109.57394309
_cell_angle_gamma   111.60504977
_symmetry_Int_Tables_number   1
_chemical_formula_structural   Tb12Ni5Sn
_chemical_formula_sum   'Tb12 Ni5 Sn1'
_cell_volume   450.08059944
_cell_formula_units_Z   1
loop_
 _symmetry_equiv_pos_site_id
 _symmetry_equiv_pos_as_xyz
  1  'x, y, z'
loop_
 _atom_site_type_symbol
 _atom_site_label
 _atom_site_symmetry_multiplicity
 _atom_site_fract_x
 _atom_site_fract_y
 _atom_site_fract_z
 _atom_site_occupancy
  Tb  Tb0  1  0.477389  0.295806  0.181595  1
  Tb  Tb1  1  0.114211  0.295806  0.818416  1
  Tb  Tb2  1  0.885789  0.704194  0.181584  1
  Tb  Tb3  1  0.522611  0.704194  0.818405  1
  Tb  Tb4  1  0.306237  0.628036  0.321799  1
  Tb  Tb5  1  0.306268  0.984469  0.678200  1
  Tb  Tb6  1  0.693763  0.371964  0.678201  1
  Tb  Tb7  1  0.693732  0.015531  0.321800  1
  Tb  Tb8  1  0.190857  0.210239  0.401071  1
  Tb  Tb9  1  0.809143  0.789761  0.598929  1
  Tb  Tb10  1  0.190832  0.789761  0.980618  1
  Tb  Tb11  1  0.809168  0.210239  0.019382  1
  Ni  Ni12  1  0.500020  0.624581  0.124561  1
  Ni  Ni13  1  0.499980  0.375419  0.875439  1
  Ni  Ni14  1  0.365687  0.000000  0.365687  1
  Ni  Ni15  1  0.634313  0.000000  0.634313  1
  Ni  Ni16  1  0.000000  0.000000  0.000000  1
  Sn  Sn17  1  0.000000  0.500000  0.500000  1
