# generated using pymatgen
data_DyHoB6IrRh8
_symmetry_space_group_name_H-M   'P 1'
_cell_length_a   5.59855900
_cell_length_b   5.61486409
_cell_length_c   8.59902900
_cell_angle_alpha   90.00000000
_cell_angle_beta   90.00000000
_cell_angle_gamma   119.90397976
_symmetry_Int_Tables_number   1
_chemical_formula_structural   DyHoB6IrRh8
_chemical_formula_sum   'Dy1 Ho1 B6 Ir1 Rh8'
_cell_volume   234.32301573
_cell_formula_units_Z   1
loop_
 _symmetry_equiv_pos_site_id
 _symmetry_equiv_pos_as_xyz
  1  'x, y, z'
loop_
 _atom_site_type_symbol
 _atom_site_label
 _atom_site_symmetry_multiplicity
 _atom_site_fract_x
 _atom_site_fract_y
 _atom_site_fract_z
 _atom_site_occupancy
  Dy  Dy0  1  0.000000  0.000000  0.704616  1
  Ho  Ho1  1  0.000000  0.000000  0.295318  1
  B  B2  1  0.666591  0.333181  0.000082  1
  B  B3  1  0.333409  0.666819  0.000082  1
  B  B4  1  0.666022  0.332042  0.668008  1
  B  B5  1  0.333978  0.667958  0.668008  1
  B  B6  1  0.333974  0.667950  0.331909  1
  B  B7  1  0.666026  0.332050  0.331909  1
  Ir  Ir8  1  0.500000  0.000000  0.499860  1
  Rh  Rh9  1  0.500000  0.500000  0.835689  1
  Rh  Rh10  1  0.500000  0.000000  0.836306  1
  Rh  Rh11  1  0.000000  0.500000  0.835689  1
  Rh  Rh12  1  0.500000  0.500000  0.164469  1
  Rh  Rh13  1  0.500000  0.000000  0.163843  1
  Rh  Rh14  1  0.000000  0.500000  0.164469  1
  Rh  Rh15  1  0.500000  0.500000  0.499871  1
  Rh  Rh16  1  0.000000  0.500000  0.499871  1
