# generated using pymatgen
data_HoErFeIr3
_symmetry_space_group_name_H-M   'P 1'
_cell_length_a   5.14795457
_cell_length_b   5.14795676
_cell_length_c   5.14795614
_cell_angle_alpha   63.81105844
_cell_angle_beta   63.81104302
_cell_angle_gamma   63.81105519
_symmetry_Int_Tables_number   1
_chemical_formula_structural   HoErFeIr3
_chemical_formula_sum   'Ho1 Er1 Fe1 Ir3'
_cell_volume   104.57893633
_cell_formula_units_Z   1
loop_
 _symmetry_equiv_pos_site_id
 _symmetry_equiv_pos_as_xyz
  1  'x, y, z'
loop_
 _atom_site_type_symbol
 _atom_site_label
 _atom_site_symmetry_multiplicity
 _atom_site_fract_x
 _atom_site_fract_y
 _atom_site_fract_z
 _atom_site_occupancy
  Ho  Ho0  1  0.998855  0.998855  0.998855  1
  Er  Er1  1  0.251388  0.251388  0.251388  1
  Fe  Fe2  1  0.624965  0.624965  0.624965  1
  Ir  Ir3  1  0.624817  0.624817  0.125154  1
  Ir  Ir4  1  0.624817  0.125154  0.624817  1
  Ir  Ir5  1  0.125154  0.624817  0.624817  1
