# generated using pymatgen
data_Yb7Tm(OsC2)4
_symmetry_space_group_name_H-M   'P 1'
_cell_length_a   5.12774600
_cell_length_b   6.45980924
_cell_length_c   10.12127326
_cell_angle_alpha   90.30705501
_cell_angle_beta   90.00000000
_cell_angle_gamma   90.00000000
_symmetry_Int_Tables_number   1
_chemical_formula_structural   Yb7Tm(OsC2)4
_chemical_formula_sum   'Yb7 Tm1 Os4 C8'
_cell_volume   335.25488263
_cell_formula_units_Z   1
loop_
 _symmetry_equiv_pos_site_id
 _symmetry_equiv_pos_as_xyz
  1  'x, y, z'
loop_
 _atom_site_type_symbol
 _atom_site_label
 _atom_site_symmetry_multiplicity
 _atom_site_fract_x
 _atom_site_fract_y
 _atom_site_fract_z
 _atom_site_occupancy
  Yb  Yb0  1  0.750000  0.304723  0.450838  1
  Yb  Yb1  1  0.750000  0.804683  0.050268  1
  Yb  Yb2  1  0.250000  0.192914  0.948781  1
  Yb  Yb3  1  0.250000  0.532416  0.222934  1
  Yb  Yb4  1  0.750000  0.467765  0.777573  1
  Yb  Yb5  1  0.750000  0.968540  0.727356  1
  Yb  Yb6  1  0.250000  0.032778  0.274047  1
  Tm  Tm7  1  0.250000  0.683065  0.553495  1
  Os  Os8  1  0.250000  0.729927  0.853182  1
  Os  Os9  1  0.750000  0.268126  0.146963  1
  Os  Os10  1  0.750000  0.769138  0.355986  1
  Os  Os11  1  0.250000  0.229346  0.643646  1
  C  C12  1  0.250000  0.467757  0.755414  1
  C  C13  1  0.750000  0.532779  0.241231  1
  C  C14  1  0.750000  0.030455  0.259751  1
  C  C15  1  0.250000  0.961914  0.734262  1
  C  C16  1  0.250000  0.797941  0.030634  1
  C  C17  1  0.750000  0.204441  0.968148  1
  C  C18  1  0.750000  0.702213  0.536843  1
  C  C19  1  0.250000  0.319078  0.468646  1
