# generated using pymatgen
data_LiEu2CdPt2
_symmetry_space_group_name_H-M   'P 1'
_cell_length_a   4.27466000
_cell_length_b   7.43555300
_cell_length_c   8.68441800
_cell_angle_alpha   90.00000000
_cell_angle_beta   90.00000000
_cell_angle_gamma   90.00000000
_symmetry_Int_Tables_number   1
_chemical_formula_structural   LiEu2CdPt2
_chemical_formula_sum   'Li2 Eu4 Cd2 Pt4'
_cell_volume   276.02954512
_cell_formula_units_Z   2
loop_
 _symmetry_equiv_pos_site_id
 _symmetry_equiv_pos_as_xyz
  1  'x, y, z'
loop_
 _atom_site_type_symbol
 _atom_site_label
 _atom_site_symmetry_multiplicity
 _atom_site_fract_x
 _atom_site_fract_y
 _atom_site_fract_z
 _atom_site_occupancy
  Li  Li0  1  0.250000  0.132113  0.941070  1
  Li  Li1  1  0.250000  0.632113  0.558930  1
  Eu  Eu2  1  0.250000  0.039144  0.323004  1
  Eu  Eu3  1  0.250000  0.539144  0.176996  1
  Eu  Eu4  1  0.750000  0.960805  0.680333  1
  Eu  Eu5  1  0.750000  0.460805  0.819667  1
  Cd  Cd6  1  0.750000  0.868603  0.058956  1
  Cd  Cd7  1  0.750000  0.368603  0.441044  1
  Pt  Pt8  1  0.250000  0.254316  0.634103  1
  Pt  Pt9  1  0.250000  0.754316  0.865897  1
  Pt  Pt10  1  0.750000  0.745019  0.375613  1
  Pt  Pt11  1  0.750000  0.245019  0.124387  1
