# generated using pymatgen
data_Ho5Th3(TcB6)4
_symmetry_space_group_name_H-M   'P 1'
_cell_length_a   3.75297800
_cell_length_b   9.21505519
_cell_length_c   11.63192276
_cell_angle_alpha   90.07889873
_cell_angle_beta   90.00000000
_cell_angle_gamma   90.00000000
_symmetry_Int_Tables_number   1
_chemical_formula_structural   Ho5Th3(TcB6)4
_chemical_formula_sum   'Ho5 Th3 Tc4 B24'
_cell_volume   402.27686477
_cell_formula_units_Z   1
loop_
 _symmetry_equiv_pos_site_id
 _symmetry_equiv_pos_as_xyz
  1  'x, y, z'
loop_
 _atom_site_type_symbol
 _atom_site_label
 _atom_site_symmetry_multiplicity
 _atom_site_fract_x
 _atom_site_fract_y
 _atom_site_fract_z
 _atom_site_occupancy
  Ho  Ho0  1  0.000000  0.177773  0.914224  1
  Ho  Ho1  1  0.000000  0.944500  0.371618  1
  Ho  Ho2  1  0.000000  0.056867  0.629996  1
  Ho  Ho3  1  0.000000  0.441941  0.127236  1
  Ho  Ho4  1  0.000000  0.555169  0.871633  1
  Th  Th5  1  0.000000  0.321569  0.414532  1
  Th  Th6  1  0.000000  0.678125  0.586643  1
  Th  Th7  1  0.000000  0.823924  0.084733  1
  Tc  Tc8  1  0.000000  0.638854  0.319553  1
  Tc  Tc9  1  0.000000  0.361327  0.680579  1
  Tc  Tc10  1  0.000000  0.139174  0.179382  1
  Tc  Tc11  1  0.000000  0.861432  0.820415  1
  B  B12  1  0.500000  0.555974  0.429659  1
  B  B13  1  0.500000  0.443769  0.570728  1
  B  B14  1  0.500000  0.056353  0.067164  1
  B  B15  1  0.500000  0.946787  0.930849  1
  B  B16  1  0.500000  0.750036  0.416586  1
  B  B17  1  0.500000  0.249861  0.584579  1
  B  B18  1  0.500000  0.248908  0.080266  1
  B  B19  1  0.500000  0.751537  0.916687  1
  B  B20  1  0.500000  0.790522  0.266113  1
  B  B21  1  0.500000  0.208031  0.735798  1
  B  B22  1  0.500000  0.290119  0.231912  1
  B  B23  1  0.500000  0.709847  0.767164  1
  B  B24  1  0.500000  0.629842  0.185477  1
  B  B25  1  0.500000  0.367863  0.815784  1
  B  B26  1  0.500000  0.130406  0.313215  1
  B  B27  1  0.500000  0.870899  0.687252  1
  B  B28  1  0.500000  0.985731  0.212386  1
  B  B29  1  0.500000  0.017939  0.787907  1
  B  B30  1  0.500000  0.484641  0.285672  1
  B  B31  1  0.500000  0.514225  0.714643  1
  B  B32  1  0.500000  0.600952  0.027839  1
  B  B33  1  0.500000  0.394751  0.970752  1
  B  B34  1  0.500000  0.102489  0.472366  1
  B  B35  1  0.500000  0.897861  0.528659  1
