# generated using pymatgen
data_SrDyHo2(Pt2O7)2
_symmetry_space_group_name_H-M   'P 1'
_cell_length_a   7.32739398
_cell_length_b   7.32769551
_cell_length_c   7.32769527
_cell_angle_alpha   59.79580459
_cell_angle_beta   59.82346335
_cell_angle_gamma   59.82346392
_symmetry_Int_Tables_number   1
_chemical_formula_structural   SrDyHo2(Pt2O7)2
_chemical_formula_sum   'Sr1 Dy1 Ho2 Pt4 O14'
_cell_volume   277.03474508
_cell_formula_units_Z   1
loop_
 _symmetry_equiv_pos_site_id
 _symmetry_equiv_pos_as_xyz
  1  'x, y, z'
loop_
 _atom_site_type_symbol
 _atom_site_label
 _atom_site_symmetry_multiplicity
 _atom_site_fract_x
 _atom_site_fract_y
 _atom_site_fract_z
 _atom_site_occupancy
  Sr  Sr0  1  0.625000  0.625000  0.625000  1
  Dy  Dy1  1  0.125000  0.625000  0.625000  1
  Ho  Ho2  1  0.625000  0.625000  0.125000  1
  Ho  Ho3  1  0.625000  0.125000  0.625000  1
  Pt  Pt4  1  0.125000  0.125000  0.125000  1
  Pt  Pt5  1  0.625000  0.125000  0.125000  1
  Pt  Pt6  1  0.125000  0.625000  0.125000  1
  Pt  Pt7  1  0.125000  0.125000  0.625000  1
  O  O8  1  0.055720  0.458400  0.458400  1
  O  O9  1  0.791422  0.791401  0.194012  1
  O  O10  1  0.787531  0.213356  0.213356  1
  O  O11  1  0.458578  0.055988  0.458599  1
  O  O12  1  0.756178  0.758218  0.758218  1
  O  O13  1  0.036341  0.037192  0.462389  1
  O  O14  1  0.036341  0.462389  0.037192  1
  O  O15  1  0.791422  0.194012  0.791401  1
  O  O16  1  0.213659  0.787611  0.212808  1
  O  O17  1  0.213659  0.212808  0.787611  1
  O  O18  1  0.493822  0.491782  0.491782  1
  O  O19  1  0.462469  0.036644  0.036644  1
  O  O20  1  0.458578  0.458599  0.055988  1
  O  O21  1  0.194280  0.791600  0.791600  1
