# generated using pymatgen
data_Tb3Lu(CO)2
_symmetry_space_group_name_H-M   'P 1'
_cell_length_a   6.09497529
_cell_length_b   6.09497461
_cell_length_c   6.09497438
_cell_angle_alpha   132.13847247
_cell_angle_beta   132.40577810
_cell_angle_gamma   69.79979489
_symmetry_Int_Tables_number   1
_chemical_formula_structural   Tb3Lu(CO)2
_chemical_formula_sum   'Tb3 Lu1 C2 O2'
_cell_volume   121.57543780
_cell_formula_units_Z   1
loop_
 _symmetry_equiv_pos_site_id
 _symmetry_equiv_pos_as_xyz
  1  'x, y, z'
loop_
 _atom_site_type_symbol
 _atom_site_label
 _atom_site_symmetry_multiplicity
 _atom_site_fract_x
 _atom_site_fract_y
 _atom_site_fract_z
 _atom_site_occupancy
  Tb  Tb0  1  0.753008  0.753008  0.000000  1
  Tb  Tb1  1  0.246474  0.246474  0.000000  1
  Tb  Tb2  1  0.995842  0.495842  0.500000  1
  Lu  Lu3  1  0.503027  0.003027  0.500000  1
  C  C4  1  0.999851  0.999851  0.000000  1
  C  C5  1  0.746963  0.246963  0.500000  1
  O  O6  1  0.498704  0.498704  0.000000  1
  O  O7  1  0.256131  0.756131  0.500000  1
