# generated using pymatgen
data_K2SrCeB24
_symmetry_space_group_name_H-M   'P 1'
_cell_length_a   7.25585052
_cell_length_b   7.25585280
_cell_length_c   5.91771700
_cell_angle_alpha   90.00000000
_cell_angle_beta   90.00000000
_cell_angle_gamma   109.46293710
_symmetry_Int_Tables_number   1
_chemical_formula_structural   K2SrCeB24
_chemical_formula_sum   'K2 Sr1 Ce1 B24'
_cell_volume   293.74935082
_cell_formula_units_Z   1
loop_
 _symmetry_equiv_pos_site_id
 _symmetry_equiv_pos_as_xyz
  1  'x, y, z'
loop_
 _atom_site_type_symbol
 _atom_site_label
 _atom_site_symmetry_multiplicity
 _atom_site_fract_x
 _atom_site_fract_y
 _atom_site_fract_z
 _atom_site_occupancy
  K  K0  1  0.750475  0.249523  0.500000  1
  K  K1  1  0.249525  0.750477  0.500000  1
  Sr  Sr2  1  0.000000  0.000000  0.000000  1
  Ce  Ce3  1  0.500000  0.500000  0.000000  1
  B  B4  1  0.176654  0.326101  0.648886  1
  B  B5  1  0.925130  0.573714  0.149797  1
  B  B6  1  0.673899  0.823346  0.648887  1
  B  B7  1  0.426286  0.074870  0.149797  1
  B  B8  1  0.176654  0.326101  0.351114  1
  B  B9  1  0.925130  0.573714  0.850203  1
  B  B10  1  0.673899  0.823346  0.351113  1
  B  B11  1  0.426286  0.074870  0.850203  1
  B  B12  1  0.399895  0.399896  0.500000  1
  B  B13  1  0.148553  0.649871  0.000000  1
  B  B14  1  0.898469  0.898468  0.500000  1
  B  B15  1  0.649871  0.148553  0.000000  1
  B  B16  1  0.326101  0.176654  0.648887  1
  B  B17  1  0.074870  0.426286  0.149797  1
  B  B18  1  0.823346  0.673899  0.648886  1
  B  B19  1  0.573714  0.925130  0.149797  1
  B  B20  1  0.101531  0.101532  0.500000  1
  B  B21  1  0.851447  0.350129  0.000000  1
  B  B22  1  0.600105  0.600104  0.500000  1
  B  B23  1  0.350129  0.851447  0.000000  1
  B  B24  1  0.326101  0.176654  0.351113  1
  B  B25  1  0.074870  0.426286  0.850203  1
  B  B26  1  0.823346  0.673899  0.351114  1
  B  B27  1  0.573714  0.925130  0.850203  1
