# generated using pymatgen
data_Ta6Cr2Ga4CN
_symmetry_space_group_name_H-M   'P 1'
_cell_length_a   8.23724973
_cell_length_b   8.25615137
_cell_length_c   8.23724881
_cell_angle_alpha   59.92406646
_cell_angle_beta   59.88249073
_cell_angle_gamma   59.92407074
_symmetry_Int_Tables_number   1
_chemical_formula_structural   Ta6Cr2Ga4CN
_chemical_formula_sum   'Ta12 Cr4 Ga8 C2 N2'
_cell_volume   395.31326302
_cell_formula_units_Z   2
loop_
 _symmetry_equiv_pos_site_id
 _symmetry_equiv_pos_as_xyz
  1  'x, y, z'
loop_
 _atom_site_type_symbol
 _atom_site_label
 _atom_site_symmetry_multiplicity
 _atom_site_fract_x
 _atom_site_fract_y
 _atom_site_fract_z
 _atom_site_occupancy
  Ta  Ta0  1  0.553052  0.946948  0.553052  1
  Ta  Ta1  1  0.303575  0.695800  0.696918  1
  Ta  Ta2  1  0.696918  0.303707  0.303575  1
  Ta  Ta3  1  0.304178  0.695822  0.304178  1
  Ta  Ta4  1  0.696918  0.695800  0.303575  1
  Ta  Ta5  1  0.303575  0.303707  0.696918  1
  Ta  Ta6  1  0.553082  0.554200  0.946425  1
  Ta  Ta7  1  0.946425  0.554200  0.553082  1
  Ta  Ta8  1  0.553082  0.946293  0.946425  1
  Ta  Ta9  1  0.946425  0.946293  0.553082  1
  Ta  Ta10  1  0.696948  0.303052  0.696948  1
  Ta  Ta11  1  0.945822  0.554178  0.945822  1
  Cr  Cr12  1  0.125000  0.125000  0.125000  1
  Cr  Cr13  1  0.625000  0.125000  0.125000  1
  Cr  Cr14  1  0.125000  0.625000  0.125000  1
  Cr  Cr15  1  0.125000  0.125000  0.625000  1
  Ga  Ga16  1  0.913289  0.913959  0.913289  1
  Ga  Ga17  1  0.990485  0.336277  0.336959  1
  Ga  Ga18  1  0.336711  0.990535  0.336711  1
  Ga  Ga19  1  0.336959  0.336277  0.990485  1
  Ga  Ga20  1  0.913289  0.259465  0.913289  1
  Ga  Ga21  1  0.913041  0.913723  0.259515  1
  Ga  Ga22  1  0.259515  0.913723  0.913041  1
  Ga  Ga23  1  0.336711  0.336041  0.336711  1
  C  C24  1  0.625000  0.625000  0.625000  1
  C  C25  1  0.625000  0.125000  0.625000  1
  N  N26  1  0.125000  0.625000  0.625000  1
  N  N27  1  0.625000  0.625000  0.125000  1
