# generated using pymatgen
data_Ho2Mn2I
_symmetry_space_group_name_H-M   'P 1'
_cell_length_a   3.86443900
_cell_length_b   3.86443982
_cell_length_c   17.56055300
_cell_angle_alpha   90.00000000
_cell_angle_beta   90.00000000
_cell_angle_gamma   120.00000157
_symmetry_Int_Tables_number   1
_chemical_formula_structural   Ho2Mn2I
_chemical_formula_sum   'Ho4 Mn4 I2'
_cell_volume   227.11290770
_cell_formula_units_Z   2
loop_
 _symmetry_equiv_pos_site_id
 _symmetry_equiv_pos_as_xyz
  1  'x, y, z'
loop_
 _atom_site_type_symbol
 _atom_site_label
 _atom_site_symmetry_multiplicity
 _atom_site_fract_x
 _atom_site_fract_y
 _atom_site_fract_z
 _atom_site_occupancy
  Ho  Ho0  1  0.000000  0.000000  0.109632  1
  Ho  Ho1  1  0.000000  0.000000  0.890368  1
  Ho  Ho2  1  0.000000  0.000000  0.609632  1
  Ho  Ho3  1  0.000000  0.000000  0.390368  1
  Mn  Mn4  1  0.333333  0.666667  0.508948  1
  Mn  Mn5  1  0.666667  0.333333  0.491052  1
  Mn  Mn6  1  0.666667  0.333333  0.008948  1
  Mn  Mn7  1  0.333333  0.666667  0.991052  1
  I  I8  1  0.333333  0.666667  0.250000  1
  I  I9  1  0.666667  0.333333  0.750000  1
