# generated using pymatgen
data_CeLu(ZnIr)2
_symmetry_space_group_name_H-M   'P 1'
_cell_length_a   3.98103400
_cell_length_b   6.96909417
_cell_length_c   8.27035271
_cell_angle_alpha   90.23689330
_cell_angle_beta   90.00000000
_cell_angle_gamma   90.00000000
_symmetry_Int_Tables_number   1
_chemical_formula_structural   CeLu(ZnIr)2
_chemical_formula_sum   'Ce2 Lu2 Zn4 Ir4'
_cell_volume   229.45236545
_cell_formula_units_Z   2
loop_
 _symmetry_equiv_pos_site_id
 _symmetry_equiv_pos_as_xyz
  1  'x, y, z'
loop_
 _atom_site_type_symbol
 _atom_site_label
 _atom_site_symmetry_multiplicity
 _atom_site_fract_x
 _atom_site_fract_y
 _atom_site_fract_z
 _atom_site_occupancy
  Ce  Ce0  1  0.250000  0.539216  0.190294  1
  Ce  Ce1  1  0.750000  0.460784  0.809706  1
  Lu  Lu2  1  0.750000  0.955503  0.679690  1
  Lu  Lu3  1  0.250000  0.044497  0.320310  1
  Zn  Zn4  1  0.250000  0.643409  0.560034  1
  Zn  Zn5  1  0.750000  0.356591  0.439966  1
  Zn  Zn6  1  0.750000  0.873959  0.063011  1
  Zn  Zn7  1  0.250000  0.126041  0.936989  1
  Ir  Ir8  1  0.250000  0.747168  0.872227  1
  Ir  Ir9  1  0.750000  0.252832  0.127773  1
  Ir  Ir10  1  0.750000  0.751022  0.368752  1
  Ir  Ir11  1  0.250000  0.248978  0.631248  1
