# generated using pymatgen
data_Dy6TmLu3(In2Pt)4
_symmetry_space_group_name_H-M   'P 1'
_cell_length_a   3.61544000
_cell_length_b   8.13503848
_cell_length_c   18.12207333
_cell_angle_alpha   89.95074998
_cell_angle_beta   90.00000000
_cell_angle_gamma   90.00000000
_symmetry_Int_Tables_number   1
_chemical_formula_structural   Dy6TmLu3(In2Pt)4
_chemical_formula_sum   'Dy6 Tm1 Lu3 In8 Pt4'
_cell_volume   533.00157574
_cell_formula_units_Z   1
loop_
 _symmetry_equiv_pos_site_id
 _symmetry_equiv_pos_as_xyz
  1  'x, y, z'
loop_
 _atom_site_type_symbol
 _atom_site_label
 _atom_site_symmetry_multiplicity
 _atom_site_fract_x
 _atom_site_fract_y
 _atom_site_fract_z
 _atom_site_occupancy
  Dy  Dy0  1  0.000000  0.243197  0.219879  1
  Dy  Dy1  1  0.000000  0.757729  0.780347  1
  Dy  Dy2  1  0.000000  0.257453  0.719111  1
  Dy  Dy3  1  0.000000  0.742061  0.281092  1
  Dy  Dy4  1  0.000000  0.999511  0.999596  1
  Dy  Dy5  1  0.000000  0.500193  0.500154  1
  Tm  Tm6  1  0.000000  0.617056  0.085028  1
  Lu  Lu7  1  0.000000  0.116819  0.414258  1
  Lu  Lu8  1  0.000000  0.883240  0.585927  1
  Lu  Lu9  1  0.000000  0.383191  0.913811  1
  In  In10  1  0.500000  0.420248  0.351666  1
  In  In11  1  0.500000  0.579481  0.648900  1
  In  In12  1  0.500000  0.079185  0.850923  1
  In  In13  1  0.500000  0.922792  0.149496  1
  In  In14  1  0.500000  0.294186  0.064925  1
  In  In15  1  0.500000  0.704163  0.933765  1
  In  In16  1  0.500000  0.203043  0.564622  1
  In  In17  1  0.500000  0.797179  0.435561  1
  Pt  Pt18  1  0.500000  0.026447  0.305483  1
  Pt  Pt19  1  0.500000  0.973663  0.694731  1
  Pt  Pt20  1  0.500000  0.473088  0.804792  1
  Pt  Pt21  1  0.500000  0.526077  0.195929  1
