# generated using pymatgen
data_Li2YbCe3(AlIr2)2
_symmetry_space_group_name_H-M   'P 1'
_cell_length_a   6.99923664
_cell_length_b   4.02197000
_cell_length_c   8.40778420
_cell_angle_alpha   90.00000000
_cell_angle_beta   91.09011912
_cell_angle_gamma   90.00000000
_symmetry_Int_Tables_number   1
_chemical_formula_structural   Li2YbCe3(AlIr2)2
_chemical_formula_sum   'Li2 Yb1 Ce3 Al2 Ir4'
_cell_volume   236.64233872
_cell_formula_units_Z   1
loop_
 _symmetry_equiv_pos_site_id
 _symmetry_equiv_pos_as_xyz
  1  'x, y, z'
loop_
 _atom_site_type_symbol
 _atom_site_label
 _atom_site_symmetry_multiplicity
 _atom_site_fract_x
 _atom_site_fract_y
 _atom_site_fract_z
 _atom_site_occupancy
  Li  Li0  1  0.124396  0.750000  0.439482  1
  Li  Li1  1  0.641178  0.750000  0.055109  1
  Yb  Yb2  1  0.956905  0.250000  0.183174  1
  Ce  Ce3  1  0.456173  0.250000  0.311473  1
  Ce  Ce4  1  0.039604  0.750000  0.826609  1
  Ce  Ce5  1  0.531583  0.750000  0.681925  1
  Al  Al6  1  0.871704  0.250000  0.554584  1
  Al  Al7  1  0.382018  0.250000  0.945790  1
  Ir  Ir8  1  0.747142  0.250000  0.848619  1
  Ir  Ir9  1  0.240424  0.250000  0.644698  1
  Ir  Ir10  1  0.271077  0.750000  0.112742  1
  Ir  Ir11  1  0.737794  0.750000  0.395794  1
