# generated using pymatgen
data_HfZr5BeTe2
_symmetry_space_group_name_H-M   'P 1'
_cell_length_a   7.57120500
_cell_length_b   7.58096620
_cell_length_c   3.83754900
_cell_angle_alpha   90.00000000
_cell_angle_beta   90.00000000
_cell_angle_gamma   119.95741154
_symmetry_Int_Tables_number   1
_chemical_formula_structural   HfZr5BeTe2
_chemical_formula_sum   'Hf1 Zr5 Be1 Te2'
_cell_volume   190.83601918
_cell_formula_units_Z   1
loop_
 _symmetry_equiv_pos_site_id
 _symmetry_equiv_pos_as_xyz
  1  'x, y, z'
loop_
 _atom_site_type_symbol
 _atom_site_label
 _atom_site_symmetry_multiplicity
 _atom_site_fract_x
 _atom_site_fract_y
 _atom_site_fract_z
 _atom_site_occupancy
  Hf  Hf0  1  0.232105  0.000000  0.500000  1
  Zr  Zr1  1  0.001007  0.233771  0.500000  1
  Zr  Zr2  1  0.767237  0.766229  0.500000  1
  Zr  Zr3  1  0.597564  0.000000  0.000000  1
  Zr  Zr4  1  0.000238  0.599873  0.000000  1
  Zr  Zr5  1  0.400365  0.400127  0.000000  1
  Be  Be6  1  0.001880  0.000000  0.000000  1
  Te  Te7  1  0.333495  0.667385  0.500000  1
  Te  Te8  1  0.666111  0.332615  0.500000  1
