# generated using pymatgen
data_Dy8VSi16Tc11
_symmetry_space_group_name_H-M   'P 1'
_cell_length_a   6.80490146
_cell_length_b   6.78953382
_cell_length_c   12.70370006
_cell_angle_alpha   90.46517834
_cell_angle_beta   89.85598321
_cell_angle_gamma   89.87869710
_symmetry_Int_Tables_number   1
_chemical_formula_structural   Dy8VSi16Tc11
_chemical_formula_sum   'Dy8 V1 Si16 Tc11'
_cell_volume   586.91519052
_cell_formula_units_Z   1
loop_
 _symmetry_equiv_pos_site_id
 _symmetry_equiv_pos_as_xyz
  1  'x, y, z'
loop_
 _atom_site_type_symbol
 _atom_site_label
 _atom_site_symmetry_multiplicity
 _atom_site_fract_x
 _atom_site_fract_y
 _atom_site_fract_z
 _atom_site_occupancy
  Dy  Dy0  1  0.009100  0.661480  0.031512  1
  Dy  Dy1  1  0.996826  0.335969  0.530010  1
  Dy  Dy2  1  0.666485  0.001241  0.970512  1
  Dy  Dy3  1  0.164025  0.498557  0.779865  1
  Dy  Dy4  1  0.839981  0.504450  0.280327  1
  Dy  Dy5  1  0.498666  0.163566  0.219898  1
  Dy  Dy6  1  0.506708  0.836120  0.718652  1
  Dy  Dy7  1  0.337820  0.993945  0.468455  1
  V  V8  1  0.672635  0.497661  0.872569  1
  Si  Si9  1  0.016023  0.729575  0.438994  1
  Si  Si10  1  0.974660  0.282381  0.935865  1
  Si  Si11  1  0.725729  0.021193  0.562065  1
  Si  Si12  1  0.234063  0.482023  0.188220  1
  Si  Si13  1  0.777477  0.527019  0.683636  1
  Si  Si14  1  0.464655  0.213058  0.815458  1
  Si  Si15  1  0.517786  0.767533  0.310491  1
  Si  Si16  1  0.282030  0.976683  0.063650  1
  Si  Si17  1  0.810023  0.886486  0.186841  1
  Si  Si18  1  0.303718  0.616825  0.564469  1
  Si  Si19  1  0.697982  0.387233  0.061448  1
  Si  Si20  1  0.612952  0.308334  0.437519  1
  Si  Si21  1  0.385516  0.697539  0.934870  1
  Si  Si22  1  0.112988  0.191192  0.312858  1
  Si  Si23  1  0.191322  0.114638  0.689044  1
  Si  Si24  1  0.880978  0.802804  0.814356  1
  Tc  Tc25  1  0.311403  0.478273  0.382314  1
  Tc  Tc26  1  0.812278  0.020427  0.370330  1
  Tc  Tc27  1  0.990726  0.178949  0.125285  1
  Tc  Tc28  1  0.016944  0.816959  0.630553  1
  Tc  Tc29  1  0.479109  0.324087  0.626569  1
  Tc  Tc30  1  0.175870  0.987712  0.875476  1
  Tc  Tc31  1  0.666404  0.665543  0.500003  1
  Tc  Tc32  1  0.834587  0.172094  0.753202  1
  Tc  Tc33  1  0.167363  0.832900  0.249922  1
  Tc  Tc34  1  0.339453  0.337551  0.997049  1
  Tc  Tc35  1  0.525715  0.688005  0.117712  1
