# generated using pymatgen
data_Ho8Ga12PdAu3
_symmetry_space_group_name_H-M   'P 1'
_cell_length_a   7.10390400
_cell_length_b   8.92180358
_cell_length_c   8.92180300
_cell_angle_alpha   119.99999415
_cell_angle_beta   90.00000000
_cell_angle_gamma   90.00000000
_symmetry_Int_Tables_number   1
_chemical_formula_structural   Ho8Ga12PdAu3
_chemical_formula_sum   'Ho8 Ga12 Pd1 Au3'
_cell_volume   489.70329721
_cell_formula_units_Z   1
loop_
 _symmetry_equiv_pos_site_id
 _symmetry_equiv_pos_as_xyz
  1  'x, y, z'
loop_
 _atom_site_type_symbol
 _atom_site_label
 _atom_site_symmetry_multiplicity
 _atom_site_fract_x
 _atom_site_fract_y
 _atom_site_fract_z
 _atom_site_occupancy
  Ho  Ho0  1  0.746495  0.000000  0.000000  1
  Ho  Ho1  1  0.250614  0.000000  0.000000  1
  Ho  Ho2  1  0.749348  0.487236  0.512764  1
  Ho  Ho3  1  0.252523  0.514875  0.485125  1
  Ho  Ho4  1  0.749348  0.025528  0.512764  1
  Ho  Ho5  1  0.252523  0.970249  0.485125  1
  Ho  Ho6  1  0.749348  0.487236  0.974472  1
  Ho  Ho7  1  0.252523  0.514875  0.029751  1
  Ga  Ga8  1  0.959428  0.835876  0.164124  1
  Ga  Ga9  1  0.038832  0.164539  0.835461  1
  Ga  Ga10  1  0.959428  0.328249  0.164124  1
  Ga  Ga11  1  0.465382  0.163896  0.836104  1
  Ga  Ga12  1  0.038832  0.670923  0.835461  1
  Ga  Ga13  1  0.536271  0.832038  0.167962  1
  Ga  Ga14  1  0.959428  0.835876  0.671751  1
  Ga  Ga15  1  0.465382  0.672208  0.836104  1
  Ga  Ga16  1  0.038832  0.164539  0.329077  1
  Ga  Ga17  1  0.536271  0.335924  0.167962  1
  Ga  Ga18  1  0.465382  0.163896  0.327792  1
  Ga  Ga19  1  0.536271  0.832038  0.664076  1
  Pd  Pd20  1  0.525418  0.666667  0.333333  1
  Au  Au21  1  0.969830  0.666667  0.333333  1
  Au  Au22  1  0.030844  0.333333  0.666667  1
  Au  Au23  1  0.471452  0.333333  0.666667  1
