# generated using pymatgen
data_Y2Th2(Al8Pd3)3
_symmetry_space_group_name_H-M   'P 1'
_cell_length_a   7.60549287
_cell_length_b   7.61785818
_cell_length_c   13.20999069
_cell_angle_alpha   84.42356644
_cell_angle_beta   78.89918844
_cell_angle_gamma   59.88383756
_symmetry_Int_Tables_number   1
_chemical_formula_structural   Y2Th2(Al8Pd3)3
_chemical_formula_sum   'Y2 Th2 Al24 Pd9'
_cell_volume   649.65246776
_cell_formula_units_Z   1
loop_
 _symmetry_equiv_pos_site_id
 _symmetry_equiv_pos_as_xyz
  1  'x, y, z'
loop_
 _atom_site_type_symbol
 _atom_site_label
 _atom_site_symmetry_multiplicity
 _atom_site_fract_x
 _atom_site_fract_y
 _atom_site_fract_z
 _atom_site_occupancy
  Y  Y0  1  0.394347  0.167199  0.807209  1
  Y  Y1  1  0.605653  0.832801  0.192791  1
  Th  Th2  1  0.733345  0.498721  0.806745  1
  Th  Th3  1  0.266655  0.501279  0.193255  1
  Al  Al4  1  0.683485  0.836811  0.946802  1
  Al  Al5  1  0.316515  0.163189  0.053198  1
  Al  Al6  1  0.145205  0.834625  0.561876  1
  Al  Al7  1  0.854795  0.165375  0.438124  1
  Al  Al8  1  0.481030  0.166120  0.559987  1
  Al  Al9  1  0.518970  0.833880  0.440013  1
  Al  Al10  1  0.215868  0.162095  0.333656  1
  Al  Al11  1  0.784132  0.837905  0.666344  1
  Al  Al12  1  0.434744  0.507006  0.666426  1
  Al  Al13  1  0.565256  0.492994  0.333574  1
  Al  Al14  1  0.114674  0.155939  0.664710  1
  Al  Al15  1  0.885326  0.844061  0.335290  1
  Al  Al16  1  0.348257  0.499626  0.944186  1
  Al  Al17  1  0.651743  0.500374  0.055814  1
  Al  Al18  1  0.017197  0.164944  0.956457  1
  Al  Al19  1  0.982803  0.835056  0.043543  1
  Al  Al20  1  0.186470  0.500133  0.441490  1
  Al  Al21  1  0.813530  0.499867  0.558510  1
  Al  Al22  1  0.737644  0.160350  0.184211  1
  Al  Al23  1  0.262356  0.839650  0.815789  1
  Al  Al24  1  0.063209  0.632250  0.813908  1
  Al  Al25  1  0.936791  0.367750  0.186092  1
  Al  Al26  1  0.856630  0.037535  0.815619  1
  Al  Al27  1  0.143370  0.962465  0.184381  1
  Pd  Pd28  1  0.120878  0.492359  0.637684  1
  Pd  Pd29  1  0.879122  0.507641  0.362316  1
  Pd  Pd30  1  0.656398  0.173289  0.999944  1
  Pd  Pd31  1  0.343602  0.826711  0.000056  1
  Pd  Pd32  1  0.537162  0.167659  0.362485  1
  Pd  Pd33  1  0.462838  0.832341  0.637515  1
  Pd  Pd34  1  0.779180  0.175587  0.637543  1
  Pd  Pd35  1  0.220820  0.824413  0.362457  1
  Pd  Pd36  1  0.000000  0.500000  0.000000  1
