# generated using pymatgen
data_K3Li2SiP3
_symmetry_space_group_name_H-M   'P 1'
_cell_length_a   9.68088434
_cell_length_b   9.68088372
_cell_length_c   14.71286600
_cell_angle_alpha   90.00000000
_cell_angle_beta   90.00000000
_cell_angle_gamma   143.04221107
_symmetry_Int_Tables_number   1
_chemical_formula_structural   K3Li2SiP3
_chemical_formula_sum   'K12 Li8 Si4 P12'
_cell_volume   829.02078708
_cell_formula_units_Z   4
loop_
 _symmetry_equiv_pos_site_id
 _symmetry_equiv_pos_as_xyz
  1  'x, y, z'
loop_
 _atom_site_type_symbol
 _atom_site_label
 _atom_site_symmetry_multiplicity
 _atom_site_fract_x
 _atom_site_fract_y
 _atom_site_fract_z
 _atom_site_occupancy
  K  K0  1  0.107002  0.444616  0.669909  1
  K  K1  1  0.720901  0.720901  0.677285  1
  K  K2  1  0.220901  0.220901  0.822715  1
  K  K3  1  0.779099  0.779099  0.177285  1
  K  K4  1  0.944616  0.607002  0.830091  1
  K  K5  1  0.555384  0.892998  0.330091  1
  K  K6  1  0.392998  0.055384  0.169909  1
  K  K7  1  0.055384  0.392998  0.169909  1
  K  K8  1  0.892998  0.555384  0.330091  1
  K  K9  1  0.444616  0.107002  0.669909  1
  K  K10  1  0.607002  0.944617  0.830091  1
  K  K11  1  0.279099  0.279099  0.322715  1
  Li  Li12  1  0.919063  0.080937  0.000000  1
  Li  Li13  1  0.580937  0.419063  0.500000  1
  Li  Li14  1  0.080937  0.919063  0.000000  1
  Li  Li15  1  0.419063  0.580937  0.500000  1
  Li  Li16  1  0.752774  0.247226  0.000000  1
  Li  Li17  1  0.747226  0.252774  0.500000  1
  Li  Li18  1  0.247226  0.752774  0.000000  1
  Li  Li19  1  0.252774  0.747226  0.500000  1
  Si  Si20  1  0.087250  0.912750  0.500000  1
  Si  Si21  1  0.412750  0.587250  0.000000  1
  Si  Si22  1  0.912750  0.087250  0.500000  1
  Si  Si23  1  0.587250  0.412750  0.000000  1
  P  P24  1  0.876789  0.561339  0.089135  1
  P  P25  1  0.438661  0.123211  0.910865  1
  P  P26  1  0.623211  0.938661  0.589135  1
  P  P27  1  0.938661  0.623211  0.589135  1
  P  P28  1  0.123211  0.438661  0.910865  1
  P  P29  1  0.561339  0.876789  0.089135  1
  P  P30  1  0.376789  0.061339  0.410865  1
  P  P31  1  0.202060  0.202060  0.581575  1
  P  P32  1  0.702060  0.702060  0.918425  1
  P  P33  1  0.297940  0.297940  0.081575  1
  P  P34  1  0.061339  0.376789  0.410865  1
  P  P35  1  0.797940  0.797940  0.418425  1
