# generated using pymatgen
data_Yb5Pa3Pd24Pb
_symmetry_space_group_name_H-M   'P 1'
_cell_length_a   8.40884262
_cell_length_b   8.40884262
_cell_length_c   8.38049403
_cell_angle_alpha   89.61187992
_cell_angle_beta   89.61187992
_cell_angle_gamma   89.36004234
_symmetry_Int_Tables_number   1
_chemical_formula_structural   Yb5Pa3Pd24Pb
_chemical_formula_sum   'Yb5 Pa3 Pd24 Pb1'
_cell_volume   592.50943426
_cell_formula_units_Z   1
loop_
 _symmetry_equiv_pos_site_id
 _symmetry_equiv_pos_as_xyz
  1  'x, y, z'
loop_
 _atom_site_type_symbol
 _atom_site_label
 _atom_site_symmetry_multiplicity
 _atom_site_fract_x
 _atom_site_fract_y
 _atom_site_fract_z
 _atom_site_occupancy
  Yb  Yb0  1  0.747699  0.249496  0.747445  1
  Yb  Yb1  1  0.253475  0.253475  0.750304  1
  Yb  Yb2  1  0.250109  0.750565  0.252454  1
  Yb  Yb3  1  0.249496  0.747699  0.747445  1
  Yb  Yb4  1  0.750565  0.250109  0.252454  1
  Pa  Pa5  1  0.257410  0.257410  0.257219  1
  Pa  Pa6  1  0.743230  0.743230  0.747092  1
  Pa  Pa7  1  0.746133  0.746133  0.250439  1
  Pd  Pd8  1  0.266613  0.498940  0.008950  1
  Pd  Pd9  1  0.733848  0.502368  0.000576  1
  Pd  Pd10  1  0.008042  0.266781  0.496268  1
  Pd  Pd11  1  0.498940  0.266613  0.008950  1
  Pd  Pd12  1  0.989183  0.733226  0.498081  1
  Pd  Pd13  1  0.502368  0.733848  0.000576  1
  Pd  Pd14  1  0.501471  0.999296  0.266764  1
  Pd  Pd15  1  0.266781  0.008042  0.496268  1
  Pd  Pd16  1  0.502323  0.992028  0.732827  1
  Pd  Pd17  1  0.733226  0.989183  0.498081  1
  Pd  Pd18  1  0.999296  0.501471  0.266764  1
  Pd  Pd19  1  0.992028  0.502323  0.732827  1
  Pd  Pd20  1  0.254585  0.498061  0.495733  1
  Pd  Pd21  1  0.744097  0.503159  0.498117  1
  Pd  Pd22  1  0.498061  0.254585  0.495733  1
  Pd  Pd23  1  0.503159  0.744097  0.498117  1
  Pd  Pd24  1  0.502324  0.502324  0.255991  1
  Pd  Pd25  1  0.504199  0.504199  0.745829  1
  Pd  Pd26  1  0.315254  0.003791  0.002941  1
  Pd  Pd27  1  0.686248  0.996142  0.999061  1
  Pd  Pd28  1  0.003791  0.315254  0.002941  1
  Pd  Pd29  1  0.996142  0.686248  0.999061  1
  Pd  Pd30  1  0.000670  0.000670  0.313846  1
  Pd  Pd31  1  0.997312  0.997312  0.683277  1
  Pb  Pb32  1  0.001921  0.001921  0.997567  1
