# generated using pymatgen
data_PrPuAsCl2
_symmetry_space_group_name_H-M   'P 1'
_cell_length_a   4.17657100
_cell_length_b   4.17657074
_cell_length_c   9.98418200
_cell_angle_alpha   90.00000000
_cell_angle_beta   90.00000000
_cell_angle_gamma   120.00000996
_symmetry_Int_Tables_number   1
_chemical_formula_structural   PrPuAsCl2
_chemical_formula_sum   'Pr1 Pu1 As1 Cl2'
_cell_volume   150.82828316
_cell_formula_units_Z   1
loop_
 _symmetry_equiv_pos_site_id
 _symmetry_equiv_pos_as_xyz
  1  'x, y, z'
loop_
 _atom_site_type_symbol
 _atom_site_label
 _atom_site_symmetry_multiplicity
 _atom_site_fract_x
 _atom_site_fract_y
 _atom_site_fract_z
 _atom_site_occupancy
  Pr  Pr0  1  0.333334  0.666668  0.832490  1
  Pu  Pu1  1  0.666667  0.333334  0.171829  1
  As  As2  1  0.000000  0.000000  0.005244  1
  Cl  Cl3  1  0.333334  0.666668  0.324123  1
  Cl  Cl4  1  0.666667  0.333334  0.666316  1
