# generated using pymatgen
data_PSClF2
_symmetry_space_group_name_H-M   'P 1'
_cell_length_a   5.34299400
_cell_length_b   10.36265388
_cell_length_c   10.17284453
_cell_angle_alpha   83.26622131
_cell_angle_beta   90.00000000
_cell_angle_gamma   90.00000000
_symmetry_Int_Tables_number   1
_chemical_formula_structural   PSClF2
_chemical_formula_sum   'P4 S4 Cl4 F8'
_cell_volume   559.36051845
_cell_formula_units_Z   4
loop_
 _symmetry_equiv_pos_site_id
 _symmetry_equiv_pos_as_xyz
  1  'x, y, z'
loop_
 _atom_site_type_symbol
 _atom_site_label
 _atom_site_symmetry_multiplicity
 _atom_site_fract_x
 _atom_site_fract_y
 _atom_site_fract_z
 _atom_site_occupancy
  P  P0  1  0.945225  0.405624  0.278895  1
  P  P1  1  0.445225  0.094376  0.721105  1
  P  P2  1  0.054775  0.594376  0.721105  1
  P  P3  1  0.554775  0.905624  0.278895  1
  S  S4  1  0.777989  0.332159  0.142300  1
  S  S5  1  0.277989  0.167841  0.857700  1
  S  S6  1  0.222011  0.667841  0.857700  1
  S  S7  1  0.722011  0.832159  0.142300  1
  Cl  Cl8  1  0.192962  0.547696  0.232613  1
  Cl  Cl9  1  0.692962  0.952304  0.767387  1
  Cl  Cl10  1  0.807038  0.452304  0.767387  1
  Cl  Cl11  1  0.307038  0.047696  0.232613  1
  F  F12  1  0.776165  0.466546  0.382624  1
  F  F13  1  0.276165  0.033454  0.617376  1
  F  F14  1  0.223835  0.533454  0.617376  1
  F  F15  1  0.723835  0.966546  0.382624  1
  F  F16  1  0.101183  0.309256  0.378756  1
  F  F17  1  0.601183  0.190744  0.621244  1
  F  F18  1  0.898817  0.690744  0.621244  1
  F  F19  1  0.398817  0.809256  0.378756  1
