# generated using pymatgen
data_Rb2P2PbSe6
_symmetry_space_group_name_H-M   'P 1'
_cell_length_a   12.79059500
_cell_length_b   7.25316889
_cell_length_c   10.08874686
_cell_angle_alpha   52.88195196
_cell_angle_beta   90.00000000
_cell_angle_gamma   90.00000000
_symmetry_Int_Tables_number   1
_chemical_formula_structural   Rb2P2PbSe6
_chemical_formula_sum   'Rb4 P4 Pb2 Se12'
_cell_volume   746.32615399
_cell_formula_units_Z   2
loop_
 _symmetry_equiv_pos_site_id
 _symmetry_equiv_pos_as_xyz
  1  'x, y, z'
loop_
 _atom_site_type_symbol
 _atom_site_label
 _atom_site_symmetry_multiplicity
 _atom_site_fract_x
 _atom_site_fract_y
 _atom_site_fract_z
 _atom_site_occupancy
  Rb  Rb0  1  0.176140  0.275102  0.981245  1
  Rb  Rb1  1  0.676140  0.724898  0.518755  1
  Rb  Rb2  1  0.823860  0.724898  0.018755  1
  Rb  Rb3  1  0.323860  0.275102  0.481245  1
  P  P4  1  0.039450  0.645856  0.377358  1
  P  P5  1  0.539450  0.354144  0.122642  1
  P  P6  1  0.960550  0.354144  0.622642  1
  P  P7  1  0.460550  0.645856  0.877358  1
  Pb  Pb8  1  0.000000  0.000000  0.500000  1
  Pb  Pb9  1  0.500000  0.000000  0.000000  1
  Se  Se10  1  0.177680  0.745365  0.452117  1
  Se  Se11  1  0.677680  0.254635  0.047883  1
  Se  Se12  1  0.822320  0.254635  0.547883  1
  Se  Se13  1  0.322320  0.745365  0.952117  1
  Se  Se14  1  0.924358  0.929926  0.241740  1
  Se  Se15  1  0.424358  0.070074  0.258260  1
  Se  Se16  1  0.075642  0.070074  0.758260  1
  Se  Se17  1  0.575642  0.929926  0.741740  1
  Se  Se18  1  0.419206  0.504346  0.742951  1
  Se  Se19  1  0.919206  0.495654  0.757049  1
  Se  Se20  1  0.580794  0.495654  0.257049  1
  Se  Se21  1  0.080794  0.504346  0.242951  1
