# generated using pymatgen
data_BaRe2(Sb6Pt)2
_symmetry_space_group_name_H-M   'P 1'
_cell_length_a   8.25863099
_cell_length_b   8.25863028
_cell_length_c   8.29371418
_cell_angle_alpha   109.51044919
_cell_angle_beta   109.47381957
_cell_angle_gamma   109.25724816
_symmetry_Int_Tables_number   1
_chemical_formula_structural   BaRe2(Sb6Pt)2
_chemical_formula_sum   'Ba1 Re2 Sb12 Pt2'
_cell_volume   436.37578331
_cell_formula_units_Z   1
loop_
 _symmetry_equiv_pos_site_id
 _symmetry_equiv_pos_as_xyz
  1  'x, y, z'
loop_
 _atom_site_type_symbol
 _atom_site_label
 _atom_site_symmetry_multiplicity
 _atom_site_fract_x
 _atom_site_fract_y
 _atom_site_fract_z
 _atom_site_occupancy
  Ba  Ba0  1  0.000000  0.000000  0.000000  1
  Re  Re1  1  0.500000  0.000000  0.000000  1
  Re  Re2  1  0.000000  0.500000  0.000000  1
  Sb  Sb3  1  0.347315  0.187306  0.847520  1
  Sb  Sb4  1  0.652685  0.812694  0.152480  1
  Sb  Sb5  1  0.660213  0.500204  0.847520  1
  Sb  Sb6  1  0.339787  0.499796  0.152480  1
  Sb  Sb7  1  0.186876  0.837979  0.338303  1
  Sb  Sb8  1  0.813124  0.162021  0.661697  1
  Sb  Sb9  1  0.499675  0.848572  0.661697  1
  Sb  Sb10  1  0.500325  0.151428  0.338303  1
  Sb  Sb11  1  0.838950  0.337069  0.176018  1
  Sb  Sb12  1  0.161050  0.662931  0.823982  1
  Sb  Sb13  1  0.846832  0.652290  0.499121  1
  Sb  Sb14  1  0.153168  0.347710  0.500879  1
  Pt  Pt15  1  0.000000  0.000000  0.500000  1
  Pt  Pt16  1  0.500000  0.500000  0.500000  1
