# generated using pymatgen
data_Y9Ho11(SnBi)8
_symmetry_space_group_name_H-M   'P 1'
_cell_length_a   8.17963419
_cell_length_b   8.20597414
_cell_length_c   15.63714600
_cell_angle_alpha   90.00830882
_cell_angle_beta   90.01246134
_cell_angle_gamma   90.02903718
_symmetry_Int_Tables_number   1
_chemical_formula_structural   Y9Ho11(SnBi)8
_chemical_formula_sum   'Y9 Ho11 Sn8 Bi8'
_cell_volume   1049.59425821
_cell_formula_units_Z   1
loop_
 _symmetry_equiv_pos_site_id
 _symmetry_equiv_pos_as_xyz
  1  'x, y, z'
loop_
 _atom_site_type_symbol
 _atom_site_label
 _atom_site_symmetry_multiplicity
 _atom_site_fract_x
 _atom_site_fract_y
 _atom_site_fract_z
 _atom_site_occupancy
  Y  Y0  1  0.886652  0.661981  0.876587  1
  Y  Y1  1  0.553257  0.327691  0.890003  1
  Y  Y2  1  0.053398  0.172177  0.609941  1
  Y  Y3  1  0.446609  0.672139  0.389942  1
  Y  Y4  1  0.946521  0.827978  0.110173  1
  Y  Y5  1  0.446668  0.672081  0.110024  1
  Y  Y6  1  0.946605  0.827864  0.389916  1
  Y  Y7  1  0.553237  0.327761  0.609985  1
  Y  Y8  1  0.053381  0.172139  0.889911  1
  Ho  Ho9  1  0.386202  0.838247  0.875915  1
  Ho  Ho10  1  0.886141  0.661680  0.623967  1
  Ho  Ho11  1  0.613796  0.161678  0.375952  1
  Ho  Ho12  1  0.113734  0.338360  0.123969  1
  Ho  Ho13  1  0.613629  0.161598  0.124151  1
  Ho  Ho14  1  0.113796  0.338327  0.375971  1
  Ho  Ho15  1  0.386271  0.838382  0.623904  1
  Ho  Ho16  1  0.218120  0.498489  0.749829  1
  Ho  Ho17  1  0.717864  0.001407  0.749876  1
  Ho  Ho18  1  0.782038  0.501352  0.250084  1
  Ho  Ho19  1  0.282041  0.998662  0.249977  1
  Sn  Sn20  1  0.582940  0.627182  0.749808  1
  Sn  Sn21  1  0.083676  0.873019  0.749702  1
  Sn  Sn22  1  0.416664  0.372613  0.250046  1
  Sn  Sn23  1  0.916791  0.127387  0.249983  1
  Sn  Sn24  1  0.357898  0.143593  0.749951  1
  Sn  Sn25  1  0.857837  0.356132  0.749819  1
  Sn  Sn26  1  0.642107  0.856380  0.249999  1
  Sn  Sn27  1  0.142165  0.643592  0.249990  1
  Bi  Bi28  1  0.271655  0.021649  0.044355  1
  Bi  Bi29  1  0.771707  0.478311  0.455638  1
  Bi  Bi30  1  0.728269  0.978263  0.544268  1
  Bi  Bi31  1  0.229249  0.521193  0.955747  1
  Bi  Bi32  1  0.727770  0.979406  0.955839  1
  Bi  Bi33  1  0.228184  0.521703  0.544287  1
  Bi  Bi34  1  0.271768  0.021722  0.455623  1
  Bi  Bi35  1  0.771358  0.477862  0.044867  1
