# generated using pymatgen
data_Ba8YUSe12
_symmetry_space_group_name_H-M   'P 1'
_cell_length_a   9.05986912
_cell_length_b   9.05986790
_cell_length_c   9.05986905
_cell_angle_alpha   89.50873048
_cell_angle_beta   89.50873549
_cell_angle_gamma   89.50873848
_symmetry_Int_Tables_number   1
_chemical_formula_structural   Ba8YUSe12
_chemical_formula_sum   'Ba8 Y1 U1 Se12'
_cell_volume   743.56354151
_cell_formula_units_Z   1
loop_
 _symmetry_equiv_pos_site_id
 _symmetry_equiv_pos_as_xyz
  1  'x, y, z'
loop_
 _atom_site_type_symbol
 _atom_site_label
 _atom_site_symmetry_multiplicity
 _atom_site_fract_x
 _atom_site_fract_y
 _atom_site_fract_z
 _atom_site_occupancy
  Ba  Ba0  1  0.871415  0.622093  0.256231  1
  Ba  Ba1  1  0.256231  0.871415  0.622093  1
  Ba  Ba2  1  0.622093  0.256231  0.871415  1
  Ba  Ba3  1  0.743769  0.128585  0.377907  1
  Ba  Ba4  1  0.377907  0.743769  0.128585  1
  Ba  Ba5  1  0.128585  0.377907  0.743769  1
  Ba  Ba6  1  0.254994  0.254994  0.254994  1
  Ba  Ba7  1  0.745006  0.745006  0.745006  1
  Y  Y8  1  0.500000  0.500000  0.500000  1
  U  U9  1  0.000000  0.000000  0.000000  1
  Se  Se10  1  0.198165  0.563750  0.421004  1
  Se  Se11  1  0.421004  0.198165  0.563750  1
  Se  Se12  1  0.563750  0.421004  0.198165  1
  Se  Se13  1  0.926728  0.059056  0.708569  1
  Se  Se14  1  0.708569  0.926728  0.059056  1
  Se  Se15  1  0.059056  0.708569  0.926728  1
  Se  Se16  1  0.801835  0.436250  0.578996  1
  Se  Se17  1  0.578996  0.801835  0.436250  1
  Se  Se18  1  0.436250  0.578996  0.801835  1
  Se  Se19  1  0.073272  0.940944  0.291431  1
  Se  Se20  1  0.291431  0.073272  0.940944  1
  Se  Se21  1  0.940944  0.291431  0.073272  1
