# generated using pymatgen
data_Hf6Ti4Ga12Ir7
_symmetry_space_group_name_H-M   'P 1'
_cell_length_a   8.76697606
_cell_length_b   8.76697606
_cell_length_c   8.76697700
_cell_angle_alpha   60.00000024
_cell_angle_beta   60.00000023
_cell_angle_gamma   60.00000017
_symmetry_Int_Tables_number   1
_chemical_formula_structural   Hf6Ti4Ga12Ir7
_chemical_formula_sum   'Hf6 Ti4 Ga12 Ir7'
_cell_volume   476.46884981
_cell_formula_units_Z   1
loop_
 _symmetry_equiv_pos_site_id
 _symmetry_equiv_pos_as_xyz
  1  'x, y, z'
loop_
 _atom_site_type_symbol
 _atom_site_label
 _atom_site_symmetry_multiplicity
 _atom_site_fract_x
 _atom_site_fract_y
 _atom_site_fract_z
 _atom_site_occupancy
  Hf  Hf0  1  0.691445  0.691445  0.308555  1
  Hf  Hf1  1  0.308555  0.691445  0.308555  1
  Hf  Hf2  1  0.691445  0.308555  0.308555  1
  Hf  Hf3  1  0.308555  0.308555  0.691445  1
  Hf  Hf4  1  0.691445  0.308555  0.691445  1
  Hf  Hf5  1  0.308555  0.691445  0.691445  1
  Ti  Ti6  1  0.878583  0.878583  0.364251  1
  Ti  Ti7  1  0.878583  0.364251  0.878583  1
  Ti  Ti8  1  0.364251  0.878583  0.878583  1
  Ti  Ti9  1  0.878583  0.878583  0.878583  1
  Ga  Ga10  1  0.119638  0.119638  0.641086  1
  Ga  Ga11  1  0.119638  0.641086  0.119638  1
  Ga  Ga12  1  0.641086  0.119638  0.119638  1
  Ga  Ga13  1  0.119638  0.119638  0.119638  1
  Ga  Ga14  1  0.658443  0.658443  0.024671  1
  Ga  Ga15  1  0.658443  0.024671  0.658443  1
  Ga  Ga16  1  0.024671  0.658443  0.658443  1
  Ga  Ga17  1  0.658443  0.658443  0.658443  1
  Ga  Ga18  1  0.341338  0.341338  0.975985  1
  Ga  Ga19  1  0.341338  0.975985  0.341338  1
  Ga  Ga20  1  0.975985  0.341338  0.341338  1
  Ga  Ga21  1  0.341338  0.341338  0.341338  1
  Ir  Ir22  1  0.000000  0.000000  0.000000  1
  Ir  Ir23  1  0.997840  0.997840  0.502160  1
  Ir  Ir24  1  0.502160  0.997840  0.502160  1
  Ir  Ir25  1  0.997840  0.502160  0.502160  1
  Ir  Ir26  1  0.502160  0.502160  0.997840  1
  Ir  Ir27  1  0.997840  0.502160  0.997840  1
  Ir  Ir28  1  0.502160  0.997840  0.997840  1
