# generated using pymatgen
data_Yb2AgPd3
_symmetry_space_group_name_H-M   'P 1'
_cell_length_a   5.44865166
_cell_length_b   5.44865129
_cell_length_c   5.44865185
_cell_angle_alpha   60.93706559
_cell_angle_beta   60.93706791
_cell_angle_gamma   60.93706224
_symmetry_Int_Tables_number   1
_chemical_formula_structural   Yb2AgPd3
_chemical_formula_sum   'Yb2 Ag1 Pd3'
_cell_volume   116.79582161
_cell_formula_units_Z   1
loop_
 _symmetry_equiv_pos_site_id
 _symmetry_equiv_pos_as_xyz
  1  'x, y, z'
loop_
 _atom_site_type_symbol
 _atom_site_label
 _atom_site_symmetry_multiplicity
 _atom_site_fract_x
 _atom_site_fract_y
 _atom_site_fract_z
 _atom_site_occupancy
  Yb  Yb0  1  0.376690  0.376690  0.376690  1
  Yb  Yb1  1  0.623310  0.623310  0.623310  1
  Ag  Ag2  1  0.000000  0.000000  0.000000  1
  Pd  Pd3  1  0.500000  0.000000  0.000000  1
  Pd  Pd4  1  0.000000  0.500000  0.000000  1
  Pd  Pd5  1  0.000000  0.000000  0.500001  1
