# generated using pymatgen
data_Pr6Cd23Sb
_symmetry_space_group_name_H-M   'P 1'
_cell_length_a   10.17396152
_cell_length_b   10.17396189
_cell_length_c   10.17396100
_cell_angle_alpha   59.99999964
_cell_angle_beta   59.99999845
_cell_angle_gamma   59.99999828
_symmetry_Int_Tables_number   1
_chemical_formula_structural   Pr6Cd23Sb
_chemical_formula_sum   'Pr6 Cd23 Sb1'
_cell_volume   744.65525081
_cell_formula_units_Z   1
loop_
 _symmetry_equiv_pos_site_id
 _symmetry_equiv_pos_as_xyz
  1  'x, y, z'
loop_
 _atom_site_type_symbol
 _atom_site_label
 _atom_site_symmetry_multiplicity
 _atom_site_fract_x
 _atom_site_fract_y
 _atom_site_fract_z
 _atom_site_occupancy
  Pr  Pr0  1  0.782425  0.782425  0.217575  1
  Pr  Pr1  1  0.217575  0.782425  0.217575  1
  Pr  Pr2  1  0.782425  0.217575  0.217575  1
  Pr  Pr3  1  0.217575  0.217575  0.782425  1
  Pr  Pr4  1  0.782425  0.217575  0.782425  1
  Pr  Pr5  1  0.217575  0.782425  0.782425  1
  Cd  Cd6  1  0.833507  0.833507  0.499480  1
  Cd  Cd7  1  0.833507  0.499480  0.833507  1
  Cd  Cd8  1  0.499480  0.833507  0.833507  1
  Cd  Cd9  1  0.833507  0.833507  0.833507  1
  Cd  Cd10  1  0.166493  0.166493  0.500520  1
  Cd  Cd11  1  0.166493  0.500520  0.166493  1
  Cd  Cd12  1  0.500520  0.166493  0.166493  1
  Cd  Cd13  1  0.166493  0.166493  0.166493  1
  Cd  Cd14  1  0.622719  0.622719  0.131843  1
  Cd  Cd15  1  0.622719  0.131843  0.622719  1
  Cd  Cd16  1  0.131843  0.622719  0.622719  1
  Cd  Cd17  1  0.622719  0.622719  0.622719  1
  Cd  Cd18  1  0.377281  0.377281  0.868157  1
  Cd  Cd19  1  0.377281  0.868157  0.377281  1
  Cd  Cd20  1  0.868157  0.377281  0.377281  1
  Cd  Cd21  1  0.377281  0.377281  0.377281  1
  Cd  Cd22  1  0.000000  0.000000  0.500000  1
  Cd  Cd23  1  0.500000  0.000000  0.500000  1
  Cd  Cd24  1  0.000000  0.500000  0.500000  1
  Cd  Cd25  1  0.500000  0.500000  0.000000  1
  Cd  Cd26  1  0.000000  0.500000  0.000000  1
  Cd  Cd27  1  0.500000  0.000000  0.000000  1
  Cd  Cd28  1  0.500000  0.500000  0.500000  1
  Sb  Sb29  1  0.000000  0.000000  0.000000  1
