# generated using pymatgen
data_Tb8MgCdOsPt
_symmetry_space_group_name_H-M   'P 1'
_cell_length_a   9.72634429
_cell_length_b   9.72634477
_cell_length_c   9.80995700
_cell_angle_alpha   59.71521789
_cell_angle_beta   59.71521622
_cell_angle_gamma   59.49554350
_symmetry_Int_Tables_number   1
_chemical_formula_structural   Tb8MgCdOsPt
_chemical_formula_sum   'Tb16 Mg2 Cd2 Os2 Pt2'
_cell_volume   650.87812099
_cell_formula_units_Z   2
loop_
 _symmetry_equiv_pos_site_id
 _symmetry_equiv_pos_as_xyz
  1  'x, y, z'
loop_
 _atom_site_type_symbol
 _atom_site_label
 _atom_site_symmetry_multiplicity
 _atom_site_fract_x
 _atom_site_fract_y
 _atom_site_fract_z
 _atom_site_occupancy
  Tb  Tb0  1  0.348562  0.348562  0.353119  1
  Tb  Tb1  1  0.348562  0.348562  0.949756  1
  Tb  Tb2  1  0.343987  0.959399  0.348307  1
  Tb  Tb3  1  0.959399  0.343987  0.348307  1
  Tb  Tb4  1  0.815216  0.187320  0.189914  1
  Tb  Tb5  1  0.187320  0.815216  0.807550  1
  Tb  Tb6  1  0.187320  0.815216  0.189914  1
  Tb  Tb7  1  0.815216  0.187320  0.807550  1
  Tb  Tb8  1  0.188752  0.188752  0.811248  1
  Tb  Tb9  1  0.810456  0.810456  0.189544  1
  Tb  Tb10  1  0.938845  0.557457  0.567248  1
  Tb  Tb11  1  0.557457  0.938845  0.936449  1
  Tb  Tb12  1  0.557457  0.938845  0.567248  1
  Tb  Tb13  1  0.938845  0.557457  0.936449  1
  Tb  Tb14  1  0.564562  0.564562  0.935438  1
  Tb  Tb15  1  0.938670  0.938670  0.561330  1
  Mg  Mg16  1  0.576232  0.576232  0.579935  1
  Mg  Mg17  1  0.576232  0.576232  0.267600  1
  Cd  Cd18  1  0.581692  0.255254  0.581527  1
  Cd  Cd19  1  0.255254  0.581692  0.581527  1
  Os  Os20  1  0.144873  0.144873  0.135746  1
  Os  Os21  1  0.144873  0.144873  0.574508  1
  Pt  Pt22  1  0.145969  0.574247  0.139893  1
  Pt  Pt23  1  0.574247  0.145969  0.139893  1
