# generated using pymatgen
data_Er3In3IrPd2
_symmetry_space_group_name_H-M   'P 1'
_cell_length_a   7.71715800
_cell_length_b   7.71715811
_cell_length_c   3.77189700
_cell_angle_alpha   90.00000000
_cell_angle_beta   90.00000000
_cell_angle_gamma   119.99999953
_symmetry_Int_Tables_number   1
_chemical_formula_structural   Er3In3IrPd2
_chemical_formula_sum   'Er3 In3 Ir1 Pd2'
_cell_volume   194.53835932
_cell_formula_units_Z   1
loop_
 _symmetry_equiv_pos_site_id
 _symmetry_equiv_pos_as_xyz
  1  'x, y, z'
loop_
 _atom_site_type_symbol
 _atom_site_label
 _atom_site_symmetry_multiplicity
 _atom_site_fract_x
 _atom_site_fract_y
 _atom_site_fract_z
 _atom_site_occupancy
  Er  Er0  1  0.414089  0.016152  0.500000  1
  Er  Er1  1  0.602064  0.585911  0.500000  1
  Er  Er2  1  0.983848  0.397936  0.500000  1
  In  In3  1  0.261885  0.264550  0.000000  1
  In  In4  1  0.735450  0.997335  0.000000  1
  In  In5  1  0.002665  0.738115  0.000000  1
  Ir  Ir6  1  0.666667  0.333333  0.000000  1
  Pd  Pd7  1  0.000000  0.000000  0.500000  1
  Pd  Pd8  1  0.333333  0.666667  0.000000  1
