# generated using pymatgen
data_Th10Ga2(SnBi)3
_symmetry_space_group_name_H-M   'P 1'
_cell_length_a   9.65609300
_cell_length_b   9.65609389
_cell_length_c   6.57229500
_cell_angle_alpha   90.00000000
_cell_angle_beta   90.00000000
_cell_angle_gamma   120.00000723
_symmetry_Int_Tables_number   1
_chemical_formula_structural   Th10Ga2(SnBi)3
_chemical_formula_sum   'Th10 Ga2 Sn3 Bi3'
_cell_volume   530.70180961
_cell_formula_units_Z   1
loop_
 _symmetry_equiv_pos_site_id
 _symmetry_equiv_pos_as_xyz
  1  'x, y, z'
loop_
 _atom_site_type_symbol
 _atom_site_label
 _atom_site_symmetry_multiplicity
 _atom_site_fract_x
 _atom_site_fract_y
 _atom_site_fract_z
 _atom_site_occupancy
  Th  Th0  1  0.735079  0.735079  0.750000  1
  Th  Th1  1  0.264921  0.000000  0.750000  1
  Th  Th2  1  0.000000  0.264921  0.750000  1
  Th  Th3  1  0.264964  0.264964  0.250000  1
  Th  Th4  1  0.735036  0.000000  0.250000  1
  Th  Th5  1  0.000000  0.735036  0.250000  1
  Th  Th6  1  0.666667  0.333333  0.003680  1
  Th  Th7  1  0.333333  0.666667  0.003680  1
  Th  Th8  1  0.333333  0.666667  0.496320  1
  Th  Th9  1  0.666667  0.333333  0.496320  1
  Ga  Ga10  1  0.000000  0.000000  0.999842  1
  Ga  Ga11  1  0.000000  0.000000  0.500158  1
  Sn  Sn12  1  0.617121  0.617121  0.250000  1
  Sn  Sn13  1  0.382879  0.000000  0.250000  1
  Sn  Sn14  1  0.000000  0.382879  0.250000  1
  Bi  Bi15  1  0.383864  0.383864  0.750000  1
  Bi  Bi16  1  0.616136  0.000000  0.750000  1
  Bi  Bi17  1  0.000000  0.616136  0.750000  1
