# generated using pymatgen
data_TbPaSi2NiRu
_symmetry_space_group_name_H-M   'P 1'
_cell_length_a   4.21913900
_cell_length_b   7.10004205
_cell_length_c   7.01327746
_cell_angle_alpha   92.07513940
_cell_angle_beta   90.00000000
_cell_angle_gamma   90.00000000
_symmetry_Int_Tables_number   1
_chemical_formula_structural   TbPaSi2NiRu
_chemical_formula_sum   'Tb2 Pa2 Si4 Ni2 Ru2'
_cell_volume   209.95241357
_cell_formula_units_Z   2
loop_
 _symmetry_equiv_pos_site_id
 _symmetry_equiv_pos_as_xyz
  1  'x, y, z'
loop_
 _atom_site_type_symbol
 _atom_site_label
 _atom_site_symmetry_multiplicity
 _atom_site_fract_x
 _atom_site_fract_y
 _atom_site_fract_z
 _atom_site_occupancy
  Tb  Tb0  1  0.250000  0.991816  0.794464  1
  Tb  Tb1  1  0.750000  0.008184  0.205536  1
  Pa  Pa2  1  0.250000  0.486996  0.669300  1
  Pa  Pa3  1  0.750000  0.513004  0.330700  1
  Si  Si4  1  0.250000  0.294405  0.101368  1
  Si  Si5  1  0.750000  0.705595  0.898632  1
  Si  Si6  1  0.250000  0.809507  0.399796  1
  Si  Si7  1  0.750000  0.190493  0.600204  1
  Ni  Ni8  1  0.750000  0.815360  0.577353  1
  Ni  Ni9  1  0.250000  0.184640  0.422647  1
  Ru  Ru10  1  0.750000  0.360501  0.934984  1
  Ru  Ru11  1  0.250000  0.639499  0.065016  1
