# generated using pymatgen
data_Y16In4Ru3Au
_symmetry_space_group_name_H-M   'P 1'
_cell_length_a   9.73077337
_cell_length_b   9.73077355
_cell_length_c   9.73077335
_cell_angle_alpha   60.06734721
_cell_angle_beta   60.06734349
_cell_angle_gamma   60.06734234
_symmetry_Int_Tables_number   1
_chemical_formula_structural   Y16In4Ru3Au
_chemical_formula_sum   'Y16 In4 Ru3 Au1'
_cell_volume   652.51335474
_cell_formula_units_Z   1
loop_
 _symmetry_equiv_pos_site_id
 _symmetry_equiv_pos_as_xyz
  1  'x, y, z'
loop_
 _atom_site_type_symbol
 _atom_site_label
 _atom_site_symmetry_multiplicity
 _atom_site_fract_x
 _atom_site_fract_y
 _atom_site_fract_z
 _atom_site_occupancy
  Y  Y0  1  0.107739  0.692484  0.107739  1
  Y  Y1  1  0.942690  0.942690  0.546048  1
  Y  Y2  1  0.942690  0.546048  0.942690  1
  Y  Y3  1  0.311598  0.690451  0.311598  1
  Y  Y4  1  0.941335  0.558840  0.558840  1
  Y  Y5  1  0.311598  0.311598  0.690451  1
  Y  Y6  1  0.095693  0.095693  0.095693  1
  Y  Y7  1  0.558840  0.558840  0.941335  1
  Y  Y8  1  0.107739  0.107739  0.692484  1
  Y  Y9  1  0.691674  0.314322  0.691674  1
  Y  Y10  1  0.691674  0.691674  0.314322  1
  Y  Y11  1  0.690451  0.311598  0.311598  1
  Y  Y12  1  0.314322  0.691674  0.691674  1
  Y  Y13  1  0.558840  0.941335  0.558840  1
  Y  Y14  1  0.692484  0.107739  0.107739  1
  Y  Y15  1  0.546048  0.942690  0.942690  1
  In  In16  1  0.333912  0.333912  0.333912  1
  In  In17  1  0.001007  0.332103  0.332103  1
  In  In18  1  0.332103  0.001007  0.332103  1
  In  In19  1  0.332103  0.332103  0.001007  1
  Ru  Ru20  1  0.887836  0.887836  0.327142  1
  Ru  Ru21  1  0.327142  0.887836  0.887836  1
  Ru  Ru22  1  0.887836  0.327142  0.887836  1
  Au  Au23  1  0.892641  0.892641  0.892641  1
