# generated using pymatgen
data_La13NdIr6
_symmetry_space_group_name_H-M   'P 1'
_cell_length_a   6.48955102
_cell_length_b   10.25948141
_cell_length_c   10.25927001
_cell_angle_alpha   119.97593715
_cell_angle_beta   89.99725755
_cell_angle_gamma   90.00886342
_symmetry_Int_Tables_number   1
_chemical_formula_structural   La13NdIr6
_chemical_formula_sum   'La13 Nd1 Ir6'
_cell_volume   591.68750761
_cell_formula_units_Z   1
loop_
 _symmetry_equiv_pos_site_id
 _symmetry_equiv_pos_as_xyz
  1  'x, y, z'
loop_
 _atom_site_type_symbol
 _atom_site_label
 _atom_site_symmetry_multiplicity
 _atom_site_fract_x
 _atom_site_fract_y
 _atom_site_fract_z
 _atom_site_occupancy
  La  La0  1  0.972887  0.666740  0.333290  1
  La  La1  1  0.250694  0.125857  0.874106  1
  La  La2  1  0.250697  0.748222  0.874162  1
  La  La3  1  0.250727  0.125794  0.251743  1
  La  La4  1  0.750482  0.874564  0.125455  1
  La  La5  1  0.750538  0.250976  0.125405  1
  La  La6  1  0.750443  0.874597  0.749037  1
  La  La7  1  0.437258  0.539433  0.460578  1
  La  La8  1  0.436886  0.921332  0.460796  1
  La  La9  1  0.436925  0.539220  0.078686  1
  La  La10  1  0.936807  0.459737  0.540242  1
  La  La11  1  0.936568  0.080305  0.540074  1
  La  La12  1  0.936580  0.459919  0.919691  1
  Nd  Nd13  1  0.469659  0.333302  0.666688  1
  Ir  Ir14  1  0.188982  0.811321  0.188681  1
  Ir  Ir15  1  0.188990  0.377349  0.188714  1
  Ir  Ir16  1  0.189027  0.811290  0.622652  1
  Ir  Ir17  1  0.689369  0.188355  0.811673  1
  Ir  Ir18  1  0.689248  0.623336  0.811664  1
  Ir  Ir19  1  0.689231  0.188351  0.376662  1
