# generated using pymatgen
data_Cs4Rb2ScInSb4
_symmetry_space_group_name_H-M   'P 1'
_cell_length_a   10.38667522
_cell_length_b   10.38598241
_cell_length_c   10.38667709
_cell_angle_alpha   130.21528496
_cell_angle_beta   67.32513478
_cell_angle_gamma   137.72565316
_symmetry_Int_Tables_number   1
_chemical_formula_structural   Cs4Rb2ScInSb4
_chemical_formula_sum   'Cs4 Rb2 Sc1 In1 Sb4'
_cell_volume   566.20227237
_cell_formula_units_Z   1
loop_
 _symmetry_equiv_pos_site_id
 _symmetry_equiv_pos_as_xyz
  1  'x, y, z'
loop_
 _atom_site_type_symbol
 _atom_site_label
 _atom_site_symmetry_multiplicity
 _atom_site_fract_x
 _atom_site_fract_y
 _atom_site_fract_z
 _atom_site_occupancy
  Cs  Cs0  1  0.329569  0.786588  0.102536  1
  Cs  Cs1  1  0.170398  0.272908  0.456994  1
  Cs  Cs2  1  0.815949  0.713413  0.542981  1
  Cs  Cs3  1  0.684088  0.227092  0.897491  1
  Rb  Rb4  1  0.250000  0.250000  0.000000  1
  Rb  Rb5  1  0.749995  0.750000  0.999995  1
  Sc  Sc6  1  0.250147  0.750000  0.500147  1
  In  In7  1  0.749839  0.250000  0.499840  1
  Sb  Sb8  1  0.909208  0.317403  0.220551  1
  Sb  Sb9  1  0.590968  0.811511  0.408200  1
  Sb  Sb10  1  0.403149  0.182597  0.591806  1
  Sb  Sb11  1  0.096691  0.688489  0.779457  1
