# generated using pymatgen
data_Tb3Er3Al24Os7Au
_symmetry_space_group_name_H-M   'P 1'
_cell_length_a   8.86792768
_cell_length_b   8.86025707
_cell_length_c   9.56011518
_cell_angle_alpha   89.79587753
_cell_angle_beta   90.18450554
_cell_angle_gamma   120.05006704
_symmetry_Int_Tables_number   1
_chemical_formula_structural   Tb3Er3Al24Os7Au
_chemical_formula_sum   'Tb3 Er3 Al24 Os7 Au1'
_cell_volume   650.18888535
_cell_formula_units_Z   1
loop_
 _symmetry_equiv_pos_site_id
 _symmetry_equiv_pos_as_xyz
  1  'x, y, z'
loop_
 _atom_site_type_symbol
 _atom_site_label
 _atom_site_symmetry_multiplicity
 _atom_site_fract_x
 _atom_site_fract_y
 _atom_site_fract_z
 _atom_site_occupancy
  Tb  Tb0  1  0.190353  0.385677  0.250955  1
  Tb  Tb1  1  0.809515  0.614392  0.748975  1
  Tb  Tb2  1  0.614226  0.809583  0.251015  1
  Er  Er3  1  0.388325  0.191059  0.748168  1
  Er  Er4  1  0.195406  0.804085  0.254651  1
  Er  Er5  1  0.804118  0.195794  0.745334  1
  Al  Al6  1  0.328096  0.671705  0.022868  1
  Al  Al7  1  0.671325  0.328434  0.976201  1
  Al  Al8  1  0.665880  0.333726  0.518615  1
  Al  Al9  1  0.333656  0.665857  0.482128  1
  Al  Al10  1  0.162865  0.325653  0.575764  1
  Al  Al11  1  0.837382  0.673754  0.424868  1
  Al  Al12  1  0.673934  0.837425  0.575754  1
  Al  Al13  1  0.849161  0.677528  0.079449  1
  Al  Al14  1  0.325833  0.162380  0.425405  1
  Al  Al15  1  0.151068  0.322145  0.920024  1
  Al  Al16  1  0.163465  0.837270  0.575214  1
  Al  Al17  1  0.322119  0.150733  0.078817  1
  Al  Al18  1  0.836601  0.163305  0.425378  1
  Al  Al19  1  0.677661  0.849266  0.920020  1
  Al  Al20  1  0.836384  0.163526  0.074442  1
  Al  Al21  1  0.163699  0.837220  0.924809  1
  Al  Al22  1  0.560229  0.121359  0.249117  1
  Al  Al23  1  0.439286  0.879226  0.750714  1
  Al  Al24  1  0.878540  0.439469  0.249267  1
  Al  Al25  1  0.121466  0.560493  0.750769  1
  Al  Al26  1  0.563875  0.435814  0.256124  1
  Al  Al27  1  0.435699  0.563006  0.744405  1
  Al  Al28  1  0.000692  0.999157  0.250406  1
  Al  Al29  1  0.001573  0.001931  0.749694  1
  Os  Os30  1  0.499666  0.000459  0.999346  1
  Os  Os31  1  0.999694  0.499813  0.999885  1
  Os  Os32  1  0.499634  0.000158  0.500523  1
  Os  Os33  1  0.999725  0.499842  0.500158  1
  Os  Os34  1  0.499672  0.499204  0.500684  1
  Os  Os35  1  0.999735  0.999962  0.000070  1
  Os  Os36  1  0.999658  0.999822  0.500005  1
  Au  Au37  1  0.499784  0.499769  0.999976  1
