# generated using pymatgen
data_Rb4US5
_symmetry_space_group_name_H-M   'P 1'
_cell_length_a   7.97375210
_cell_length_b   11.84647308
_cell_length_c   8.03391553
_cell_angle_alpha   101.60378907
_cell_angle_beta   102.88625328
_cell_angle_gamma   109.64465946
_symmetry_Int_Tables_number   1
_chemical_formula_structural   Rb4US5
_chemical_formula_sum   'Rb8 U2 S10'
_cell_volume   664.46183745
_cell_formula_units_Z   2
loop_
 _symmetry_equiv_pos_site_id
 _symmetry_equiv_pos_as_xyz
  1  'x, y, z'
loop_
 _atom_site_type_symbol
 _atom_site_label
 _atom_site_symmetry_multiplicity
 _atom_site_fract_x
 _atom_site_fract_y
 _atom_site_fract_z
 _atom_site_occupancy
  Rb  Rb0  1  0.000000  0.500000  0.000000  1
  Rb  Rb1  1  0.425155  0.906152  0.207521  1
  Rb  Rb2  1  0.599007  0.597882  0.295101  1
  Rb  Rb3  1  0.797823  0.301833  0.417186  1
  Rb  Rb4  1  0.000000  0.000000  0.499999  1
  Rb  Rb5  1  0.202178  0.698167  0.582814  1
  Rb  Rb6  1  0.400993  0.402118  0.704900  1
  Rb  Rb7  1  0.574844  0.093847  0.792480  1
  U  U8  1  0.186255  0.192126  0.099088  1
  U  U9  1  0.813745  0.807874  0.900911  1
  S  S10  1  0.501281  0.304760  0.062062  1
  S  S11  1  0.853724  0.034017  0.102083  1
  S  S12  1  0.975791  0.764711  0.177565  1
  S  S13  1  0.177499  0.387306  0.295645  1
  S  S14  1  0.357606  0.157376  0.379647  1
  S  S15  1  0.642394  0.842624  0.620353  1
  S  S16  1  0.822501  0.612694  0.704354  1
  S  S17  1  0.024209  0.235289  0.822435  1
  S  S18  1  0.146277  0.965983  0.897917  1
  S  S19  1  0.498720  0.695240  0.937938  1
