# generated using pymatgen
data_TmLu3Co3Si4Ru
_symmetry_space_group_name_H-M   'P 1'
_cell_length_a   4.16367400
_cell_length_b   6.74748308
_cell_length_c   7.01168971
_cell_angle_alpha   90.30270564
_cell_angle_beta   90.00000000
_cell_angle_gamma   90.00000000
_symmetry_Int_Tables_number   1
_chemical_formula_structural   TmLu3Co3Si4Ru
_chemical_formula_sum   'Tm1 Lu3 Co3 Si4 Ru1'
_cell_volume   196.98590412
_cell_formula_units_Z   1
loop_
 _symmetry_equiv_pos_site_id
 _symmetry_equiv_pos_as_xyz
  1  'x, y, z'
loop_
 _atom_site_type_symbol
 _atom_site_label
 _atom_site_symmetry_multiplicity
 _atom_site_fract_x
 _atom_site_fract_y
 _atom_site_fract_z
 _atom_site_occupancy
  Tm  Tm0  1  0.250000  0.490897  0.306031  1
  Lu  Lu1  1  0.750000  0.015872  0.811278  1
  Lu  Lu2  1  0.750000  0.511924  0.697352  1
  Lu  Lu3  1  0.250000  0.992540  0.187595  1
  Co  Co4  1  0.250000  0.150249  0.566795  1
  Co  Co5  1  0.750000  0.343541  0.061914  1
  Co  Co6  1  0.250000  0.648623  0.931628  1
  Si  Si7  1  0.750000  0.203519  0.398582  1
  Si  Si8  1  0.250000  0.301266  0.892458  1
  Si  Si9  1  0.750000  0.697212  0.098953  1
  Si  Si10  1  0.250000  0.801653  0.613070  1
  Ru  Ru11  1  0.750000  0.842703  0.434343  1
