# generated using pymatgen
data_Gd4LuSc3(B6Ru)4
_symmetry_space_group_name_H-M   'P 1'
_cell_length_a   3.59178800
_cell_length_b   9.02303308
_cell_length_c   11.41702910
_cell_angle_alpha   89.98457013
_cell_angle_beta   90.00000000
_cell_angle_gamma   90.00000000
_symmetry_Int_Tables_number   1
_chemical_formula_structural   Gd4LuSc3(B6Ru)4
_chemical_formula_sum   'Gd4 Lu1 Sc3 B24 Ru4'
_cell_volume   370.01244996
_cell_formula_units_Z   1
loop_
 _symmetry_equiv_pos_site_id
 _symmetry_equiv_pos_as_xyz
  1  'x, y, z'
loop_
 _atom_site_type_symbol
 _atom_site_label
 _atom_site_symmetry_multiplicity
 _atom_site_fract_x
 _atom_site_fract_y
 _atom_site_fract_z
 _atom_site_occupancy
  Gd  Gd0  1  0.000000  0.320486  0.413916  1
  Gd  Gd1  1  0.000000  0.679637  0.584737  1
  Gd  Gd2  1  0.000000  0.821722  0.086755  1
  Gd  Gd3  1  0.000000  0.178224  0.914780  1
  Lu  Lu4  1  0.000000  0.555324  0.873570  1
  Sc  Sc5  1  0.000000  0.944903  0.373746  1
  Sc  Sc6  1  0.000000  0.055082  0.625673  1
  Sc  Sc7  1  0.000000  0.444324  0.127879  1
  B  B8  1  0.500000  0.555414  0.431935  1
  B  B9  1  0.500000  0.444211  0.567299  1
  B  B10  1  0.500000  0.055621  0.068293  1
  B  B11  1  0.500000  0.945631  0.932159  1
  B  B12  1  0.500000  0.752902  0.418416  1
  B  B13  1  0.500000  0.246593  0.581024  1
  B  B14  1  0.500000  0.252348  0.082013  1
  B  B15  1  0.500000  0.750050  0.918641  1
  B  B16  1  0.500000  0.793650  0.265978  1
  B  B17  1  0.500000  0.205607  0.733626  1
  B  B18  1  0.500000  0.293336  0.234453  1
  B  B19  1  0.500000  0.708516  0.765019  1
  B  B20  1  0.500000  0.629389  0.183396  1
  B  B21  1  0.500000  0.368535  0.815949  1
  B  B22  1  0.500000  0.128974  0.317226  1
  B  B23  1  0.500000  0.871519  0.682414  1
  B  B24  1  0.500000  0.982481  0.215132  1
  B  B25  1  0.500000  0.017945  0.784734  1
  B  B26  1  0.500000  0.482651  0.285246  1
  B  B27  1  0.500000  0.516236  0.713371  1
  B  B28  1  0.500000  0.600104  0.029408  1
  B  B29  1  0.500000  0.398098  0.974619  1
  B  B30  1  0.500000  0.098859  0.472892  1
  B  B31  1  0.500000  0.901220  0.526599  1
  Ru  Ru32  1  0.000000  0.640420  0.318724  1
  Ru  Ru33  1  0.000000  0.358177  0.680255  1
  Ru  Ru34  1  0.000000  0.139840  0.182174  1
  Ru  Ru35  1  0.000000  0.861970  0.817949  1
