# generated using pymatgen
data_KMnNiAs2
_symmetry_space_group_name_H-M   'P 1'
_cell_length_a   7.37724199
_cell_length_b   7.37724130
_cell_length_c   7.37724219
_cell_angle_alpha   149.12127845
_cell_angle_beta   149.12126897
_cell_angle_gamma   44.23282488
_symmetry_Int_Tables_number   1
_chemical_formula_structural   KMnNiAs2
_chemical_formula_sum   'K1 Mn1 Ni1 As2'
_cell_volume   105.44512625
_cell_formula_units_Z   1
loop_
 _symmetry_equiv_pos_site_id
 _symmetry_equiv_pos_as_xyz
  1  'x, y, z'
loop_
 _atom_site_type_symbol
 _atom_site_label
 _atom_site_symmetry_multiplicity
 _atom_site_fract_x
 _atom_site_fract_y
 _atom_site_fract_z
 _atom_site_occupancy
  K  K0  1  0.000000  0.000000  0.000000  1
  Mn  Mn1  1  0.750000  0.250000  0.500000  1
  Ni  Ni2  1  0.250000  0.750000  0.500000  1
  As  As3  1  0.348592  0.348592  0.000000  1
  As  As4  1  0.651408  0.651408  0.000000  1
