# generated using pymatgen
data_Dy6NbCo16NiP12
_symmetry_space_group_name_H-M   'P 1'
_cell_length_a   3.71195600
_cell_length_b   10.55088100
_cell_length_c   12.27850300
_cell_angle_alpha   90.00000000
_cell_angle_beta   90.00000000
_cell_angle_gamma   90.00000000
_symmetry_Int_Tables_number   1
_chemical_formula_structural   Dy6NbCo16NiP12
_chemical_formula_sum   'Dy6 Nb1 Co16 Ni1 P12'
_cell_volume   480.88027697
_cell_formula_units_Z   1
loop_
 _symmetry_equiv_pos_site_id
 _symmetry_equiv_pos_as_xyz
  1  'x, y, z'
loop_
 _atom_site_type_symbol
 _atom_site_label
 _atom_site_symmetry_multiplicity
 _atom_site_fract_x
 _atom_site_fract_y
 _atom_site_fract_z
 _atom_site_occupancy
  Dy  Dy0  1  0.000000  0.500000  0.524619  1
  Dy  Dy1  1  0.500000  0.000000  0.477829  1
  Dy  Dy2  1  0.500000  0.819727  0.207459  1
  Dy  Dy3  1  0.500000  0.180273  0.207459  1
  Dy  Dy4  1  0.000000  0.684653  0.796635  1
  Dy  Dy5  1  0.000000  0.315347  0.796635  1
  Nb  Nb6  1  0.500000  0.500000  0.154602  1
  Co  Co7  1  0.000000  0.000000  0.838308  1
  Co  Co8  1  0.000000  0.000000  0.296333  1
  Co  Co9  1  0.000000  0.500000  0.984882  1
  Co  Co10  1  0.500000  0.000000  0.014595  1
  Co  Co11  1  0.500000  0.329571  0.989490  1
  Co  Co12  1  0.500000  0.670429  0.989490  1
  Co  Co13  1  0.000000  0.163553  0.003802  1
  Co  Co14  1  0.000000  0.836447  0.003802  1
  Co  Co15  1  0.500000  0.295551  0.433019  1
  Co  Co16  1  0.500000  0.704449  0.433019  1
  Co  Co17  1  0.000000  0.201629  0.569410  1
  Co  Co18  1  0.000000  0.798371  0.569410  1
  Co  Co19  1  0.500000  0.879664  0.708351  1
  Co  Co20  1  0.500000  0.120336  0.708351  1
  Co  Co21  1  0.000000  0.622799  0.294334  1
  Co  Co22  1  0.000000  0.377201  0.294334  1
  Ni  Ni23  1  0.500000  0.500000  0.702544  1
  P  P24  1  0.500000  0.500000  0.882122  1
  P  P25  1  0.000000  0.000000  0.117307  1
  P  P26  1  0.500000  0.500000  0.355025  1
  P  P27  1  0.000000  0.000000  0.655707  1
  P  P28  1  0.500000  0.309058  0.616682  1
  P  P29  1  0.500000  0.690942  0.616682  1
  P  P30  1  0.000000  0.188132  0.385635  1
  P  P31  1  0.000000  0.811868  0.385635  1
  P  P32  1  0.500000  0.851786  0.890353  1
  P  P33  1  0.500000  0.148214  0.890353  1
  P  P34  1  0.000000  0.661352  0.102895  1
  P  P35  1  0.000000  0.338648  0.102895  1
