# generated using pymatgen
data_Pr20(Si3Hg)3
_symmetry_space_group_name_H-M   'P 1'
_cell_length_a   7.84826400
_cell_length_b   7.84826400
_cell_length_c   14.84796700
_cell_angle_alpha   90.00000000
_cell_angle_beta   90.00000000
_cell_angle_gamma   90.00000000
_symmetry_Int_Tables_number   1
_chemical_formula_structural   Pr20(Si3Hg)3
_chemical_formula_sum   'Pr20 Si9 Hg3'
_cell_volume   914.56420689
_cell_formula_units_Z   1
loop_
 _symmetry_equiv_pos_site_id
 _symmetry_equiv_pos_as_xyz
  1  'x, y, z'
loop_
 _atom_site_type_symbol
 _atom_site_label
 _atom_site_symmetry_multiplicity
 _atom_site_fract_x
 _atom_site_fract_y
 _atom_site_fract_z
 _atom_site_occupancy
  Pr  Pr0  1  0.821965  0.821259  0.607572  1
  Pr  Pr1  1  0.181650  0.831931  0.111517  1
  Pr  Pr2  1  0.163680  0.808808  0.391985  1
  Pr  Pr3  1  0.000000  0.500000  0.732712  1
  Pr  Pr4  1  0.836320  0.191192  0.391985  1
  Pr  Pr5  1  0.691192  0.663680  0.391985  1
  Pr  Pr6  1  0.678741  0.321965  0.607572  1
  Pr  Pr7  1  0.321259  0.678035  0.607572  1
  Pr  Pr8  1  0.000000  0.500000  0.230333  1
  Pr  Pr9  1  0.668069  0.681650  0.111517  1
  Pr  Pr10  1  0.684158  0.333755  0.887934  1
  Pr  Pr11  1  0.833755  0.815842  0.887934  1
  Pr  Pr12  1  0.308808  0.336320  0.391985  1
  Pr  Pr13  1  0.178035  0.178741  0.607572  1
  Pr  Pr14  1  0.818350  0.168069  0.111517  1
  Pr  Pr15  1  0.315842  0.666245  0.887934  1
  Pr  Pr16  1  0.331931  0.318350  0.111517  1
  Pr  Pr17  1  0.500000  0.000000  0.273179  1
  Pr  Pr18  1  0.166245  0.184158  0.887934  1
  Pr  Pr19  1  0.500000  0.000000  0.767477  1
  Si  Si20  1  0.613880  0.384752  0.252565  1
  Si  Si21  1  0.115751  0.887566  0.746550  1
  Si  Si22  1  0.387566  0.384249  0.746550  1
  Si  Si23  1  0.386120  0.615248  0.252565  1
  Si  Si24  1  0.884752  0.886120  0.252565  1
  Si  Si25  1  0.612434  0.615751  0.746550  1
  Si  Si26  1  0.000000  0.500000  0.509042  1
  Si  Si27  1  0.884249  0.112434  0.746550  1
  Si  Si28  1  0.115248  0.113880  0.252565  1
  Hg  Hg29  1  0.500000  0.000000  0.496329  1
  Hg  Hg30  1  0.500000  0.000000  0.995622  1
  Hg  Hg31  1  0.000000  0.500000  0.002815  1
