# generated using pymatgen
data_NdNiSn3Pd
_symmetry_space_group_name_H-M   'P 1'
_cell_length_a   6.10633900
_cell_length_b   6.30087000
_cell_length_c   13.57918000
_cell_angle_alpha   90.00000000
_cell_angle_beta   90.00000000
_cell_angle_gamma   90.00000000
_symmetry_Int_Tables_number   1
_chemical_formula_structural   NdNiSn3Pd
_chemical_formula_sum   'Nd4 Ni4 Sn12 Pd4'
_cell_volume   522.46232106
_cell_formula_units_Z   4
loop_
 _symmetry_equiv_pos_site_id
 _symmetry_equiv_pos_as_xyz
  1  'x, y, z'
loop_
 _atom_site_type_symbol
 _atom_site_label
 _atom_site_symmetry_multiplicity
 _atom_site_fract_x
 _atom_site_fract_y
 _atom_site_fract_z
 _atom_site_occupancy
  Nd  Nd0  1  0.250000  0.512167  0.807512  1
  Nd  Nd1  1  0.750000  0.487833  0.192488  1
  Nd  Nd2  1  0.750000  0.987833  0.807512  1
  Nd  Nd3  1  0.250000  0.012167  0.192488  1
  Ni  Ni4  1  0.250000  0.010569  0.892065  1
  Ni  Ni5  1  0.750000  0.989431  0.107935  1
  Ni  Ni6  1  0.750000  0.489431  0.892065  1
  Ni  Ni7  1  0.250000  0.510569  0.107935  1
  Sn  Sn8  1  0.250000  0.018605  0.706500  1
  Sn  Sn9  1  0.750000  0.981395  0.293500  1
  Sn  Sn10  1  0.750000  0.481395  0.706500  1
  Sn  Sn11  1  0.250000  0.518605  0.293500  1
  Sn  Sn12  1  0.250000  0.889208  0.436224  1
  Sn  Sn13  1  0.750000  0.110792  0.563776  1
  Sn  Sn14  1  0.750000  0.610792  0.436224  1
  Sn  Sn15  1  0.250000  0.389208  0.563776  1
  Sn  Sn16  1  0.500000  0.750000  0.997794  1
  Sn  Sn17  1  0.000000  0.250000  0.002206  1
  Sn  Sn18  1  0.500000  0.250000  0.002206  1
  Sn  Sn19  1  0.000000  0.750000  0.997794  1
  Pd  Pd20  1  0.500000  0.750000  0.596681  1
  Pd  Pd21  1  0.000000  0.250000  0.403319  1
  Pd  Pd22  1  0.500000  0.250000  0.403319  1
  Pd  Pd23  1  0.000000  0.750000  0.596681  1
