# generated using pymatgen
data_Nd2Zn21Pt
_symmetry_space_group_name_H-M   'P 1'
_cell_length_a   8.29472755
_cell_length_b   8.30219536
_cell_length_c   8.29472830
_cell_angle_alpha   100.00681508
_cell_angle_beta   99.81213439
_cell_angle_gamma   130.92498114
_symmetry_Int_Tables_number   1
_chemical_formula_structural   Nd2Zn21Pt
_chemical_formula_sum   'Nd2 Zn21 Pt1'
_cell_volume   392.78834672
_cell_formula_units_Z   1
loop_
 _symmetry_equiv_pos_site_id
 _symmetry_equiv_pos_as_xyz
  1  'x, y, z'
loop_
 _atom_site_type_symbol
 _atom_site_label
 _atom_site_symmetry_multiplicity
 _atom_site_fract_x
 _atom_site_fract_y
 _atom_site_fract_z
 _atom_site_occupancy
  Nd  Nd0  1  0.252426  0.748806  0.496380  1
  Nd  Nd1  1  0.997574  0.001194  0.003620  1
  Zn  Zn2  1  0.421299  0.093399  0.914199  1
  Zn  Zn3  1  0.180772  0.507532  0.083724  1
  Zn  Zn4  1  0.502671  0.499252  0.996581  1
  Zn  Zn5  1  0.747329  0.250748  0.503419  1
  Zn  Zn6  1  0.125000  0.375000  0.750000  1
  Zn  Zn7  1  0.625000  0.375000  0.250000  1
  Zn  Zn8  1  0.625000  0.875000  0.250000  1
  Zn  Zn9  1  0.179200  0.093399  0.672101  1
  Zn  Zn10  1  0.759805  0.931230  0.584829  1
  Zn  Zn11  1  0.345787  0.172467  0.415529  1
  Zn  Zn12  1  0.423809  0.507532  0.326759  1
  Zn  Zn13  1  0.903599  0.818770  0.328574  1
  Zn  Zn14  1  0.493061  0.577533  0.673321  1
  Zn  Zn15  1  0.069228  0.242468  0.416276  1
  Zn  Zn16  1  0.828701  0.656601  0.585801  1
  Zn  Zn17  1  0.070800  0.656601  0.827899  1
  Zn  Zn18  1  0.490195  0.818770  0.915171  1
  Zn  Zn19  1  0.904213  0.577533  0.084471  1
  Zn  Zn20  1  0.826191  0.242468  0.173241  1
  Zn  Zn21  1  0.346401  0.931230  0.171426  1
  Zn  Zn22  1  0.756939  0.172467  0.826679  1
  Pt  Pt23  1  0.625000  0.375000  0.750000  1
