# generated using pymatgen
data_Tm3V4P6Rh5
_symmetry_space_group_name_H-M   'P 1'
_cell_length_a   3.83197600
_cell_length_b   10.78472600
_cell_length_c   13.25446000
_cell_angle_alpha   90.00000000
_cell_angle_beta   90.00000000
_cell_angle_gamma   90.00000000
_symmetry_Int_Tables_number   1
_chemical_formula_structural   Tm3V4P6Rh5
_chemical_formula_sum   'Tm6 V8 P12 Rh10'
_cell_volume   547.76456596
_cell_formula_units_Z   2
loop_
 _symmetry_equiv_pos_site_id
 _symmetry_equiv_pos_as_xyz
  1  'x, y, z'
loop_
 _atom_site_type_symbol
 _atom_site_label
 _atom_site_symmetry_multiplicity
 _atom_site_fract_x
 _atom_site_fract_y
 _atom_site_fract_z
 _atom_site_occupancy
  Tm  Tm0  1  0.000000  0.500000  0.517355  1
  Tm  Tm1  1  0.500000  0.000000  0.482645  1
  Tm  Tm2  1  0.500000  0.818893  0.210655  1
  Tm  Tm3  1  0.500000  0.181107  0.210655  1
  Tm  Tm4  1  0.000000  0.681107  0.789345  1
  Tm  Tm5  1  0.000000  0.318893  0.789345  1
  V  V6  1  0.500000  0.500000  0.165025  1
  V  V7  1  0.000000  0.000000  0.834975  1
  V  V8  1  0.000000  0.500000  0.990158  1
  V  V9  1  0.500000  0.000000  0.009842  1
  V  V10  1  0.500000  0.332025  0.999090  1
  V  V11  1  0.500000  0.667975  0.999090  1
  V  V12  1  0.000000  0.167975  0.000910  1
  V  V13  1  0.000000  0.832025  0.000910  1
  P  P14  1  0.500000  0.500000  0.875926  1
  P  P15  1  0.000000  0.000000  0.124074  1
  P  P16  1  0.500000  0.500000  0.350635  1
  P  P17  1  0.000000  0.000000  0.649365  1
  P  P18  1  0.500000  0.315770  0.615091  1
  P  P19  1  0.500000  0.684230  0.615091  1
  P  P20  1  0.000000  0.184230  0.384909  1
  P  P21  1  0.000000  0.815770  0.384909  1
  P  P22  1  0.500000  0.843754  0.881844  1
  P  P23  1  0.500000  0.156246  0.881844  1
  P  P24  1  0.000000  0.656246  0.118156  1
  P  P25  1  0.000000  0.343754  0.118156  1
  Rh  Rh26  1  0.500000  0.500000  0.699699  1
  Rh  Rh27  1  0.000000  0.000000  0.300301  1
  Rh  Rh28  1  0.500000  0.295759  0.434112  1
  Rh  Rh29  1  0.500000  0.704241  0.434112  1
  Rh  Rh30  1  0.000000  0.204241  0.565888  1
  Rh  Rh31  1  0.000000  0.795759  0.565888  1
  Rh  Rh32  1  0.500000  0.873393  0.705954  1
  Rh  Rh33  1  0.500000  0.126607  0.705954  1
  Rh  Rh34  1  0.000000  0.626607  0.294046  1
  Rh  Rh35  1  0.000000  0.373393  0.294046  1
