# generated using pymatgen
data_K4PaCrTe6
_symmetry_space_group_name_H-M   'P 1'
_cell_length_a   14.25989200
_cell_length_b   6.87798282
_cell_length_c   9.62729900
_cell_angle_alpha   72.23760034
_cell_angle_beta   90.00000000
_cell_angle_gamma   90.00000000
_symmetry_Int_Tables_number   1
_chemical_formula_structural   K4PaCrTe6
_chemical_formula_sum   'K8 Pa2 Cr2 Te12'
_cell_volume   899.22662484
_cell_formula_units_Z   2
loop_
 _symmetry_equiv_pos_site_id
 _symmetry_equiv_pos_as_xyz
  1  'x, y, z'
loop_
 _atom_site_type_symbol
 _atom_site_label
 _atom_site_symmetry_multiplicity
 _atom_site_fract_x
 _atom_site_fract_y
 _atom_site_fract_z
 _atom_site_occupancy
  K  K0  1  0.957009  0.672997  0.652155  1
  K  K1  1  0.457009  0.827003  0.347845  1
  K  K2  1  0.044093  0.326311  0.347431  1
  K  K3  1  0.544093  0.173689  0.652569  1
  K  K4  1  0.866256  0.081551  0.906874  1
  K  K5  1  0.366256  0.418449  0.093126  1
  K  K6  1  0.133166  0.925240  0.095853  1
  K  K7  1  0.633166  0.574760  0.904147  1
  Pa  Pa8  1  0.749679  0.654908  0.296005  1
  Pa  Pa9  1  0.249679  0.845092  0.703995  1
  Cr  Cr10  1  0.250718  0.343371  0.706007  1
  Cr  Cr11  1  0.750718  0.156629  0.293993  1
  Te  Te12  1  0.913953  0.931606  0.282309  1
  Te  Te13  1  0.413953  0.568394  0.717691  1
  Te  Te14  1  0.086094  0.111901  0.721036  1
  Te  Te15  1  0.586094  0.388099  0.278964  1
  Te  Te16  1  0.817588  0.284596  0.525782  1
  Te  Te17  1  0.317588  0.215404  0.474218  1
  Te  Te18  1  0.181432  0.670871  0.474633  1
  Te  Te19  1  0.681432  0.829129  0.525367  1
  Te  Te20  1  0.846098  0.479338  0.082010  1
  Te  Te21  1  0.346098  0.020662  0.917990  1
  Te  Te22  1  0.153914  0.484184  0.916178  1
  Te  Te23  1  0.653914  0.015816  0.083822  1
