# generated using pymatgen
data_Ho2CrSbO7
_symmetry_space_group_name_H-M   'P 1'
_cell_length_a   7.26170423
_cell_length_b   7.23580494
_cell_length_c   7.32210400
_cell_angle_alpha   89.99994202
_cell_angle_beta   59.72439246
_cell_angle_gamma   119.88211120
_symmetry_Int_Tables_number   1
_chemical_formula_structural   Ho2CrSbO7
_chemical_formula_sum   'Ho4 Cr2 Sb2 O14'
_cell_volume   271.39530824
_cell_formula_units_Z   2
loop_
 _symmetry_equiv_pos_site_id
 _symmetry_equiv_pos_as_xyz
  1  'x, y, z'
loop_
 _atom_site_type_symbol
 _atom_site_label
 _atom_site_symmetry_multiplicity
 _atom_site_fract_x
 _atom_site_fract_y
 _atom_site_fract_z
 _atom_site_occupancy
  Ho  Ho0  1  0.500001  0.500000  0.999998  1
  Ho  Ho1  1  0.500000  0.000000  0.999999  1
  Ho  Ho2  1  0.000000  0.000003  0.499997  1
  Ho  Ho3  1  0.999997  0.999997  0.000002  1
  Cr  Cr4  1  0.500005  0.000002  0.500013  1
  Cr  Cr5  1  0.499993  0.499993  0.500002  1
  Sb  Sb6  1  0.999998  0.500000  0.000001  1
  Sb  Sb7  1  0.999999  0.500000  0.499999  1
  O  O8  1  0.255188  0.127595  0.122407  1
  O  O9  1  0.744819  0.872409  0.877591  1
  O  O10  1  0.681567  0.840783  0.409219  1
  O  O11  1  0.835580  0.417788  0.832208  1
  O  O12  1  0.252057  0.831831  0.837417  1
  O  O13  1  0.252058  0.420229  0.410523  1
  O  O14  1  0.252054  0.420225  0.837419  1
  O  O15  1  0.252058  0.831829  0.410521  1
  O  O16  1  0.318433  0.159217  0.590780  1
  O  O17  1  0.164422  0.582212  0.167787  1
  O  O18  1  0.747941  0.168168  0.162584  1
  O  O19  1  0.747941  0.579773  0.589476  1
  O  O20  1  0.747945  0.579777  0.162581  1
  O  O21  1  0.747944  0.168168  0.589476  1
