# generated using pymatgen
data_Zr6CoBr14
_symmetry_space_group_name_H-M   'P 1'
_cell_length_a   10.22331600
_cell_length_b   10.22331641
_cell_length_c   12.35113200
_cell_angle_alpha   90.00000000
_cell_angle_beta   90.00000000
_cell_angle_gamma   94.80393653
_symmetry_Int_Tables_number   1
_chemical_formula_structural   Zr6CoBr14
_chemical_formula_sum   'Zr12 Co2 Br28'
_cell_volume   1286.35854180
_cell_formula_units_Z   2
loop_
 _symmetry_equiv_pos_site_id
 _symmetry_equiv_pos_as_xyz
  1  'x, y, z'
loop_
 _atom_site_type_symbol
 _atom_site_label
 _atom_site_symmetry_multiplicity
 _atom_site_fract_x
 _atom_site_fract_y
 _atom_site_fract_z
 _atom_site_occupancy
  Zr  Zr0  1  0.951082  0.186361  0.119318  1
  Zr  Zr1  1  0.048918  0.813639  0.880682  1
  Zr  Zr2  1  0.548918  0.313639  0.619318  1
  Zr  Zr3  1  0.686361  0.451082  0.380682  1
  Zr  Zr4  1  0.451082  0.686361  0.380682  1
  Zr  Zr5  1  0.313639  0.548918  0.619318  1
  Zr  Zr6  1  0.813639  0.048918  0.880682  1
  Zr  Zr7  1  0.186361  0.951082  0.119318  1
  Zr  Zr8  1  0.351775  0.351775  0.391291  1
  Zr  Zr9  1  0.648225  0.648225  0.608709  1
  Zr  Zr10  1  0.148225  0.148225  0.891291  1
  Zr  Zr11  1  0.851775  0.851775  0.108709  1
  Co  Co12  1  0.000000  0.000000  0.000000  1
  Co  Co13  1  0.500000  0.500000  0.500000  1
  Br  Br14  1  0.284621  0.535571  0.250846  1
  Br  Br15  1  0.715379  0.464429  0.749154  1
  Br  Br16  1  0.215379  0.964429  0.750846  1
  Br  Br17  1  0.035571  0.784621  0.249154  1
  Br  Br18  1  0.784621  0.035571  0.249154  1
  Br  Br19  1  0.964429  0.215379  0.750846  1
  Br  Br20  1  0.464429  0.715379  0.749154  1
  Br  Br21  1  0.535571  0.284621  0.250846  1
  Br  Br22  1  0.114706  0.364055  0.010160  1
  Br  Br23  1  0.885294  0.635945  0.989840  1
  Br  Br24  1  0.385294  0.135945  0.510160  1
  Br  Br25  1  0.864055  0.614706  0.489840  1
  Br  Br26  1  0.614706  0.864055  0.489840  1
  Br  Br27  1  0.135945  0.385294  0.510160  1
  Br  Br28  1  0.635945  0.885294  0.989840  1
  Br  Br29  1  0.364055  0.114706  0.010160  1
  Br  Br30  1  0.899262  0.399262  0.250000  1
  Br  Br31  1  0.100738  0.600738  0.750000  1
  Br  Br32  1  0.600738  0.100738  0.750000  1
  Br  Br33  1  0.399262  0.899262  0.250000  1
  Br  Br34  1  0.746958  0.253042  0.000000  1
  Br  Br35  1  0.253042  0.746958  0.000000  1
  Br  Br36  1  0.753042  0.246958  0.500000  1
  Br  Br37  1  0.246958  0.753042  0.500000  1
  Br  Br38  1  0.153056  0.153056  0.265375  1
  Br  Br39  1  0.846944  0.846944  0.734625  1
  Br  Br40  1  0.346944  0.346944  0.765375  1
  Br  Br41  1  0.653056  0.653056  0.234625  1
