# generated using pymatgen
data_Ba6YErTi4O17
_symmetry_space_group_name_H-M   'P 1'
_cell_length_a   5.99199400
_cell_length_b   5.99197876
_cell_length_c   29.95122900
_cell_angle_alpha   90.00000000
_cell_angle_beta   90.00000000
_cell_angle_gamma   120.00007311
_symmetry_Int_Tables_number   1
_chemical_formula_structural   Ba6YErTi4O17
_chemical_formula_sum   'Ba12 Y2 Er2 Ti8 O34'
_cell_volume   931.29354822
_cell_formula_units_Z   2
loop_
 _symmetry_equiv_pos_site_id
 _symmetry_equiv_pos_as_xyz
  1  'x, y, z'
loop_
 _atom_site_type_symbol
 _atom_site_label
 _atom_site_symmetry_multiplicity
 _atom_site_fract_x
 _atom_site_fract_y
 _atom_site_fract_z
 _atom_site_occupancy
  Ba  Ba0  1  0.999998  0.999995  0.000354  1
  Ba  Ba1  1  0.666667  0.333332  0.089955  1
  Ba  Ba2  1  0.333331  0.666663  0.183999  1
  Ba  Ba3  1  0.999998  0.999996  0.250000  1
  Ba  Ba4  1  0.333331  0.666663  0.316001  1
  Ba  Ba5  1  0.666667  0.333332  0.410045  1
  Ba  Ba6  1  0.999998  0.999995  0.499646  1
  Ba  Ba7  1  0.333332  0.666664  0.589466  1
  Ba  Ba8  1  0.666671  0.333340  0.684341  1
  Ba  Ba9  1  0.000004  0.000008  0.750000  1
  Ba  Ba10  1  0.666671  0.333340  0.815659  1
  Ba  Ba11  1  0.333332  0.666664  0.910534  1
  Y  Y12  1  0.000002  0.000003  0.626687  1
  Y  Y13  1  0.000002  0.000003  0.873313  1
  Er  Er14  1  0.000000  0.999999  0.126895  1
  Er  Er15  1  0.000000  0.999999  0.373105  1
  Ti  Ti16  1  0.333335  0.666670  0.055298  1
  Ti  Ti17  1  0.666666  0.333330  0.203671  1
  Ti  Ti18  1  0.666666  0.333330  0.296329  1
  Ti  Ti19  1  0.333335  0.666670  0.444702  1
  Ti  Ti20  1  0.666667  0.333333  0.554513  1
  Ti  Ti21  1  0.333331  0.666661  0.703830  1
  Ti  Ti22  1  0.333331  0.666661  0.796170  1
  Ti  Ti23  1  0.666667  0.333333  0.945487  1
  O  O24  1  0.666672  0.333343  0.004723  1
  O  O25  1  0.167647  0.832358  0.078053  1
  O  O26  1  0.664712  0.832358  0.078053  1
  O  O27  1  0.167649  0.335298  0.078054  1
  O  O28  1  0.350081  0.175038  0.169275  1
  O  O29  1  0.824956  0.175038  0.169275  1
  O  O30  1  0.824958  0.649915  0.169276  1
  O  O31  1  0.518569  0.037137  0.250000  1
  O  O32  1  0.518568  0.481421  0.250000  1
  O  O33  1  0.962853  0.481421  0.250000  1
  O  O34  1  0.824958  0.649915  0.330724  1
  O  O35  1  0.350081  0.175038  0.330724  1
  O  O36  1  0.824956  0.175038  0.330724  1
  O  O37  1  0.167649  0.335298  0.421946  1
  O  O38  1  0.167647  0.832358  0.421948  1
  O  O39  1  0.664712  0.832358  0.421948  1
  O  O40  1  0.666672  0.333343  0.495277  1
  O  O41  1  0.333329  0.666659  0.504008  1
  O  O42  1  0.336067  0.168031  0.577221  1
  O  O43  1  0.831965  0.168031  0.577221  1
  O  O44  1  0.831965  0.663929  0.577222  1
  O  O45  1  0.175807  0.824199  0.669615  1
  O  O46  1  0.648390  0.824199  0.669615  1
  O  O47  1  0.175807  0.351612  0.669616  1
  O  O48  1  0.036323  0.518167  0.750000  1
  O  O49  1  0.481844  0.518167  0.750000  1
  O  O50  1  0.481843  0.963686  0.750000  1
  O  O51  1  0.175807  0.351612  0.830384  1
  O  O52  1  0.175807  0.824199  0.830384  1
  O  O53  1  0.648390  0.824199  0.830384  1
  O  O54  1  0.831965  0.663929  0.922778  1
  O  O55  1  0.336067  0.168031  0.922779  1
  O  O56  1  0.831965  0.168031  0.922779  1
  O  O57  1  0.333329  0.666659  0.995992  1
