# generated using pymatgen
data_NaYbV3Co9As7
_symmetry_space_group_name_H-M   'P 1'
_cell_length_a   3.74179500
_cell_length_b   9.42689427
_cell_length_c   9.42689400
_cell_angle_alpha   119.99999904
_cell_angle_beta   90.00000000
_cell_angle_gamma   90.00000000
_symmetry_Int_Tables_number   1
_chemical_formula_structural   NaYbV3Co9As7
_chemical_formula_sum   'Na1 Yb1 V3 Co9 As7'
_cell_volume   287.97042433
_cell_formula_units_Z   1
loop_
 _symmetry_equiv_pos_site_id
 _symmetry_equiv_pos_as_xyz
  1  'x, y, z'
loop_
 _atom_site_type_symbol
 _atom_site_label
 _atom_site_symmetry_multiplicity
 _atom_site_fract_x
 _atom_site_fract_y
 _atom_site_fract_z
 _atom_site_occupancy
  Na  Na0  1  0.000000  0.666667  0.333333  1
  Yb  Yb1  1  0.500000  0.333333  0.666667  1
  V  V2  1  0.500000  0.783743  0.901513  1
  V  V3  1  0.500000  0.117771  0.216257  1
  V  V4  1  0.500000  0.098487  0.882229  1
  Co  Co5  1  0.000000  0.572033  0.944551  1
  Co  Co6  1  0.000000  0.372517  0.427967  1
  Co  Co7  1  0.000000  0.055449  0.627483  1
  Co  Co8  1  0.000000  0.879736  0.156391  1
  Co  Co9  1  0.000000  0.276654  0.120264  1
  Co  Co10  1  0.000000  0.843609  0.723346  1
  Co  Co11  1  0.500000  0.954129  0.384452  1
  Co  Co12  1  0.500000  0.430324  0.045871  1
  Co  Co13  1  0.500000  0.615548  0.569676  1
  As  As14  1  0.000000  0.000000  0.000000  1
  As  As15  1  0.500000  0.708013  0.122481  1
  As  As16  1  0.500000  0.414468  0.291987  1
  As  As17  1  0.500000  0.877519  0.585532  1
  As  As18  1  0.000000  0.585765  0.702470  1
  As  As19  1  0.000000  0.116706  0.414235  1
  As  As20  1  0.000000  0.297530  0.883294  1
