# generated using pymatgen
data_Er3TmTcB12Ru
_symmetry_space_group_name_H-M   'P 1'
_cell_length_a   3.64154500
_cell_length_b   9.09955010
_cell_length_c   11.47886700
_cell_angle_alpha   89.86622363
_cell_angle_beta   90.00000000
_cell_angle_gamma   90.00000000
_symmetry_Int_Tables_number   1
_chemical_formula_structural   Er3TmTcB12Ru
_chemical_formula_sum   'Er6 Tm2 Tc2 B24 Ru2'
_cell_volume   380.36753463
_cell_formula_units_Z   2
loop_
 _symmetry_equiv_pos_site_id
 _symmetry_equiv_pos_as_xyz
  1  'x, y, z'
loop_
 _atom_site_type_symbol
 _atom_site_label
 _atom_site_symmetry_multiplicity
 _atom_site_fract_x
 _atom_site_fract_y
 _atom_site_fract_z
 _atom_site_occupancy
  Er  Er0  1  0.000000  0.324729  0.415585  1
  Er  Er1  1  0.000000  0.675271  0.584415  1
  Er  Er2  1  0.000000  0.820687  0.087352  1
  Er  Er3  1  0.000000  0.179313  0.912648  1
  Er  Er4  1  0.000000  0.942121  0.370685  1
  Er  Er5  1  0.000000  0.057879  0.629315  1
  Tm  Tm6  1  0.000000  0.443172  0.129842  1
  Tm  Tm7  1  0.000000  0.556828  0.870158  1
  Tc  Tc8  1  0.000000  0.638238  0.319944  1
  Tc  Tc9  1  0.000000  0.361762  0.680056  1
  B  B10  1  0.500000  0.553075  0.433222  1
  B  B11  1  0.500000  0.446925  0.566778  1
  B  B12  1  0.500000  0.053856  0.066682  1
  B  B13  1  0.500000  0.946144  0.933318  1
  B  B14  1  0.500000  0.748854  0.419178  1
  B  B15  1  0.500000  0.251146  0.580822  1
  B  B16  1  0.500000  0.249169  0.080897  1
  B  B17  1  0.500000  0.750831  0.919103  1
  B  B18  1  0.500000  0.791771  0.264829  1
  B  B19  1  0.500000  0.208229  0.735171  1
  B  B20  1  0.500000  0.291086  0.234551  1
  B  B21  1  0.500000  0.708914  0.765449  1
  B  B22  1  0.500000  0.630873  0.184633  1
  B  B23  1  0.500000  0.369127  0.815367  1
  B  B24  1  0.500000  0.130864  0.314415  1
  B  B25  1  0.500000  0.869136  0.685585  1
  B  B26  1  0.500000  0.982629  0.211811  1
  B  B27  1  0.500000  0.017371  0.788189  1
  B  B28  1  0.500000  0.481823  0.287480  1
  B  B29  1  0.500000  0.518177  0.712520  1
  B  B30  1  0.500000  0.602694  0.028210  1
  B  B31  1  0.500000  0.397306  0.971790  1
  B  B32  1  0.500000  0.103252  0.471254  1
  B  B33  1  0.500000  0.896748  0.528746  1
  Ru  Ru34  1  0.000000  0.138002  0.178479  1
  Ru  Ru35  1  0.000000  0.861998  0.821521  1
