# generated using pymatgen
data_YbScPa2(Al8Pt3)3
_symmetry_space_group_name_H-M   'P 1'
_cell_length_a   7.55151215
_cell_length_b   7.55019944
_cell_length_c   13.09743010
_cell_angle_alpha   84.43935571
_cell_angle_beta   101.11421525
_cell_angle_gamma   119.91364216
_symmetry_Int_Tables_number   1
_chemical_formula_structural   YbScPa2(Al8Pt3)3
_chemical_formula_sum   'Yb1 Sc1 Pa2 Al24 Pt9'
_cell_volume   635.13135965
_cell_formula_units_Z   1
loop_
 _symmetry_equiv_pos_site_id
 _symmetry_equiv_pos_as_xyz
  1  'x, y, z'
loop_
 _atom_site_type_symbol
 _atom_site_label
 _atom_site_symmetry_multiplicity
 _atom_site_fract_x
 _atom_site_fract_y
 _atom_site_fract_z
 _atom_site_occupancy
  Yb  Yb0  1  0.232290  0.498833  0.192071  1
  Sc  Sc1  1  0.767949  0.501795  0.807021  1
  Pa  Pa2  1  0.435288  0.830787  0.804936  1
  Pa  Pa3  1  0.564392  0.168129  0.195483  1
  Al  Al4  1  0.485020  0.170057  0.942447  1
  Al  Al5  1  0.517508  0.833021  0.055338  1
  Al  Al6  1  0.022310  0.167419  0.561710  1
  Al  Al7  1  0.978091  0.832474  0.438912  1
  Al  Al8  1  0.351757  0.831867  0.558436  1
  Al  Al9  1  0.648281  0.167558  0.442272  1
  Al  Al10  1  0.616262  0.830408  0.331462  1
  Al  Al11  1  0.385545  0.170433  0.671279  1
  Al  Al12  1  0.051123  0.490116  0.671993  1
  Al  Al13  1  0.948662  0.510020  0.330073  1
  Al  Al14  1  0.733097  0.837776  0.670444  1
  Al  Al15  1  0.267325  0.161124  0.331914  1
  Al  Al16  1  0.143728  0.500128  0.943014  1
  Al  Al17  1  0.852499  0.499580  0.054293  1
  Al  Al18  1  0.815895  0.829344  0.950699  1
  Al  Al19  1  0.183439  0.168293  0.046922  1
  Al  Al20  1  0.313745  0.499432  0.440833  1
  Al  Al21  1  0.686071  0.500621  0.559918  1
  Al  Al22  1  0.102274  0.840782  0.182279  1
  Al  Al23  1  0.897727  0.163843  0.817228  1
  Al  Al24  1  0.308452  0.369612  0.815962  1
  Al  Al25  1  0.695866  0.629892  0.183516  1
  Al  Al26  1  0.102246  0.957494  0.816986  1
  Al  Al27  1  0.892710  0.038342  0.182669  1
  Pt  Pt28  1  0.389155  0.509175  0.640311  1
  Pt  Pt29  1  0.612781  0.491057  0.360709  1
  Pt  Pt30  1  0.171787  0.828710  0.999133  1
  Pt  Pt31  1  0.827992  0.171475  0.999095  1
  Pt  Pt32  1  0.296719  0.835338  0.361005  1
  Pt  Pt33  1  0.703374  0.165959  0.639884  1
  Pt  Pt34  1  0.047071  0.824289  0.639393  1
  Pt  Pt35  1  0.951884  0.174344  0.361493  1
  Pt  Pt36  1  0.499685  0.500475  0.998866  1
