# generated using pymatgen
data_DyHoOs3W
_symmetry_space_group_name_H-M   'P 1'
_cell_length_a   5.52815800
_cell_length_b   5.52815741
_cell_length_c   8.42943100
_cell_angle_alpha   90.00000000
_cell_angle_beta   90.00000000
_cell_angle_gamma   120.00001553
_symmetry_Int_Tables_number   1
_chemical_formula_structural   DyHoOs3W
_chemical_formula_sum   'Dy2 Ho2 Os6 W2'
_cell_volume   223.09491486
_cell_formula_units_Z   2
loop_
 _symmetry_equiv_pos_site_id
 _symmetry_equiv_pos_as_xyz
  1  'x, y, z'
loop_
 _atom_site_type_symbol
 _atom_site_label
 _atom_site_symmetry_multiplicity
 _atom_site_fract_x
 _atom_site_fract_y
 _atom_site_fract_z
 _atom_site_occupancy
  Dy  Dy0  1  0.333333  0.666667  0.435546  1
  Dy  Dy1  1  0.666667  0.333333  0.564454  1
  Ho  Ho2  1  0.666667  0.333333  0.935971  1
  Ho  Ho3  1  0.333333  0.666667  0.064029  1
  Os  Os4  1  0.827270  0.172730  0.249490  1
  Os  Os5  1  0.827270  0.654540  0.249490  1
  Os  Os6  1  0.345460  0.172730  0.249490  1
  Os  Os7  1  0.172730  0.827270  0.750510  1
  Os  Os8  1  0.172730  0.345460  0.750510  1
  Os  Os9  1  0.654540  0.827270  0.750510  1
  W  W10  1  0.000000  0.000000  0.500000  1
  W  W11  1  0.000000  0.000000  0.000000  1
