# generated using pymatgen
data_TmZrMn2Co10P7
_symmetry_space_group_name_H-M   'P 1'
_cell_length_a   8.99089013
_cell_length_b   8.95998575
_cell_length_c   3.57870700
_cell_angle_alpha   90.00000000
_cell_angle_beta   90.00000000
_cell_angle_gamma   120.00406028
_symmetry_Int_Tables_number   1
_chemical_formula_structural   TmZrMn2Co10P7
_chemical_formula_sum   'Tm1 Zr1 Mn2 Co10 P7'
_cell_volume   249.66002733
_cell_formula_units_Z   1
loop_
 _symmetry_equiv_pos_site_id
 _symmetry_equiv_pos_as_xyz
  1  'x, y, z'
loop_
 _atom_site_type_symbol
 _atom_site_label
 _atom_site_symmetry_multiplicity
 _atom_site_fract_x
 _atom_site_fract_y
 _atom_site_fract_z
 _atom_site_occupancy
  Tm  Tm0  1  0.665999  0.333160  0.500000  1
  Zr  Zr1  1  0.999502  0.998358  0.000000  1
  Mn  Mn2  1  0.431371  0.888286  0.500000  1
  Mn  Mn3  1  0.111273  0.542383  0.500000  1
  Co  Co4  1  0.705710  0.608472  0.000000  1
  Co  Co5  1  0.392921  0.099802  0.000000  1
  Co  Co6  1  0.901455  0.293657  0.000000  1
  Co  Co7  1  0.216553  0.389822  0.000000  1
  Co  Co8  1  0.609713  0.824732  0.000000  1
  Co  Co9  1  0.171920  0.783752  0.000000  1
  Co  Co10  1  0.280411  0.228741  0.500000  1
  Co  Co11  1  0.772492  0.051123  0.500000  1
  Co  Co12  1  0.946879  0.720713  0.500000  1
  Co  Co13  1  0.463052  0.572002  0.500000  1
  P  P14  1  0.448455  0.371567  0.000000  1
  P  P15  1  0.630316  0.078661  0.000000  1
  P  P16  1  0.919953  0.551228  0.000000  1
  P  P17  1  0.043779  0.255947  0.500000  1
  P  P18  1  0.739596  0.784679  0.500000  1
  P  P19  1  0.215034  0.956204  0.500000  1
  P  P20  1  0.333616  0.666710  0.000000  1
