# generated using pymatgen
data_La18Nd2Si15P
_symmetry_space_group_name_H-M   'P 1'
_cell_length_a   8.04473247
_cell_length_b   8.05686547
_cell_length_c   15.70693200
_cell_angle_alpha   89.90251656
_cell_angle_beta   89.82748706
_cell_angle_gamma   90.15025480
_symmetry_Int_Tables_number   1
_chemical_formula_structural   La18Nd2Si15P
_chemical_formula_sum   'La18 Nd2 Si15 P1'
_cell_volume   1018.04033516
_cell_formula_units_Z   1
loop_
 _symmetry_equiv_pos_site_id
 _symmetry_equiv_pos_as_xyz
  1  'x, y, z'
loop_
 _atom_site_type_symbol
 _atom_site_label
 _atom_site_symmetry_multiplicity
 _atom_site_fract_x
 _atom_site_fract_y
 _atom_site_fract_z
 _atom_site_occupancy
  La  La0  1  0.806313  0.192405  0.751119  1
  La  La1  1  0.690464  0.690243  0.499480  1
  La  La2  1  0.381543  0.007439  0.443143  1
  La  La3  1  0.487552  0.880714  0.698027  1
  La  La4  1  0.511812  0.121306  0.195132  1
  La  La5  1  0.878940  0.486367  0.302174  1
  La  La6  1  0.122663  0.508453  0.803602  1
  La  La7  1  0.620760  0.988045  0.946468  1
  La  La8  1  0.009611  0.378477  0.554208  1
  La  La9  1  0.988901  0.620101  0.053564  1
  La  La10  1  0.128593  0.981876  0.876397  1
  La  La11  1  0.521916  0.627709  0.125503  1
  La  La12  1  0.474276  0.368727  0.628823  1
  La  La13  1  0.627625  0.520620  0.873287  1
  La  La14  1  0.371883  0.477056  0.373119  1
  La  La15  1  0.873539  0.020525  0.376712  1
  La  La16  1  0.978897  0.127367  0.122824  1
  La  La17  1  0.025289  0.879400  0.624173  1
  Nd  Nd18  1  0.311543  0.311618  0.999740  1
  Nd  Nd19  1  0.188860  0.810059  0.249297  1
  Si  Si20  1  0.328779  0.693651  0.955997  1
  Si  Si21  1  0.669546  0.305324  0.456747  1
  Si  Si22  1  0.694379  0.329819  0.043952  1
  Si  Si23  1  0.304237  0.668173  0.544807  1
  Si  Si24  1  0.807436  0.828718  0.206193  1
  Si  Si25  1  0.171506  0.191825  0.291901  1
  Si  Si26  1  0.832705  0.805519  0.793983  1
  Si  Si27  1  0.287504  0.920527  0.060274  1
  Si  Si28  1  0.577838  0.788213  0.308221  1
  Si  Si29  1  0.422958  0.211475  0.814070  1
  Si  Si30  1  0.790076  0.581734  0.689431  1
  Si  Si31  1  0.211675  0.422054  0.188830  1
  Si  Si32  1  0.708722  0.078441  0.560064  1
  Si  Si33  1  0.924184  0.289679  0.941144  1
  Si  Si34  1  0.080733  0.710960  0.439377  1
  P  P35  1  0.186743  0.175379  0.708217  1
