# generated using pymatgen
data_Rb8Tb6BeBr20
_symmetry_space_group_name_H-M   'P 1'
_cell_length_a   12.36051166
_cell_length_b   12.36051122
_cell_length_c   12.36051000
_cell_angle_alpha   59.99999792
_cell_angle_beta   59.99999908
_cell_angle_gamma   59.99999977
_symmetry_Int_Tables_number   1
_chemical_formula_structural   Rb8Tb6BeBr20
_chemical_formula_sum   'Rb8 Tb6 Be1 Br20'
_cell_volume   1335.34739555
_cell_formula_units_Z   1
loop_
 _symmetry_equiv_pos_site_id
 _symmetry_equiv_pos_as_xyz
  1  'x, y, z'
loop_
 _atom_site_type_symbol
 _atom_site_label
 _atom_site_symmetry_multiplicity
 _atom_site_fract_x
 _atom_site_fract_y
 _atom_site_fract_z
 _atom_site_occupancy
  Rb  Rb0  1  0.358962  0.358962  0.358962  1
  Rb  Rb1  1  0.641038  0.641038  0.641038  1
  Rb  Rb2  1  0.358962  0.358962  0.923112  1
  Rb  Rb3  1  0.358962  0.923112  0.358962  1
  Rb  Rb4  1  0.641038  0.641038  0.076888  1
  Rb  Rb5  1  0.641038  0.076888  0.641038  1
  Rb  Rb6  1  0.923112  0.358962  0.358962  1
  Rb  Rb7  1  0.076888  0.641038  0.641038  1
  Tb  Tb8  1  0.843853  0.156147  0.156147  1
  Tb  Tb9  1  0.156147  0.843853  0.843853  1
  Tb  Tb10  1  0.156147  0.843853  0.156147  1
  Tb  Tb11  1  0.843853  0.156147  0.843853  1
  Tb  Tb12  1  0.156147  0.156147  0.843853  1
  Tb  Tb13  1  0.843853  0.843853  0.156147  1
  Be  Be14  1  0.000000  0.000000  0.000000  1
  Br  Br15  1  0.331651  0.000000  0.000000  1
  Br  Br16  1  0.668349  0.000000  0.000000  1
  Br  Br17  1  0.000000  0.331651  0.668349  1
  Br  Br18  1  0.000000  0.668349  0.331651  1
  Br  Br19  1  0.000000  0.331651  0.000000  1
  Br  Br20  1  0.668349  0.000000  0.331651  1
  Br  Br21  1  0.000000  0.668349  0.000000  1
  Br  Br22  1  0.331651  0.000000  0.668349  1
  Br  Br23  1  0.000000  0.000000  0.331651  1
  Br  Br24  1  0.000000  0.000000  0.668349  1
  Br  Br25  1  0.668349  0.331651  0.000000  1
  Br  Br26  1  0.331651  0.668349  0.000000  1
  Br  Br27  1  0.678185  0.321815  0.321815  1
  Br  Br28  1  0.321815  0.678185  0.678185  1
  Br  Br29  1  0.321815  0.678185  0.321815  1
  Br  Br30  1  0.678185  0.321815  0.678185  1
  Br  Br31  1  0.321815  0.321815  0.678185  1
  Br  Br32  1  0.678185  0.678185  0.321815  1
  Br  Br33  1  0.250000  0.250000  0.250000  1
  Br  Br34  1  0.750000  0.750000  0.750000  1
