# generated using pymatgen
data_PrDy3Sc2(AlPt2)2
_symmetry_space_group_name_H-M   'P 1'
_cell_length_a   4.45069000
_cell_length_b   7.25809767
_cell_length_c   8.02541811
_cell_angle_alpha   90.35849742
_cell_angle_beta   90.00000000
_cell_angle_gamma   90.00000000
_symmetry_Int_Tables_number   1
_chemical_formula_structural   PrDy3Sc2(AlPt2)2
_chemical_formula_sum   'Pr1 Dy3 Sc2 Al2 Pt4'
_cell_volume   259.24436193
_cell_formula_units_Z   1
loop_
 _symmetry_equiv_pos_site_id
 _symmetry_equiv_pos_as_xyz
  1  'x, y, z'
loop_
 _atom_site_type_symbol
 _atom_site_label
 _atom_site_symmetry_multiplicity
 _atom_site_fract_x
 _atom_site_fract_y
 _atom_site_fract_z
 _atom_site_occupancy
  Pr  Pr0  1  0.750000  0.477665  0.171195  1
  Dy  Dy1  1  0.250000  0.557047  0.820062  1
  Dy  Dy2  1  0.250000  0.022039  0.672011  1
  Dy  Dy3  1  0.750000  0.947706  0.324792  1
  Sc  Sc4  1  0.250000  0.125198  0.063736  1
  Sc  Sc5  1  0.750000  0.372833  0.567059  1
  Al  Al6  1  0.250000  0.643490  0.438125  1
  Al  Al7  1  0.750000  0.859406  0.934424  1
  Pt  Pt8  1  0.250000  0.767951  0.120700  1
  Pt  Pt9  1  0.250000  0.271308  0.388120  1
  Pt  Pt10  1  0.750000  0.738110  0.622081  1
  Pt  Pt11  1  0.750000  0.217247  0.877697  1
