# generated using pymatgen
data_Er4Sc4CuPt3
_symmetry_space_group_name_H-M   'P 1'
_cell_length_a   4.55286800
_cell_length_b   6.96005776
_cell_length_c   8.40685700
_cell_angle_alpha   90.22096614
_cell_angle_beta   90.00000000
_cell_angle_gamma   90.00000000
_symmetry_Int_Tables_number   1
_chemical_formula_structural   Er4Sc4CuPt3
_chemical_formula_sum   'Er4 Sc4 Cu1 Pt3'
_cell_volume   266.39638875
_cell_formula_units_Z   1
loop_
 _symmetry_equiv_pos_site_id
 _symmetry_equiv_pos_as_xyz
  1  'x, y, z'
loop_
 _atom_site_type_symbol
 _atom_site_label
 _atom_site_symmetry_multiplicity
 _atom_site_fract_x
 _atom_site_fract_y
 _atom_site_fract_z
 _atom_site_occupancy
  Er  Er0  1  0.250000  0.482393  0.174805  1
  Er  Er1  1  0.750000  0.515681  0.825304  1
  Er  Er2  1  0.750000  0.024510  0.678595  1
  Er  Er3  1  0.250000  0.983045  0.323960  1
  Sc  Sc4  1  0.250000  0.854527  0.926364  1
  Sc  Sc5  1  0.750000  0.139185  0.073248  1
  Sc  Sc6  1  0.750000  0.644160  0.424913  1
  Sc  Sc7  1  0.250000  0.361297  0.570604  1
  Cu  Cu8  1  0.250000  0.745713  0.603785  1
  Pt  Pt9  1  0.750000  0.253558  0.400859  1
  Pt  Pt10  1  0.750000  0.752698  0.100198  1
  Pt  Pt11  1  0.250000  0.243232  0.897366  1
