# generated using pymatgen
data_Ce5Y5(Al2Os3)2
_symmetry_space_group_name_H-M   'P 1'
_cell_length_a   8.39763116
_cell_length_b   8.44328052
_cell_length_c   8.42485200
_cell_angle_alpha   110.37140754
_cell_angle_beta   110.00418941
_cell_angle_gamma   109.81020603
_symmetry_Int_Tables_number   1
_chemical_formula_structural   Ce5Y5(Al2Os3)2
_chemical_formula_sum   'Ce5 Y5 Al4 Os6'
_cell_volume   449.49542251
_cell_formula_units_Z   1
loop_
 _symmetry_equiv_pos_site_id
 _symmetry_equiv_pos_as_xyz
  1  'x, y, z'
loop_
 _atom_site_type_symbol
 _atom_site_label
 _atom_site_symmetry_multiplicity
 _atom_site_fract_x
 _atom_site_fract_y
 _atom_site_fract_z
 _atom_site_occupancy
  Ce  Ce0  1  0.997106  0.712012  0.509744  1
  Ce  Ce1  1  0.505776  0.998123  0.711094  1
  Ce  Ce2  1  0.251004  0.190084  0.939321  1
  Ce  Ce3  1  0.936897  0.247288  0.187682  1
  Ce  Ce4  1  0.192267  0.941135  0.249425  1
  Y  Y5  1  0.771038  0.773822  0.772043  1
  Y  Y6  1  0.319839  0.567707  0.753172  1
  Y  Y7  1  0.749766  0.316019  0.568837  1
  Y  Y8  1  0.568512  0.746980  0.311617  1
  Y  Y9  1  0.727792  0.511350  0.000215  1
  Al  Al10  1  0.400814  0.399943  0.401622  1
  Al  Al11  1  0.099305  0.500743  0.002310  1
  Al  Al12  1  0.998380  0.095436  0.500432  1
  Al  Al13  1  0.499468  0.004821  0.098034  1
  Os  Os14  1  0.885547  0.121244  0.751675  1
  Os  Os15  1  0.751497  0.896986  0.122419  1
  Os  Os16  1  0.120995  0.751245  0.890301  1
  Os  Os17  1  0.239197  0.616272  0.378257  1
  Os  Os18  1  0.368825  0.231195  0.610902  1
  Os  Os19  1  0.615972  0.377595  0.240896  1
