# generated using pymatgen
data_Dy5TmCo14(P3Ir)4
_symmetry_space_group_name_H-M   'P 1'
_cell_length_a   3.72826200
_cell_length_b   10.63218511
_cell_length_c   12.37254910
_cell_angle_alpha   89.98422845
_cell_angle_beta   90.00000000
_cell_angle_gamma   90.00000000
_symmetry_Int_Tables_number   1
_chemical_formula_structural   Dy5TmCo14(P3Ir)4
_chemical_formula_sum   'Dy5 Tm1 Co14 P12 Ir4'
_cell_volume   490.44252914
_cell_formula_units_Z   1
loop_
 _symmetry_equiv_pos_site_id
 _symmetry_equiv_pos_as_xyz
  1  'x, y, z'
loop_
 _atom_site_type_symbol
 _atom_site_label
 _atom_site_symmetry_multiplicity
 _atom_site_fract_x
 _atom_site_fract_y
 _atom_site_fract_z
 _atom_site_occupancy
  Dy  Dy0  1  0.000000  0.500006  0.519985  1
  Dy  Dy1  1  0.500000  0.999891  0.480073  1
  Dy  Dy2  1  0.500000  0.813281  0.205791  1
  Dy  Dy3  1  0.500000  0.187008  0.206027  1
  Dy  Dy4  1  0.000000  0.686623  0.793974  1
  Tm  Tm5  1  0.000000  0.313618  0.793931  1
  Co  Co6  1  0.000000  0.499619  0.987451  1
  Co  Co7  1  0.500000  0.000848  0.011469  1
  Co  Co8  1  0.500000  0.332530  0.992727  1
  Co  Co9  1  0.500000  0.667280  0.993265  1
  Co  Co10  1  0.000000  0.168397  0.005831  1
  Co  Co11  1  0.000000  0.832695  0.006430  1
  Co  Co12  1  0.500000  0.300097  0.429320  1
  Co  Co13  1  0.500000  0.699508  0.428635  1
  Co  Co14  1  0.000000  0.199534  0.572388  1
  Co  Co15  1  0.000000  0.799853  0.571309  1
  Co  Co16  1  0.500000  0.881014  0.711269  1
  Co  Co17  1  0.500000  0.119939  0.712265  1
  Co  Co18  1  0.000000  0.618972  0.288403  1
  Co  Co19  1  0.000000  0.380896  0.288950  1
  P  P20  1  0.500000  0.499504  0.889109  1
  P  P21  1  0.000000  0.000576  0.110308  1
  P  P22  1  0.500000  0.499867  0.350499  1
  P  P23  1  0.000000  0.999544  0.649671  1
  P  P24  1  0.500000  0.301783  0.613905  1
  P  P25  1  0.500000  0.697332  0.612972  1
  P  P26  1  0.000000  0.197953  0.387646  1
  P  P27  1  0.000000  0.801921  0.387048  1
  P  P28  1  0.500000  0.844975  0.894902  1
  P  P29  1  0.500000  0.156507  0.894052  1
  P  P30  1  0.000000  0.654990  0.104760  1
  P  P31  1  0.000000  0.345124  0.105181  1
  Ir  Ir32  1  0.500000  0.499523  0.160400  1
  Ir  Ir33  1  0.000000  0.000065  0.839515  1
  Ir  Ir34  1  0.500000  0.498512  0.703625  1
  Ir  Ir35  1  0.000000  0.000216  0.296913  1
