# generated using pymatgen
data_Hf4Nb4AlP3
_symmetry_space_group_name_H-M   'P 1'
_cell_length_a   3.54686500
_cell_length_b   6.99114268
_cell_length_c   8.44825079
_cell_angle_alpha   89.24714386
_cell_angle_beta   90.00000000
_cell_angle_gamma   90.00000000
_symmetry_Int_Tables_number   1
_chemical_formula_structural   Hf4Nb4AlP3
_chemical_formula_sum   'Hf4 Nb4 Al1 P3'
_cell_volume   209.47014298
_cell_formula_units_Z   1
loop_
 _symmetry_equiv_pos_site_id
 _symmetry_equiv_pos_as_xyz
  1  'x, y, z'
loop_
 _atom_site_type_symbol
 _atom_site_label
 _atom_site_symmetry_multiplicity
 _atom_site_fract_x
 _atom_site_fract_y
 _atom_site_fract_z
 _atom_site_occupancy
  Hf  Hf0  1  0.250000  0.038675  0.669129  1
  Hf  Hf1  1  0.250000  0.534289  0.828619  1
  Hf  Hf2  1  0.750000  0.470581  0.158178  1
  Hf  Hf3  1  0.750000  0.951438  0.331745  1
  Nb  Nb4  1  0.750000  0.855630  0.938728  1
  Nb  Nb5  1  0.250000  0.641195  0.442847  1
  Nb  Nb6  1  0.750000  0.371420  0.569669  1
  Nb  Nb7  1  0.250000  0.132995  0.054174  1
  Al  Al8  1  0.250000  0.257313  0.358799  1
  P  P9  1  0.250000  0.763141  0.146653  1
  P  P10  1  0.750000  0.746694  0.643441  1
  P  P11  1  0.750000  0.236630  0.858017  1
