# generated using pymatgen
data_Y10Bi5PbS2
_symmetry_space_group_name_H-M   'P 1'
_cell_length_a   9.20705900
_cell_length_b   9.22815834
_cell_length_c   6.64405000
_cell_angle_alpha   90.00000000
_cell_angle_beta   90.00000000
_cell_angle_gamma   120.07582880
_symmetry_Int_Tables_number   1
_chemical_formula_structural   Y10Bi5PbS2
_chemical_formula_sum   'Y10 Bi5 Pb1 S2'
_cell_volume   488.50288793
_cell_formula_units_Z   1
loop_
 _symmetry_equiv_pos_site_id
 _symmetry_equiv_pos_as_xyz
  1  'x, y, z'
loop_
 _atom_site_type_symbol
 _atom_site_label
 _atom_site_symmetry_multiplicity
 _atom_site_fract_x
 _atom_site_fract_y
 _atom_site_fract_z
 _atom_site_occupancy
  Y  Y0  1  0.754622  0.754333  0.750000  1
  Y  Y1  1  0.245378  0.999710  0.750000  1
  Y  Y2  1  0.000000  0.244883  0.750000  1
  Y  Y3  1  0.243411  0.246696  0.250000  1
  Y  Y4  1  0.756589  0.003284  0.250000  1
  Y  Y5  1  0.000000  0.753835  0.250000  1
  Y  Y6  1  0.667775  0.333722  0.000943  1
  Y  Y7  1  0.332225  0.665947  0.000943  1
  Y  Y8  1  0.332225  0.665947  0.499057  1
  Y  Y9  1  0.667775  0.333722  0.499057  1
  Bi  Bi10  1  0.396859  0.396719  0.750000  1
  Bi  Bi11  1  0.603141  0.999860  0.750000  1
  Bi  Bi12  1  0.000000  0.601896  0.750000  1
  Bi  Bi13  1  0.603462  0.603930  0.250000  1
  Bi  Bi14  1  0.396538  0.000468  0.250000  1
  Pb  Pb15  1  0.000000  0.397396  0.250000  1
  S  S16  1  0.000000  0.998827  0.999657  1
  S  S17  1  0.000000  0.998827  0.500343  1
