# generated using pymatgen
data_Yb2Pu2H11
_symmetry_space_group_name_H-M   'P 1'
_cell_length_a   6.30733483
_cell_length_b   6.30733495
_cell_length_c   6.30733477
_cell_angle_alpha   130.74627138
_cell_angle_beta   130.74626559
_cell_angle_gamma   72.21651224
_symmetry_Int_Tables_number   1
_chemical_formula_structural   Yb2Pu2H11
_chemical_formula_sum   'Yb2 Pu2 H11'
_cell_volume   140.80552737
_cell_formula_units_Z   1
loop_
 _symmetry_equiv_pos_site_id
 _symmetry_equiv_pos_as_xyz
  1  'x, y, z'
loop_
 _atom_site_type_symbol
 _atom_site_label
 _atom_site_symmetry_multiplicity
 _atom_site_fract_x
 _atom_site_fract_y
 _atom_site_fract_z
 _atom_site_occupancy
  Yb  Yb0  1  0.259431  0.259431  0.000000  1
  Yb  Yb1  1  0.740569  0.740569  0.000000  1
  Pu  Pu2  1  0.500000  0.000000  0.500000  1
  Pu  Pu3  1  0.000000  0.500000  0.500000  1
  H  H4  1  0.655896  0.117648  0.000000  1
  H  H5  1  0.344104  0.344104  0.461751  1
  H  H6  1  0.117648  0.655896  0.000000  1
  H  H7  1  0.882352  0.882352  0.538249  1
  H  H8  1  0.882352  0.344104  0.000000  1
  H  H9  1  0.655896  0.655896  0.538249  1
  H  H10  1  0.344104  0.882352  0.000000  1
  H  H11  1  0.117648  0.117648  0.461751  1
  H  H12  1  0.750000  0.250000  0.500000  1
  H  H13  1  0.500000  0.500000  0.000000  1
  H  H14  1  0.250000  0.750000  0.500000  1
