# generated using pymatgen
data_PrNdEr2(Ir2O7)2
_symmetry_space_group_name_H-M   'P 1'
_cell_length_a   7.31769296
_cell_length_b   7.31769393
_cell_length_c   7.37207510
_cell_angle_alpha   59.68297696
_cell_angle_beta   59.68297099
_cell_angle_gamma   59.43627631
_symmetry_Int_Tables_number   1
_chemical_formula_structural   PrNdEr2(Ir2O7)2
_chemical_formula_sum   'Pr1 Nd1 Er2 Ir4 O14'
_cell_volume   276.60415219
_cell_formula_units_Z   1
loop_
 _symmetry_equiv_pos_site_id
 _symmetry_equiv_pos_as_xyz
  1  'x, y, z'
loop_
 _atom_site_type_symbol
 _atom_site_label
 _atom_site_symmetry_multiplicity
 _atom_site_fract_x
 _atom_site_fract_y
 _atom_site_fract_z
 _atom_site_occupancy
  Pr  Pr0  1  0.125000  0.125000  0.125000  1
  Nd  Nd1  1  0.125000  0.125000  0.625000  1
  Er  Er2  1  0.625000  0.125000  0.125000  1
  Er  Er3  1  0.125000  0.625000  0.125000  1
  Ir  Ir4  1  0.125000  0.625000  0.625000  1
  Ir  Ir5  1  0.625000  0.125000  0.625000  1
  Ir  Ir6  1  0.625000  0.625000  0.125000  1
  Ir  Ir7  1  0.625000  0.625000  0.625000  1
  O  O8  1  0.710087  0.710087  0.289945  1
  O  O9  1  0.289952  0.289952  0.708962  1
  O  O10  1  0.700526  0.290093  0.720219  1
  O  O11  1  0.290459  0.699147  0.289633  1
  O  O12  1  0.290093  0.700526  0.720219  1
  O  O13  1  0.699147  0.290459  0.289633  1
  O  O14  1  0.539913  0.539913  0.960055  1
  O  O15  1  0.960048  0.960048  0.541038  1
  O  O16  1  0.549474  0.959907  0.529781  1
  O  O17  1  0.959541  0.550853  0.960367  1
  O  O18  1  0.959907  0.549474  0.529781  1
  O  O19  1  0.550853  0.959541  0.960367  1
  O  O20  1  0.258968  0.258968  0.242531  1
  O  O21  1  0.991032  0.991032  0.007469  1
