# generated using pymatgen
data_Nd5Ru2Pb
_symmetry_space_group_name_H-M   'P 1'
_cell_length_a   9.07111433
_cell_length_b   9.07111397
_cell_length_c   9.07107387
_cell_angle_alpha   127.90050721
_cell_angle_beta   127.90050335
_cell_angle_gamma   76.79013698
_symmetry_Int_Tables_number   1
_chemical_formula_structural   Nd5Ru2Pb
_chemical_formula_sum   'Nd10 Ru4 Pb2'
_cell_volume   451.27811662
_cell_formula_units_Z   2
loop_
 _symmetry_equiv_pos_site_id
 _symmetry_equiv_pos_as_xyz
  1  'x, y, z'
loop_
 _atom_site_type_symbol
 _atom_site_label
 _atom_site_symmetry_multiplicity
 _atom_site_fract_x
 _atom_site_fract_y
 _atom_site_fract_z
 _atom_site_occupancy
  Nd  Nd0  1  0.000000  0.000000  0.000000  1
  Nd  Nd1  1  0.500000  0.500000  0.000000  1
  Nd  Nd2  1  0.788986  0.288986  0.815911  1
  Nd  Nd3  1  0.211014  0.711014  0.184089  1
  Nd  Nd4  1  0.473139  0.973139  0.184102  1
  Nd  Nd5  1  0.288938  0.473131  0.499977  1
  Nd  Nd6  1  0.026869  0.211062  0.500023  1
  Nd  Nd7  1  0.526861  0.026861  0.815898  1
  Nd  Nd8  1  0.711062  0.526869  0.500023  1
  Nd  Nd9  1  0.973131  0.788938  0.499977  1
  Ru  Ru10  1  0.144550  0.644550  0.789078  1
  Ru  Ru11  1  0.855450  0.355450  0.210922  1
  Ru  Ru12  1  0.644506  0.855494  0.500000  1
  Ru  Ru13  1  0.355494  0.144506  0.500000  1
  Pb  Pb14  1  0.249984  0.250016  0.000000  1
  Pb  Pb15  1  0.750016  0.749984  0.000000  1
