# generated using pymatgen
data_ErPa2(Al3Os)4
_symmetry_space_group_name_H-M   'P 1'
_cell_length_a   8.85062699
_cell_length_b   8.85062724
_cell_length_c   9.45023700
_cell_angle_alpha   90.00000000
_cell_angle_beta   90.00000000
_cell_angle_gamma   119.67776404
_symmetry_Int_Tables_number   1
_chemical_formula_structural   ErPa2(Al3Os)4
_chemical_formula_sum   'Er2 Pa4 Al24 Os8'
_cell_volume   643.16508955
_cell_formula_units_Z   2
loop_
 _symmetry_equiv_pos_site_id
 _symmetry_equiv_pos_as_xyz
  1  'x, y, z'
loop_
 _atom_site_type_symbol
 _atom_site_label
 _atom_site_symmetry_multiplicity
 _atom_site_fract_x
 _atom_site_fract_y
 _atom_site_fract_z
 _atom_site_occupancy
  Er  Er0  1  0.197574  0.802426  0.250000  1
  Er  Er1  1  0.802426  0.197574  0.750000  1
  Pa  Pa2  1  0.198719  0.393480  0.250000  1
  Pa  Pa3  1  0.801281  0.606520  0.750000  1
  Pa  Pa4  1  0.606520  0.801281  0.250000  1
  Pa  Pa5  1  0.393480  0.198719  0.750000  1
  Al  Al6  1  0.331427  0.668573  0.019178  1
  Al  Al7  1  0.668573  0.331427  0.980822  1
  Al  Al8  1  0.668573  0.331427  0.519178  1
  Al  Al9  1  0.331427  0.668573  0.480822  1
  Al  Al10  1  0.161788  0.324659  0.577905  1
  Al  Al11  1  0.838212  0.675341  0.422095  1
  Al  Al12  1  0.675341  0.838212  0.577905  1
  Al  Al13  1  0.838212  0.675341  0.077905  1
  Al  Al14  1  0.324659  0.161788  0.422095  1
  Al  Al15  1  0.161788  0.324659  0.922095  1
  Al  Al16  1  0.162597  0.837403  0.579117  1
  Al  Al17  1  0.324659  0.161788  0.077905  1
  Al  Al18  1  0.837403  0.162597  0.420883  1
  Al  Al19  1  0.675341  0.838212  0.922095  1
  Al  Al20  1  0.837403  0.162597  0.079117  1
  Al  Al21  1  0.162597  0.837403  0.920883  1
  Al  Al22  1  0.560268  0.122894  0.250000  1
  Al  Al23  1  0.439732  0.877106  0.750000  1
  Al  Al24  1  0.877106  0.439732  0.250000  1
  Al  Al25  1  0.122894  0.560268  0.750000  1
  Al  Al26  1  0.564096  0.435904  0.250000  1
  Al  Al27  1  0.435904  0.564096  0.750000  1
  Al  Al28  1  0.999655  0.000345  0.250000  1
  Al  Al29  1  0.000345  0.999655  0.750000  1
  Os  Os30  1  0.500000  0.000000  0.000000  1
  Os  Os31  1  0.000000  0.500000  0.000000  1
  Os  Os32  1  0.500000  0.000000  0.500000  1
  Os  Os33  1  0.500000  0.500000  0.000000  1
  Os  Os34  1  0.000000  0.500000  0.500000  1
  Os  Os35  1  0.500000  0.500000  0.500000  1
  Os  Os36  1  0.000000  0.000000  0.000000  1
  Os  Os37  1  0.000000  0.000000  0.500000  1
