# generated using pymatgen
data_Tb12Co4BiRu
_symmetry_space_group_name_H-M   'P 1'
_cell_length_a   8.38658995
_cell_length_b   8.38659071
_cell_length_c   8.38658966
_cell_angle_alpha   111.11333885
_cell_angle_beta   110.43075119
_cell_angle_gamma   106.90052732
_symmetry_Int_Tables_number   1
_chemical_formula_structural   Tb12Co4BiRu
_chemical_formula_sum   'Tb12 Co4 Bi1 Ru1'
_cell_volume   453.38347916
_cell_formula_units_Z   1
loop_
 _symmetry_equiv_pos_site_id
 _symmetry_equiv_pos_as_xyz
  1  'x, y, z'
loop_
 _atom_site_type_symbol
 _atom_site_label
 _atom_site_symmetry_multiplicity
 _atom_site_fract_x
 _atom_site_fract_y
 _atom_site_fract_z
 _atom_site_occupancy
  Tb  Tb0  1  0.817033  0.709989  0.527022  1
  Tb  Tb1  1  0.182967  0.290011  0.472978  1
  Tb  Tb2  1  0.182967  0.709989  0.892957  1
  Tb  Tb3  1  0.817033  0.290011  0.107043  1
  Tb  Tb4  1  0.687751  0.377999  0.690248  1
  Tb  Tb5  1  0.312249  0.622001  0.309752  1
  Tb  Tb6  1  0.687751  0.997503  0.309752  1
  Tb  Tb7  1  0.312249  0.002497  0.690248  1
  Tb  Tb8  1  0.598602  0.792799  0.805804  1
  Tb  Tb9  1  0.401398  0.207201  0.194196  1
  Tb  Tb10  1  0.986996  0.792799  0.194196  1
  Tb  Tb11  1  0.013004  0.207201  0.805804  1
  Co  Co12  1  0.622609  0.000000  0.622609  1
  Co  Co13  1  0.377391  0.000000  0.377391  1
  Co  Co14  1  0.110814  0.610814  0.500000  1
  Co  Co15  1  0.889186  0.389186  0.500000  1
  Bi  Bi16  1  0.500000  0.500000  0.000000  1
  Ru  Ru17  1  0.000000  0.000000  0.000000  1
