# generated using pymatgen
data_Sc3MnNi8
_symmetry_space_group_name_H-M   'P 1'
_cell_length_a   4.82826869
_cell_length_b   4.82826817
_cell_length_c   8.40345245
_cell_angle_alpha   106.69511952
_cell_angle_beta   73.30488127
_cell_angle_gamma   120.00000457
_symmetry_Int_Tables_number   1
_chemical_formula_structural   Sc3MnNi8
_chemical_formula_sum   'Sc3 Mn1 Ni8'
_cell_volume   160.05037054
_cell_formula_units_Z   1
loop_
 _symmetry_equiv_pos_site_id
 _symmetry_equiv_pos_as_xyz
  1  'x, y, z'
loop_
 _atom_site_type_symbol
 _atom_site_label
 _atom_site_symmetry_multiplicity
 _atom_site_fract_x
 _atom_site_fract_y
 _atom_site_fract_z
 _atom_site_occupancy
  Sc  Sc0  1  0.376123  0.623877  0.871630  1
  Sc  Sc1  1  0.994106  0.005894  0.017682  1
  Sc  Sc2  1  0.504451  0.495549  0.486645  1
  Mn  Mn3  1  0.872214  0.127786  0.383361  1
  Ni  Ni4  1  0.436532  0.563468  0.188702  1
  Ni  Ni5  1  0.938159  0.061841  0.684205  1
  Ni  Ni6  1  0.436532  0.061767  0.188702  1
  Ni  Ni7  1  0.938159  0.560522  0.684205  1
  Ni  Ni8  1  0.187992  0.812008  0.436021  1
  Ni  Ni9  1  0.688021  0.311979  0.935938  1
  Ni  Ni10  1  0.938233  0.563468  0.188702  1
  Ni  Ni11  1  0.439478  0.061841  0.684205  1
