# generated using pymatgen
data_Ir2PdRh(Pb2O7)2
_symmetry_space_group_name_H-M   'P 1'
_cell_length_a   7.34930850
_cell_length_b   7.35122042
_cell_length_c   7.35122014
_cell_angle_alpha   60.14324890
_cell_angle_beta   60.21222997
_cell_angle_gamma   60.21222292
_symmetry_Int_Tables_number   1
_chemical_formula_structural   Ir2PdRh(Pb2O7)2
_chemical_formula_sum   'Ir2 Pd1 Rh1 Pb4 O14'
_cell_volume   282.03760890
_cell_formula_units_Z   1
loop_
 _symmetry_equiv_pos_site_id
 _symmetry_equiv_pos_as_xyz
  1  'x, y, z'
loop_
 _atom_site_type_symbol
 _atom_site_label
 _atom_site_symmetry_multiplicity
 _atom_site_fract_x
 _atom_site_fract_y
 _atom_site_fract_z
 _atom_site_occupancy
  Ir  Ir0  1  0.625000  0.125000  0.625000  1
  Ir  Ir1  1  0.625000  0.625000  0.125000  1
  Pd  Pd2  1  0.625000  0.625000  0.625000  1
  Rh  Rh3  1  0.125000  0.625000  0.625000  1
  Pb  Pb4  1  0.625000  0.125000  0.125000  1
  Pb  Pb5  1  0.125000  0.625000  0.125000  1
  Pb  Pb6  1  0.125000  0.125000  0.625000  1
  Pb  Pb7  1  0.125000  0.125000  0.125000  1
  O  O8  1  0.705472  0.706344  0.288128  1
  O  O9  1  0.298087  0.292303  0.706813  1
  O  O10  1  0.705472  0.288128  0.706344  1
  O  O11  1  0.298087  0.706813  0.292303  1
  O  O12  1  0.289385  0.707650  0.707650  1
  O  O13  1  0.705038  0.296682  0.296682  1
  O  O14  1  0.544528  0.543656  0.961872  1
  O  O15  1  0.951913  0.957697  0.543187  1
  O  O16  1  0.544528  0.961872  0.543656  1
  O  O17  1  0.951913  0.543187  0.957697  1
  O  O18  1  0.960615  0.542350  0.542350  1
  O  O19  1  0.544962  0.953318  0.953318  1
  O  O20  1  0.249611  0.251607  0.251607  1
  O  O21  1  0.000389  0.998393  0.998393  1
