# generated using pymatgen
data_Ca3Ta11TiO24
_symmetry_space_group_name_H-M   'P 1'
_cell_length_a   7.09718783
_cell_length_b   7.09718612
_cell_length_c   9.74105800
_cell_angle_alpha   86.72060899
_cell_angle_beta   93.27937405
_cell_angle_gamma   86.67834374
_symmetry_Int_Tables_number   1
_chemical_formula_structural   Ca3Ta11TiO24
_chemical_formula_sum   'Ca3 Ta11 Ti1 O24'
_cell_volume   488.12891601
_cell_formula_units_Z   1
loop_
 _symmetry_equiv_pos_site_id
 _symmetry_equiv_pos_as_xyz
  1  'x, y, z'
loop_
 _atom_site_type_symbol
 _atom_site_label
 _atom_site_symmetry_multiplicity
 _atom_site_fract_x
 _atom_site_fract_y
 _atom_site_fract_z
 _atom_site_occupancy
  Ca  Ca0  1  0.622797  0.376190  0.122354  1
  Ca  Ca1  1  0.895256  0.099744  0.399790  1
  Ca  Ca2  1  0.372646  0.630934  0.869025  1
  Ta  Ta3  1  0.099918  0.900098  0.098149  1
  Ta  Ta4  1  0.598379  0.403446  0.600485  1
  Ta  Ta5  1  0.397624  0.605296  0.400894  1
  Ta  Ta6  1  0.901740  0.098436  0.897746  1
  Ta  Ta7  1  0.106453  0.331020  0.114098  1
  Ta  Ta8  1  0.669660  0.894233  0.113600  1
  Ta  Ta9  1  0.167476  0.399441  0.613421  1
  Ta  Ta10  1  0.332025  0.101710  0.879836  1
  Ta  Ta11  1  0.832700  0.603926  0.390931  1
  Ta  Ta12  1  0.400332  0.163725  0.392647  1
  Ta  Ta13  1  0.891055  0.671879  0.879413  1
  Ti  Ti14  1  0.601829  0.833546  0.613051  1
  O  O15  1  0.597372  0.088263  0.251501  1
  O  O16  1  0.083793  0.581823  0.752813  1
  O  O17  1  0.416962  0.917418  0.754525  1
  O  O18  1  0.912077  0.403042  0.251601  1
  O  O19  1  0.821964  0.821477  0.500246  1
  O  O20  1  0.332004  0.333121  0.999650  1
  O  O21  1  0.174641  0.173953  0.500676  1
  O  O22  1  0.665620  0.666822  0.999906  1
  O  O23  1  0.177880  0.092292  0.236519  1
  O  O24  1  0.670967  0.594929  0.737076  1
  O  O25  1  0.127313  0.591987  0.452346  1
  O  O26  1  0.629696  0.105252  0.962109  1
  O  O27  1  0.092622  0.187525  0.766808  1
  O  O28  1  0.596480  0.671410  0.263132  1
  O  O29  1  0.606771  0.131107  0.542930  1
  O  O30  1  0.100088  0.628500  0.038231  1
  O  O31  1  0.814380  0.908300  0.767664  1
  O  O32  1  0.328885  0.402033  0.264754  1
  O  O33  1  0.871282  0.395678  0.543287  1
  O  O34  1  0.372459  0.897664  0.040499  1
  O  O35  1  0.907431  0.821487  0.236799  1
  O  O36  1  0.406237  0.327826  0.738373  1
  O  O37  1  0.409993  0.872166  0.453339  1
  O  O38  1  0.895695  0.369801  0.962273  1
