# generated using pymatgen
data_LiY6Cd5Hg12
_symmetry_space_group_name_H-M   'P 1'
_cell_length_a   5.11637813
_cell_length_b   7.09546200
_cell_length_c   15.54603188
_cell_angle_alpha   90.00000000
_cell_angle_beta   90.51768174
_cell_angle_gamma   90.00000000
_symmetry_Int_Tables_number   1
_chemical_formula_structural   LiY6Cd5Hg12
_chemical_formula_sum   'Li1 Y6 Cd5 Hg12'
_cell_volume   564.34559457
_cell_formula_units_Z   1
loop_
 _symmetry_equiv_pos_site_id
 _symmetry_equiv_pos_as_xyz
  1  'x, y, z'
loop_
 _atom_site_type_symbol
 _atom_site_label
 _atom_site_symmetry_multiplicity
 _atom_site_fract_x
 _atom_site_fract_y
 _atom_site_fract_z
 _atom_site_occupancy
  Li  Li0  1  0.000000  0.500000  0.000000  1
  Y  Y1  1  0.000000  0.000000  0.000000  1
  Y  Y2  1  0.499934  0.500000  0.170535  1
  Y  Y3  1  0.999709  0.000000  0.332832  1
  Y  Y4  1  0.500000  0.500000  0.500000  1
  Y  Y5  1  0.000291  0.000000  0.667167  1
  Y  Y6  1  0.500066  0.500000  0.829465  1
  Cd  Cd7  1  0.499866  0.000000  0.166717  1
  Cd  Cd8  1  0.999863  0.500000  0.331790  1
  Cd  Cd9  1  0.500000  0.000000  0.500000  1
  Cd  Cd10  1  0.000137  0.500000  0.668210  1
  Cd  Cd11  1  0.500134  0.000000  0.833283  1
  Hg  Hg12  1  0.500000  0.266705  0.000000  1
  Hg  Hg13  1  0.500000  0.733294  0.000000  1
  Hg  Hg14  1  0.999689  0.255143  0.159240  1
  Hg  Hg15  1  0.999689  0.744858  0.159240  1
  Hg  Hg16  1  0.499651  0.248731  0.334182  1
  Hg  Hg17  1  0.499651  0.751270  0.334182  1
  Hg  Hg18  1  0.000000  0.247998  0.500000  1
  Hg  Hg19  1  0.000000  0.752003  0.500000  1
  Hg  Hg20  1  0.500349  0.248731  0.665818  1
  Hg  Hg21  1  0.500349  0.751270  0.665818  1
  Hg  Hg22  1  0.000311  0.255143  0.840760  1
  Hg  Hg23  1  0.000311  0.744858  0.840760  1
