# generated using pymatgen
data_Rb3TmV2O8
_symmetry_space_group_name_H-M   'P 1'
_cell_length_a   6.04666900
_cell_length_b   6.04667015
_cell_length_c   7.96135700
_cell_angle_alpha   90.00000000
_cell_angle_beta   90.00000000
_cell_angle_gamma   119.99999919
_symmetry_Int_Tables_number   1
_chemical_formula_structural   Rb3TmV2O8
_chemical_formula_sum   'Rb3 Tm1 V2 O8'
_cell_volume   252.08685945
_cell_formula_units_Z   1
loop_
 _symmetry_equiv_pos_site_id
 _symmetry_equiv_pos_as_xyz
  1  'x, y, z'
loop_
 _atom_site_type_symbol
 _atom_site_label
 _atom_site_symmetry_multiplicity
 _atom_site_fract_x
 _atom_site_fract_y
 _atom_site_fract_z
 _atom_site_occupancy
  Rb  Rb0  1  0.333333  0.666667  0.702082  1
  Rb  Rb1  1  0.666667  0.333333  0.297918  1
  Rb  Rb2  1  0.000000  0.000000  0.000000  1
  Tm  Tm3  1  0.000000  0.000000  0.500000  1
  V  V4  1  0.333333  0.666667  0.261748  1
  V  V5  1  0.666667  0.333333  0.738252  1
  O  O6  1  0.333333  0.666667  0.050161  1
  O  O7  1  0.666667  0.333333  0.949839  1
  O  O8  1  0.173989  0.826011  0.336417  1
  O  O9  1  0.826011  0.173989  0.663583  1
  O  O10  1  0.173989  0.347977  0.336417  1
  O  O11  1  0.826011  0.652023  0.663583  1
  O  O12  1  0.652023  0.826011  0.336417  1
  O  O13  1  0.347977  0.173989  0.663583  1
