# generated using pymatgen
data_YbCe(CuSn)2
_symmetry_space_group_name_H-M   'P 1'
_cell_length_a   4.60535600
_cell_length_b   7.44091701
_cell_length_c   7.78690207
_cell_angle_alpha   90.44367158
_cell_angle_beta   90.00000000
_cell_angle_gamma   90.00000000
_symmetry_Int_Tables_number   1
_chemical_formula_structural   YbCe(CuSn)2
_chemical_formula_sum   'Yb2 Ce2 Cu4 Sn4'
_cell_volume   266.83411909
_cell_formula_units_Z   2
loop_
 _symmetry_equiv_pos_site_id
 _symmetry_equiv_pos_as_xyz
  1  'x, y, z'
loop_
 _atom_site_type_symbol
 _atom_site_label
 _atom_site_symmetry_multiplicity
 _atom_site_fract_x
 _atom_site_fract_y
 _atom_site_fract_z
 _atom_site_occupancy
  Yb  Yb0  1  0.750000  0.991344  0.710303  1
  Yb  Yb1  1  0.250000  0.008656  0.289697  1
  Ce  Ce2  1  0.250000  0.509200  0.214636  1
  Ce  Ce3  1  0.750000  0.490800  0.785364  1
  Cu  Cu4  1  0.250000  0.813461  0.916710  1
  Cu  Cu5  1  0.750000  0.186539  0.083290  1
  Cu  Cu6  1  0.750000  0.699580  0.418071  1
  Cu  Cu7  1  0.250000  0.300420  0.581929  1
  Sn  Sn8  1  0.250000  0.699735  0.590841  1
  Sn  Sn9  1  0.750000  0.300265  0.409159  1
  Sn  Sn10  1  0.750000  0.792957  0.088218  1
  Sn  Sn11  1  0.250000  0.207043  0.911782  1
