# generated using pymatgen
data_Y7Ho(Hf3Si4)4
_symmetry_space_group_name_H-M   'P 1'
_cell_length_a   7.28663001
_cell_length_b   7.28616505
_cell_length_c   13.39228109
_cell_angle_alpha   90.01309188
_cell_angle_beta   90.00026605
_cell_angle_gamma   90.00437203
_symmetry_Int_Tables_number   1
_chemical_formula_structural   Y7Ho(Hf3Si4)4
_chemical_formula_sum   'Y7 Ho1 Hf12 Si16'
_cell_volume   711.01746126
_cell_formula_units_Z   1
loop_
 _symmetry_equiv_pos_site_id
 _symmetry_equiv_pos_as_xyz
  1  'x, y, z'
loop_
 _atom_site_type_symbol
 _atom_site_label
 _atom_site_symmetry_multiplicity
 _atom_site_fract_x
 _atom_site_fract_y
 _atom_site_fract_z
 _atom_site_occupancy
  Y  Y0  1  0.504748  0.845846  0.034939  1
  Y  Y1  1  0.654082  0.004839  0.285004  1
  Y  Y2  1  0.345841  0.995257  0.784866  1
  Y  Y3  1  0.845836  0.504755  0.965058  1
  Y  Y4  1  0.154285  0.495129  0.465108  1
  Y  Y5  1  0.004821  0.654187  0.715048  1
  Y  Y6  1  0.995247  0.345818  0.215068  1
  Ho  Ho7  1  0.495618  0.153857  0.534997  1
  Hf  Hf8  1  0.675711  0.324040  0.749855  1
  Hf  Hf9  1  0.324191  0.675836  0.250032  1
  Hf  Hf10  1  0.823911  0.824349  0.500017  1
  Hf  Hf11  1  0.175839  0.175863  0.999998  1
  Hf  Hf12  1  0.496047  0.352491  0.124770  1
  Hf  Hf13  1  0.503893  0.647397  0.624742  1
  Hf  Hf14  1  0.852502  0.003910  0.874726  1
  Hf  Hf15  1  0.147614  0.996267  0.374892  1
  Hf  Hf16  1  0.647345  0.503846  0.375348  1
  Hf  Hf17  1  0.352521  0.496029  0.875214  1
  Hf  Hf18  1  0.003937  0.852522  0.125253  1
  Hf  Hf19  1  0.996166  0.147491  0.625211  1
  Si  Si20  1  0.795704  0.139650  0.067221  1
  Si  Si21  1  0.204652  0.860717  0.567223  1
  Si  Si22  1  0.639664  0.704304  0.817190  1
  Si  Si23  1  0.360413  0.295605  0.317330  1
  Si  Si24  1  0.859863  0.204157  0.432908  1
  Si  Si25  1  0.139631  0.795705  0.932784  1
  Si  Si26  1  0.704297  0.639663  0.182815  1
  Si  Si27  1  0.296046  0.359887  0.682503  1
  Si  Si28  1  0.550843  0.206072  0.936014  1
  Si  Si29  1  0.449292  0.794439  0.436135  1
  Si  Si30  1  0.705695  0.949522  0.685742  1
  Si  Si31  1  0.293975  0.050847  0.186006  1
  Si  Si32  1  0.793646  0.448871  0.563969  1
  Si  Si33  1  0.206067  0.550851  0.064003  1
  Si  Si34  1  0.949182  0.706044  0.314022  1
  Si  Si35  1  0.050873  0.293937  0.813994  1
