# generated using pymatgen
data_La2TbNd(MoO4)6
_symmetry_space_group_name_H-M   'P 1'
_cell_length_a   7.64971376
_cell_length_b   7.64971347
_cell_length_c   10.97157564
_cell_angle_alpha   90.06579941
_cell_angle_beta   89.93419907
_cell_angle_gamma   89.57612223
_symmetry_Int_Tables_number   1
_chemical_formula_structural   La2TbNd(MoO4)6
_chemical_formula_sum   'La2 Tb1 Nd1 Mo6 O24'
_cell_volume   642.01753909
_cell_formula_units_Z   1
loop_
 _symmetry_equiv_pos_site_id
 _symmetry_equiv_pos_as_xyz
  1  'x, y, z'
loop_
 _atom_site_type_symbol
 _atom_site_label
 _atom_site_symmetry_multiplicity
 _atom_site_fract_x
 _atom_site_fract_y
 _atom_site_fract_z
 _atom_site_occupancy
  La  La0  1  0.190521  0.690327  0.261205  1
  La  La1  1  0.809673  0.309479  0.261205  1
  Tb  Tb2  1  0.308909  0.191091  0.736207  1
  Nd  Nd3  1  0.686633  0.813367  0.738166  1
  Mo  Mo4  1  0.209298  0.707315  0.648072  1
  Mo  Mo5  1  0.792685  0.290702  0.648072  1
  Mo  Mo6  1  0.708680  0.791320  0.357583  1
  Mo  Mo7  1  0.291169  0.208831  0.362362  1
  Mo  Mo8  1  0.004006  0.002805  0.993403  1
  Mo  Mo9  1  0.497195  0.495994  0.993403  1
  O  O10  1  0.198841  0.697472  0.485981  1
  O  O11  1  0.802528  0.301159  0.485981  1
  O  O12  1  0.695226  0.804774  0.519432  1
  O  O13  1  0.304030  0.195970  0.524669  1
  O  O14  1  0.624615  0.132122  0.693074  1
  O  O15  1  0.367878  0.875385  0.693074  1
  O  O16  1  0.128709  0.371291  0.315106  1
  O  O17  1  0.871805  0.628195  0.311794  1
  O  O18  1  0.774460  0.996977  0.297773  1
  O  O19  1  0.226078  0.003245  0.301698  1
  O  O20  1  0.496755  0.273922  0.301698  1
  O  O21  1  0.503023  0.725540  0.297773  1
  O  O22  1  0.003146  0.224950  0.703635  1
  O  O23  1  0.999552  0.769988  0.704713  1
  O  O24  1  0.730012  0.500448  0.704713  1
  O  O25  1  0.275050  0.496854  0.703635  1
  O  O26  1  0.815180  0.958732  0.902346  1
  O  O27  1  0.187390  0.049390  0.896865  1
  O  O28  1  0.450610  0.312610  0.896865  1
  O  O29  1  0.541268  0.684820  0.902346  1
  O  O30  1  0.959305  0.186379  0.090263  1
  O  O31  1  0.049610  0.817461  0.088310  1
  O  O32  1  0.682539  0.450390  0.088310  1
  O  O33  1  0.313621  0.540695  0.090263  1
