# generated using pymatgen
data_Er4PtPb2Au3
_symmetry_space_group_name_H-M   'P 1'
_cell_length_a   8.07443863
_cell_length_b   8.07443876
_cell_length_c   3.62410900
_cell_angle_alpha   90.00000000
_cell_angle_beta   90.00000000
_cell_angle_gamma   90.24948147
_symmetry_Int_Tables_number   1
_chemical_formula_structural   Er4PtPb2Au3
_chemical_formula_sum   'Er4 Pt1 Pb2 Au3'
_cell_volume   236.27720077
_cell_formula_units_Z   1
loop_
 _symmetry_equiv_pos_site_id
 _symmetry_equiv_pos_as_xyz
  1  'x, y, z'
loop_
 _atom_site_type_symbol
 _atom_site_label
 _atom_site_symmetry_multiplicity
 _atom_site_fract_x
 _atom_site_fract_y
 _atom_site_fract_z
 _atom_site_occupancy
  Er  Er0  1  0.677248  0.177248  0.500000  1
  Er  Er1  1  0.152735  0.329038  0.500000  1
  Er  Er2  1  0.829038  0.652735  0.500000  1
  Er  Er3  1  0.335150  0.835150  0.500000  1
  Pt  Pt4  1  0.874612  0.374612  0.000000  1
  Pb  Pb5  1  0.998968  0.999112  0.000000  1
  Pb  Pb6  1  0.499112  0.498968  0.000000  1
  Au  Au7  1  0.375484  0.129564  0.000000  1
  Au  Au8  1  0.128087  0.628087  0.000000  1
  Au  Au9  1  0.629564  0.875484  0.000000  1
