# generated using pymatgen
data_Y3Th(BeSi3)2
_symmetry_space_group_name_H-M   'P 1'
_cell_length_a   7.88772900
_cell_length_b   7.88772902
_cell_length_c   8.22095500
_cell_angle_alpha   90.00000000
_cell_angle_beta   90.00000000
_cell_angle_gamma   119.99999574
_symmetry_Int_Tables_number   1
_chemical_formula_structural   Y3Th(BeSi3)2
_chemical_formula_sum   'Y6 Th2 Be4 Si12'
_cell_volume   442.95222175
_cell_formula_units_Z   2
loop_
 _symmetry_equiv_pos_site_id
 _symmetry_equiv_pos_as_xyz
  1  'x, y, z'
loop_
 _atom_site_type_symbol
 _atom_site_label
 _atom_site_symmetry_multiplicity
 _atom_site_fract_x
 _atom_site_fract_y
 _atom_site_fract_z
 _atom_site_occupancy
  Y  Y0  1  0.999716  0.499857  0.250000  1
  Y  Y1  1  0.500143  0.499857  0.250000  1
  Y  Y2  1  0.499857  0.999716  0.750000  1
  Y  Y3  1  0.500143  0.000284  0.250000  1
  Y  Y4  1  0.499857  0.500143  0.750000  1
  Y  Y5  1  0.000284  0.500143  0.750000  1
  Th  Th6  1  0.000000  0.000000  0.250000  1
  Th  Th7  1  0.000000  0.000000  0.750000  1
  Be  Be8  1  0.333333  0.666667  0.999228  1
  Be  Be9  1  0.333333  0.666667  0.500772  1
  Be  Be10  1  0.666667  0.333333  0.000772  1
  Be  Be11  1  0.666667  0.333333  0.499228  1
  Si  Si12  1  0.173636  0.347273  0.000026  1
  Si  Si13  1  0.652727  0.826364  0.000026  1
  Si  Si14  1  0.173636  0.347273  0.499974  1
  Si  Si15  1  0.347273  0.173636  0.999974  1
  Si  Si16  1  0.173636  0.826364  0.000026  1
  Si  Si17  1  0.652727  0.826364  0.499974  1
  Si  Si18  1  0.826364  0.652727  0.999974  1
  Si  Si19  1  0.347273  0.173636  0.500026  1
  Si  Si20  1  0.173636  0.826364  0.499974  1
  Si  Si21  1  0.826364  0.652727  0.500026  1
  Si  Si22  1  0.826364  0.173636  0.999974  1
  Si  Si23  1  0.826364  0.173636  0.500026  1
