# generated using pymatgen
data_Pr8Tm2InSi4Ge
_symmetry_space_group_name_H-M   'P 1'
_cell_length_a   7.69638800
_cell_length_b   9.29723173
_cell_length_c   7.69638800
_cell_angle_alpha   114.45054254
_cell_angle_beta   90.00000000
_cell_angle_gamma   114.45054254
_symmetry_Int_Tables_number   1
_chemical_formula_structural   Pr8Tm2InSi4Ge
_chemical_formula_sum   'Pr8 Tm2 In1 Si4 Ge1'
_cell_volume   446.50828549
_cell_formula_units_Z   1
loop_
 _symmetry_equiv_pos_site_id
 _symmetry_equiv_pos_as_xyz
  1  'x, y, z'
loop_
 _atom_site_type_symbol
 _atom_site_label
 _atom_site_symmetry_multiplicity
 _atom_site_fract_x
 _atom_site_fract_y
 _atom_site_fract_z
 _atom_site_occupancy
  Pr  Pr0  1  0.524944  0.721867  0.673970  1
  Pr  Pr1  1  0.196926  0.721867  0.047898  1
  Pr  Pr2  1  0.673970  0.721867  0.196926  1
  Pr  Pr3  1  0.047898  0.721867  0.524944  1
  Pr  Pr4  1  0.452102  0.278133  0.303074  1
  Pr  Pr5  1  0.826030  0.278133  0.975056  1
  Pr  Pr6  1  0.303074  0.278133  0.826030  1
  Pr  Pr7  1  0.975056  0.278133  0.452102  1
  Tm  Tm8  1  0.981493  0.962985  0.981493  1
  Tm  Tm9  1  0.518507  0.037015  0.518507  1
  In  In10  1  0.750000  0.500000  0.750000  1
  Si  Si11  1  0.880081  0.000000  0.619919  1
  Si  Si12  1  0.119919  0.000000  0.380081  1
  Si  Si13  1  0.619919  0.000000  0.119919  1
  Si  Si14  1  0.380081  0.000000  0.880081  1
  Ge  Ge15  1  0.250000  0.500000  0.250000  1
