# generated using pymatgen
data_Be7Al2Fe2B
_symmetry_space_group_name_H-M   'P 1'
_cell_length_a   4.20974900
_cell_length_b   4.18125209
_cell_length_c   6.77038957
_cell_angle_alpha   90.61801107
_cell_angle_beta   90.00000000
_cell_angle_gamma   120.22570095
_symmetry_Int_Tables_number   1
_chemical_formula_structural   Be7Al2Fe2B
_chemical_formula_sum   'Be7 Al2 Fe2 B1'
_cell_volume   102.96290413
_cell_formula_units_Z   1
loop_
 _symmetry_equiv_pos_site_id
 _symmetry_equiv_pos_as_xyz
  1  'x, y, z'
loop_
 _atom_site_type_symbol
 _atom_site_label
 _atom_site_symmetry_multiplicity
 _atom_site_fract_x
 _atom_site_fract_y
 _atom_site_fract_z
 _atom_site_occupancy
  Be  Be0  1  0.996080  0.992159  0.996571  1
  Be  Be1  1  0.993526  0.987052  0.486077  1
  Be  Be2  1  0.168867  0.830771  0.750208  1
  Be  Be3  1  0.661904  0.830771  0.750208  1
  Be  Be4  1  0.342281  0.175507  0.249973  1
  Be  Be5  1  0.833225  0.175507  0.249973  1
  Be  Be6  1  0.168572  0.337143  0.751828  1
  Al  Al7  1  0.334702  0.669406  0.064213  1
  Al  Al8  1  0.665912  0.331823  0.566100  1
  Fe  Fe9  1  0.668676  0.337350  0.951648  1
  Fe  Fe10  1  0.333027  0.666054  0.437590  1
  B  B11  1  0.833229  0.666457  0.245610  1
