# generated using pymatgen
data_Nd5Zr2P12Ir17
_symmetry_space_group_name_H-M   'P 1'
_cell_length_a   12.73773300
_cell_length_b   12.96974065
_cell_length_c   4.03549800
_cell_angle_alpha   90.00000000
_cell_angle_beta   90.00000000
_cell_angle_gamma   119.40999801
_symmetry_Int_Tables_number   1
_chemical_formula_structural   Nd5Zr2P12Ir17
_chemical_formula_sum   'Nd5 Zr2 P12 Ir17'
_cell_volume   580.76790848
_cell_formula_units_Z   1
loop_
 _symmetry_equiv_pos_site_id
 _symmetry_equiv_pos_as_xyz
  1  'x, y, z'
loop_
 _atom_site_type_symbol
 _atom_site_label
 _atom_site_symmetry_multiplicity
 _atom_site_fract_x
 _atom_site_fract_y
 _atom_site_fract_z
 _atom_site_occupancy
  Nd  Nd0  1  0.329805  0.661969  0.500000  1
  Nd  Nd1  1  0.667838  0.338031  0.500000  1
  Nd  Nd2  1  0.001226  0.815394  0.000000  1
  Nd  Nd3  1  0.185832  0.184606  0.000000  1
  Nd  Nd4  1  0.813280  0.000000  0.000000  1
  Zr  Zr5  1  0.997644  0.446204  0.500000  1
  Zr  Zr6  1  0.551440  0.553796  0.500000  1
  P  P7  1  0.005617  0.648356  0.500000  1
  P  P8  1  0.357261  0.351644  0.500000  1
  P  P9  1  0.642614  0.000000  0.500000  1
  P  P10  1  0.516169  0.686472  0.000000  1
  P  P11  1  0.309111  0.825987  0.000000  1
  P  P12  1  0.163699  0.479188  0.000000  1
  P  P13  1  0.483123  0.174013  0.000000  1
  P  P14  1  0.684511  0.520812  0.000000  1
  P  P15  1  0.829697  0.313528  0.000000  1
  P  P16  1  0.999390  0.175836  0.500000  1
  P  P17  1  0.823554  0.824164  0.500000  1
  P  P18  1  0.183173  0.000000  0.500000  1
  Ir  Ir19  1  0.506172  0.866759  0.000000  1
  Ir  Ir20  1  0.125933  0.644077  0.000000  1
  Ir  Ir21  1  0.355268  0.493790  0.000000  1
  Ir  Ir22  1  0.481856  0.355923  0.000000  1
  Ir  Ir23  1  0.861479  0.506210  0.000000  1
  Ir  Ir24  1  0.639414  0.133241  0.000000  1
  Ir  Ir25  1  0.464098  0.000000  0.500000  1
  Ir  Ir26  1  0.996806  0.279398  0.000000  1
  Ir  Ir27  1  0.717408  0.720602  0.000000  1
  Ir  Ir28  1  0.292225  0.000000  0.000000  1
  Ir  Ir29  1  0.622409  0.806839  0.500000  1
  Ir  Ir30  1  0.206325  0.826714  0.500000  1
  Ir  Ir31  1  0.177238  0.367655  0.500000  1
  Ir  Ir32  1  0.379611  0.173286  0.500000  1
  Ir  Ir33  1  0.809582  0.632345  0.500000  1
  Ir  Ir34  1  0.815571  0.193161  0.500000  1
  Ir  Ir35  1  0.003625  0.000000  0.500000  1
