# generated using pymatgen
data_Tm12Ga9Si9Ge2
_symmetry_space_group_name_H-M   'P 1'
_cell_length_a   5.89664102
_cell_length_b   5.89664136
_cell_length_c   18.53475900
_cell_angle_alpha   90.00000000
_cell_angle_beta   90.00000000
_cell_angle_gamma   102.95108558
_symmetry_Int_Tables_number   1
_chemical_formula_structural   Tm12Ga9Si9Ge2
_chemical_formula_sum   'Tm12 Ga9 Si9 Ge2'
_cell_volume   628.06661774
_cell_formula_units_Z   1
loop_
 _symmetry_equiv_pos_site_id
 _symmetry_equiv_pos_as_xyz
  1  'x, y, z'
loop_
 _atom_site_type_symbol
 _atom_site_label
 _atom_site_symmetry_multiplicity
 _atom_site_fract_x
 _atom_site_fract_y
 _atom_site_fract_z
 _atom_site_occupancy
  Tm  Tm0  1  0.651849  0.651849  0.000000  1
  Tm  Tm1  1  0.659355  0.659355  0.500000  1
  Tm  Tm2  1  0.341540  0.341540  0.250395  1
  Tm  Tm3  1  0.341540  0.341540  0.749605  1
  Tm  Tm4  1  0.200324  0.802188  0.127839  1
  Tm  Tm5  1  0.198567  0.801582  0.625090  1
  Tm  Tm6  1  0.200324  0.802188  0.872161  1
  Tm  Tm7  1  0.198567  0.801582  0.374910  1
  Tm  Tm8  1  0.802188  0.200324  0.127839  1
  Tm  Tm9  1  0.801582  0.198567  0.625090  1
  Tm  Tm10  1  0.801582  0.198567  0.374910  1
  Tm  Tm11  1  0.802188  0.200324  0.872161  1
  Ga  Ga12  1  0.317889  0.317889  0.901675  1
  Ga  Ga13  1  0.323069  0.323069  0.401713  1
  Ga  Ga14  1  0.677903  0.677903  0.348301  1
  Ga  Ga15  1  0.677875  0.677875  0.848320  1
  Ga  Ga16  1  0.317889  0.317889  0.098325  1
  Ga  Ga17  1  0.323069  0.323069  0.598287  1
  Ga  Ga18  1  0.677875  0.677875  0.151680  1
  Ga  Ga19  1  0.677903  0.677903  0.651699  1
  Ga  Ga20  1  0.038231  0.038231  0.000000  1
  Si  Si21  1  0.485184  0.087169  0.500000  1
  Si  Si22  1  0.913828  0.515807  0.250374  1
  Si  Si23  1  0.913828  0.515807  0.749626  1
  Si  Si24  1  0.515807  0.913828  0.250374  1
  Si  Si25  1  0.515807  0.913828  0.749626  1
  Si  Si26  1  0.087169  0.485184  0.500000  1
  Si  Si27  1  0.050711  0.050711  0.500000  1
  Si  Si28  1  0.950486  0.950486  0.250605  1
  Si  Si29  1  0.950486  0.950486  0.749395  1
  Ge  Ge30  1  0.499138  0.086250  0.000000  1
  Ge  Ge31  1  0.086250  0.499138  0.000000  1
