# generated using pymatgen
data_Hf3Zr3U2(InPt2)4
_symmetry_space_group_name_H-M   'P 1'
_cell_length_a   7.51290831
_cell_length_b   7.51290921
_cell_length_c   7.06475400
_cell_angle_alpha   90.00000000
_cell_angle_beta   90.00000000
_cell_angle_gamma   87.23193023
_symmetry_Int_Tables_number   1
_chemical_formula_structural   Hf3Zr3U2(InPt2)4
_chemical_formula_sum   'Hf3 Zr3 U2 In4 Pt8'
_cell_volume   398.29627548
_cell_formula_units_Z   1
loop_
 _symmetry_equiv_pos_site_id
 _symmetry_equiv_pos_as_xyz
  1  'x, y, z'
loop_
 _atom_site_type_symbol
 _atom_site_label
 _atom_site_symmetry_multiplicity
 _atom_site_fract_x
 _atom_site_fract_y
 _atom_site_fract_z
 _atom_site_occupancy
  Hf  Hf0  1  0.691282  0.308840  0.500000  1
  Hf  Hf1  1  0.308840  0.691282  0.500000  1
  Hf  Hf2  1  0.183906  0.183906  0.000000  1
  Zr  Zr3  1  0.814225  0.814225  0.000000  1
  Zr  Zr4  1  0.853673  0.853673  0.500000  1
  Zr  Zr5  1  0.146388  0.146388  0.500000  1
  U  U6  1  0.364777  0.634641  0.000000  1
  U  U7  1  0.634641  0.364777  0.000000  1
  In  In8  1  0.500172  0.000096  0.257808  1
  In  In9  1  0.000096  0.500172  0.742192  1
  In  In10  1  0.500172  0.000096  0.742192  1
  In  In11  1  0.000096  0.500172  0.257808  1
  Pt  Pt12  1  0.865809  0.136798  0.208086  1
  Pt  Pt13  1  0.136798  0.865809  0.208086  1
  Pt  Pt14  1  0.365227  0.365227  0.705729  1
  Pt  Pt15  1  0.633032  0.633032  0.703945  1
  Pt  Pt16  1  0.136798  0.865809  0.791914  1
  Pt  Pt17  1  0.865809  0.136798  0.791914  1
  Pt  Pt18  1  0.633032  0.633032  0.296055  1
  Pt  Pt19  1  0.365227  0.365227  0.294271  1
