# generated using pymatgen
data_Er12InCo4Os
_symmetry_space_group_name_H-M   'P 1'
_cell_length_a   8.20540230
_cell_length_b   8.20540202
_cell_length_c   8.20540253
_cell_angle_alpha   111.48548835
_cell_angle_beta   110.63524697
_cell_angle_gamma   106.33882566
_symmetry_Int_Tables_number   1
_chemical_formula_structural   Er12InCo4Os
_chemical_formula_sum   'Er12 In1 Co4 Os1'
_cell_volume   424.31123972
_cell_formula_units_Z   1
loop_
 _symmetry_equiv_pos_site_id
 _symmetry_equiv_pos_as_xyz
  1  'x, y, z'
loop_
 _atom_site_type_symbol
 _atom_site_label
 _atom_site_symmetry_multiplicity
 _atom_site_fract_x
 _atom_site_fract_y
 _atom_site_fract_z
 _atom_site_occupancy
  Er  Er0  1  0.181742  0.278891  0.460633  1
  Er  Er1  1  0.818258  0.721109  0.539367  1
  Er  Er2  1  0.181742  0.721109  0.902850  1
  Er  Er3  1  0.818258  0.278891  0.097150  1
  Er  Er4  1  0.314354  0.617373  0.303019  1
  Er  Er5  1  0.685646  0.382627  0.696981  1
  Er  Er6  1  0.314354  0.011336  0.696981  1
  Er  Er7  1  0.685646  0.988664  0.303019  1
  Er  Er8  1  0.417953  0.221383  0.196570  1
  Er  Er9  1  0.582047  0.778617  0.803430  1
  Er  Er10  1  0.024813  0.221383  0.803430  1
  Er  Er11  1  0.975187  0.778617  0.196570  1
  In  In12  1  0.500000  0.500000  0.000000  1
  Co  Co13  1  0.112049  0.612049  0.500000  1
  Co  Co14  1  0.887951  0.387951  0.500000  1
  Co  Co15  1  0.377281  0.000000  0.377281  1
  Co  Co16  1  0.622719  0.000000  0.622719  1
  Os  Os17  1  0.000000  0.000000  0.000000  1
