# generated using pymatgen
data_Y2ErTm3(ReB7)2
_symmetry_space_group_name_H-M   'P 1'
_cell_length_a   8.00494122
_cell_length_b   8.00494061
_cell_length_c   9.32947122
_cell_angle_alpha   90.02450114
_cell_angle_beta   89.97549964
_cell_angle_gamma   154.61221776
_symmetry_Int_Tables_number   1
_chemical_formula_structural   Y2ErTm3(ReB7)2
_chemical_formula_sum   'Y2 Er1 Tm3 Re2 B14'
_cell_volume   256.31249694
_cell_formula_units_Z   1
loop_
 _symmetry_equiv_pos_site_id
 _symmetry_equiv_pos_as_xyz
  1  'x, y, z'
loop_
 _atom_site_type_symbol
 _atom_site_label
 _atom_site_symmetry_multiplicity
 _atom_site_fract_x
 _atom_site_fract_y
 _atom_site_fract_z
 _atom_site_occupancy
  Y  Y0  1  0.244170  0.755830  0.250027  1
  Y  Y1  1  0.755557  0.244443  0.749941  1
  Er  Er2  1  0.894402  0.105598  0.059208  1
  Tm  Tm3  1  0.105282  0.894718  0.558485  1
  Tm  Tm4  1  0.105130  0.894870  0.941387  1
  Tm  Tm5  1  0.894835  0.105165  0.441561  1
  Re  Re6  1  0.051914  0.948086  0.250405  1
  Re  Re7  1  0.948398  0.051602  0.749550  1
  B  B8  1  0.454684  0.545316  0.250470  1
  B  B9  1  0.545767  0.454233  0.749803  1
  B  B10  1  0.726753  0.273247  0.033105  1
  B  B11  1  0.272865  0.727135  0.533238  1
  B  B12  1  0.272554  0.727446  0.966428  1
  B  B13  1  0.727162  0.272838  0.466727  1
  B  B14  1  0.631841  0.368159  0.349779  1
  B  B15  1  0.368214  0.631786  0.849169  1
  B  B16  1  0.368234  0.631766  0.650252  1
  B  B17  1  0.631760  0.368240  0.150288  1
  B  B18  1  0.519951  0.480049  0.405437  1
  B  B19  1  0.480271  0.519729  0.904918  1
  B  B20  1  0.480259  0.519741  0.594773  1
  B  B21  1  0.519996  0.480004  0.095047  1
