# generated using pymatgen
data_TbYb7Sb6
_symmetry_space_group_name_H-M   'P 1'
_cell_length_a   8.12226301
_cell_length_b   8.19791744
_cell_length_c   8.19791859
_cell_angle_alpha   109.65740666
_cell_angle_beta   109.28438164
_cell_angle_gamma   109.28438821
_symmetry_Int_Tables_number   1
_chemical_formula_structural   TbYb7Sb6
_chemical_formula_sum   'Tb1 Yb7 Sb6'
_cell_volume   421.17105300
_cell_formula_units_Z   1
loop_
 _symmetry_equiv_pos_site_id
 _symmetry_equiv_pos_as_xyz
  1  'x, y, z'
loop_
 _atom_site_type_symbol
 _atom_site_label
 _atom_site_symmetry_multiplicity
 _atom_site_fract_x
 _atom_site_fract_y
 _atom_site_fract_z
 _atom_site_occupancy
  Tb  Tb0  1  0.354043  0.500000  0.000000  1
  Yb  Yb1  1  0.500478  0.004310  0.355715  1
  Yb  Yb2  1  0.500798  0.000655  0.850194  1
  Yb  Yb3  1  0.650604  0.649806  0.650461  1
  Yb  Yb4  1  0.996168  0.351406  0.495690  1
  Yb  Yb5  1  0.144763  0.144285  0.148594  1
  Yb  Yb6  1  0.851401  0.500000  0.000000  1
  Yb  Yb7  1  0.000143  0.849539  0.499345  1
  Sb  Sb8  1  0.128633  0.744468  0.875701  1
  Sb  Sb9  1  0.884165  0.131233  0.755532  1
  Sb  Sb10  1  0.618525  0.374457  0.245248  1
  Sb  Sb11  1  0.373278  0.254752  0.629209  1
  Sb  Sb12  1  0.744068  0.870791  0.125543  1
  Sb  Sb13  1  0.252932  0.624299  0.368767  1
