# generated using pymatgen
data_NaTb7(Sn11Os3)2
_symmetry_space_group_name_H-M   'P 1'
_cell_length_a   9.86361700
_cell_length_b   9.86361647
_cell_length_c   10.14717800
_cell_angle_alpha   90.00000000
_cell_angle_beta   90.00000000
_cell_angle_gamma   120.00000512
_symmetry_Int_Tables_number   1
_chemical_formula_structural   NaTb7(Sn11Os3)2
_chemical_formula_sum   'Na1 Tb7 Sn22 Os6'
_cell_volume   854.96486142
_cell_formula_units_Z   1
loop_
 _symmetry_equiv_pos_site_id
 _symmetry_equiv_pos_as_xyz
  1  'x, y, z'
loop_
 _atom_site_type_symbol
 _atom_site_label
 _atom_site_symmetry_multiplicity
 _atom_site_fract_x
 _atom_site_fract_y
 _atom_site_fract_z
 _atom_site_occupancy
  Na  Na0  1  0.000000  0.000000  0.500000  1
  Tb  Tb1  1  0.000000  0.000000  0.000000  1
  Tb  Tb2  1  0.483586  0.516414  0.305638  1
  Tb  Tb3  1  0.516414  0.483586  0.694362  1
  Tb  Tb4  1  0.483586  0.967171  0.305638  1
  Tb  Tb5  1  0.516414  0.032829  0.694362  1
  Tb  Tb6  1  0.032829  0.516414  0.305638  1
  Tb  Tb7  1  0.967171  0.483586  0.694362  1
  Sn  Sn8  1  0.349738  0.000000  0.000000  1
  Sn  Sn9  1  0.650262  0.000000  0.000000  1
  Sn  Sn10  1  0.000000  0.349738  0.000000  1
  Sn  Sn11  1  0.000000  0.650262  0.000000  1
  Sn  Sn12  1  0.650262  0.650262  0.000000  1
  Sn  Sn13  1  0.349738  0.349738  0.000000  1
  Sn  Sn14  1  0.333333  0.666667  0.826112  1
  Sn  Sn15  1  0.666667  0.333333  0.173888  1
  Sn  Sn16  1  0.779128  0.220872  0.462261  1
  Sn  Sn17  1  0.220872  0.779128  0.537739  1
  Sn  Sn18  1  0.779128  0.558255  0.462261  1
  Sn  Sn19  1  0.220872  0.441745  0.537739  1
  Sn  Sn20  1  0.441745  0.220872  0.462261  1
  Sn  Sn21  1  0.558255  0.779128  0.537739  1
  Sn  Sn22  1  0.333333  0.666667  0.126165  1
  Sn  Sn23  1  0.666667  0.333333  0.873835  1
  Sn  Sn24  1  0.123870  0.876130  0.265500  1
  Sn  Sn25  1  0.876130  0.123870  0.734500  1
  Sn  Sn26  1  0.123870  0.247742  0.265500  1
  Sn  Sn27  1  0.876130  0.752258  0.734500  1
  Sn  Sn28  1  0.752258  0.876130  0.265500  1
  Sn  Sn29  1  0.247742  0.123870  0.734500  1
  Os  Os30  1  0.831791  0.168209  0.204741  1
  Os  Os31  1  0.168209  0.831791  0.795259  1
  Os  Os32  1  0.831791  0.663582  0.204741  1
  Os  Os33  1  0.168209  0.336418  0.795259  1
  Os  Os34  1  0.336418  0.168209  0.204741  1
  Os  Os35  1  0.663582  0.831791  0.795259  1
