# generated using pymatgen
data_Ce3Er(AlRu)4
_symmetry_space_group_name_H-M   'P 1'
_cell_length_a   4.00071100
_cell_length_b   7.27791339
_cell_length_c   15.92636923
_cell_angle_alpha   89.80746050
_cell_angle_beta   90.00000000
_cell_angle_gamma   90.00000000
_symmetry_Int_Tables_number   1
_chemical_formula_structural   Ce3Er(AlRu)4
_chemical_formula_sum   'Ce6 Er2 Al8 Ru8'
_cell_volume   463.72273762
_cell_formula_units_Z   2
loop_
 _symmetry_equiv_pos_site_id
 _symmetry_equiv_pos_as_xyz
  1  'x, y, z'
loop_
 _atom_site_type_symbol
 _atom_site_label
 _atom_site_symmetry_multiplicity
 _atom_site_fract_x
 _atom_site_fract_y
 _atom_site_fract_z
 _atom_site_occupancy
  Ce  Ce0  1  0.750000  0.823381  0.437768  1
  Ce  Ce1  1  0.750000  0.454981  0.282112  1
  Ce  Ce2  1  0.750000  0.329177  0.062923  1
  Ce  Ce3  1  0.250000  0.674850  0.939059  1
  Ce  Ce4  1  0.250000  0.048230  0.779037  1
  Ce  Ce5  1  0.250000  0.542262  0.718540  1
  Er  Er6  1  0.750000  0.957222  0.218026  1
  Er  Er7  1  0.250000  0.158940  0.559436  1
  Al  Al8  1  0.750000  0.488418  0.562816  1
  Al  Al9  1  0.750000  0.371930  0.850844  1
  Al  Al10  1  0.750000  0.006527  0.936943  1
  Al  Al11  1  0.750000  0.872127  0.648514  1
  Al  Al12  1  0.250000  0.486743  0.438210  1
  Al  Al13  1  0.250000  0.997283  0.066842  1
  Al  Al14  1  0.250000  0.638990  0.153429  1
  Al  Al15  1  0.250000  0.123331  0.344011  1
  Ru  Ru16  1  0.750000  0.749947  0.816374  1
  Ru  Ru17  1  0.250000  0.240847  0.938933  1
  Ru  Ru18  1  0.750000  0.262922  0.427543  1
  Ru  Ru19  1  0.250000  0.753575  0.323480  1
  Ru  Ru20  1  0.750000  0.763489  0.062842  1
  Ru  Ru21  1  0.750000  0.249648  0.689291  1
  Ru  Ru22  1  0.250000  0.271171  0.179118  1
  Ru  Ru23  1  0.250000  0.734008  0.563911  1
