# generated using pymatgen
data_La3NdAl18(IrPt2)2
_symmetry_space_group_name_H-M   'P 1'
_cell_length_a   7.70361307
_cell_length_b   7.70442813
_cell_length_c   9.61663100
_cell_angle_alpha   90.00000000
_cell_angle_beta   90.00000000
_cell_angle_gamma   119.58856904
_symmetry_Int_Tables_number   1
_chemical_formula_structural   La3NdAl18(IrPt2)2
_chemical_formula_sum   'La3 Nd1 Al18 Ir2 Pt4'
_cell_volume   496.33406724
_cell_formula_units_Z   1
loop_
 _symmetry_equiv_pos_site_id
 _symmetry_equiv_pos_as_xyz
  1  'x, y, z'
loop_
 _atom_site_type_symbol
 _atom_site_label
 _atom_site_symmetry_multiplicity
 _atom_site_fract_x
 _atom_site_fract_y
 _atom_site_fract_z
 _atom_site_occupancy
  La  La0  1  0.994506  0.667710  0.250000  1
  La  La1  1  0.005327  0.332076  0.750000  1
  La  La2  1  0.667866  0.994622  0.250000  1
  Nd  Nd3  1  0.332640  0.005726  0.750000  1
  Al  Al4  1  0.130398  0.129912  0.250000  1
  Al  Al5  1  0.871794  0.870750  0.750000  1
  Al  Al6  1  0.002735  0.330724  0.073882  1
  Al  Al7  1  0.998652  0.670658  0.925201  1
  Al  Al8  1  0.998652  0.670658  0.574799  1
  Al  Al9  1  0.330652  0.002471  0.427035  1
  Al  Al10  1  0.002735  0.330724  0.426118  1
  Al  Al11  1  0.668024  0.997304  0.574674  1
  Al  Al12  1  0.668024  0.997304  0.925326  1
  Al  Al13  1  0.330652  0.002471  0.072965  1
  Al  Al14  1  0.332085  0.331013  0.551933  1
  Al  Al15  1  0.667800  0.667829  0.449399  1
  Al  Al16  1  0.667800  0.667829  0.050601  1
  Al  Al17  1  0.332085  0.331013  0.948067  1
  Al  Al18  1  0.340909  0.542813  0.250000  1
  Al  Al19  1  0.657935  0.455537  0.750000  1
  Al  Al20  1  0.542260  0.340423  0.250000  1
  Al  Al21  1  0.456901  0.660332  0.750000  1
  Ir  Ir22  1  0.000151  0.000061  0.999825  1
  Ir  Ir23  1  0.000151  0.000061  0.500175  1
  Pt  Pt24  1  0.670541  0.328781  0.999837  1
  Pt  Pt25  1  0.329092  0.671208  0.999853  1
  Pt  Pt26  1  0.329092  0.671208  0.500147  1
  Pt  Pt27  1  0.670541  0.328781  0.500163  1
