# generated using pymatgen
data_Ca4CdIn3Au4
_symmetry_space_group_name_H-M   'P 1'
_cell_length_a   4.43380800
_cell_length_b   7.55335044
_cell_length_c   8.81352349
_cell_angle_alpha   90.03864200
_cell_angle_beta   90.00000000
_cell_angle_gamma   90.00000000
_symmetry_Int_Tables_number   1
_chemical_formula_structural   Ca4CdIn3Au4
_chemical_formula_sum   'Ca4 Cd1 In3 Au4'
_cell_volume   295.16576529
_cell_formula_units_Z   1
loop_
 _symmetry_equiv_pos_site_id
 _symmetry_equiv_pos_as_xyz
  1  'x, y, z'
loop_
 _atom_site_type_symbol
 _atom_site_label
 _atom_site_symmetry_multiplicity
 _atom_site_fract_x
 _atom_site_fract_y
 _atom_site_fract_z
 _atom_site_occupancy
  Ca  Ca0  1  0.250000  0.040544  0.320744  1
  Ca  Ca1  1  0.750000  0.462784  0.819028  1
  Ca  Ca2  1  0.750000  0.960725  0.679886  1
  Ca  Ca3  1  0.250000  0.537216  0.181194  1
  Cd  Cd4  1  0.750000  0.356416  0.439496  1
  In  In5  1  0.750000  0.856213  0.059768  1
  In  In6  1  0.250000  0.142184  0.940715  1
  In  In7  1  0.250000  0.641931  0.558602  1
  Au  Au8  1  0.250000  0.254821  0.631871  1
  Au  Au9  1  0.250000  0.754598  0.869141  1
  Au  Au10  1  0.750000  0.747062  0.370386  1
  Au  Au11  1  0.750000  0.245505  0.129171  1
