# generated using pymatgen
data_RhSe29
_symmetry_space_group_name_H-M   'P 1'
_cell_length_a   7.52570621
_cell_length_b   9.78368935
_cell_length_c   11.65945133
_cell_angle_alpha   74.40478398
_cell_angle_beta   80.53297383
_cell_angle_gamma   67.47105831
_symmetry_Int_Tables_number   1
_chemical_formula_structural   RhSe29
_chemical_formula_sum   'Rh1 Se29'
_cell_volume   761.94379159
_cell_formula_units_Z   1
loop_
 _symmetry_equiv_pos_site_id
 _symmetry_equiv_pos_as_xyz
  1  'x, y, z'
loop_
 _atom_site_type_symbol
 _atom_site_label
 _atom_site_symmetry_multiplicity
 _atom_site_fract_x
 _atom_site_fract_y
 _atom_site_fract_z
 _atom_site_occupancy
  Rh  Rh0  1  0.000000  0.000000  0.000000  1
  Se  Se1  1  0.500000  0.000000  0.000000  1
  Se  Se2  1  0.100642  0.199050  0.200676  1
  Se  Se3  1  0.699933  0.403204  0.398233  1
  Se  Se4  1  0.300067  0.596796  0.601767  1
  Se  Se5  1  0.600238  0.199554  0.201367  1
  Se  Se6  1  0.899358  0.800950  0.799324  1
  Se  Se7  1  0.201102  0.397154  0.399914  1
  Se  Se8  1  0.798898  0.602846  0.600086  1
  Se  Se9  1  0.399762  0.800446  0.798633  1
  Se  Se10  1  0.238079  0.075780  0.843915  1
  Se  Se11  1  0.648270  0.716089  0.967759  1
  Se  Se12  1  0.860138  0.265064  0.033634  1
  Se  Se13  1  0.234695  0.923644  0.155937  1
  Se  Se14  1  0.451298  0.486502  0.231846  1
  Se  Se15  1  0.765305  0.076356  0.844063  1
  Se  Se16  1  0.851591  0.113292  0.366487  1
  Se  Se17  1  0.139862  0.734936  0.966366  1
  Se  Se18  1  0.051551  0.681767  0.432346  1
  Se  Se19  1  0.351730  0.283911  0.032241  1
  Se  Se20  1  0.761921  0.924220  0.156085  1
  Se  Se21  1  0.448907  0.317379  0.567847  1
  Se  Se22  1  0.648120  0.889245  0.628643  1
  Se  Se23  1  0.950073  0.485304  0.231686  1
  Se  Se24  1  0.049927  0.514696  0.768314  1
  Se  Se25  1  0.351880  0.110755  0.371357  1
  Se  Se26  1  0.551093  0.682621  0.432153  1
  Se  Se27  1  0.948449  0.318233  0.567654  1
  Se  Se28  1  0.148409  0.886708  0.633513  1
  Se  Se29  1  0.548702  0.513498  0.768154  1
