# generated using pymatgen
data_Er2Ga7Ni2Ag
_symmetry_space_group_name_H-M   'P 1'
_cell_length_a   7.96669953
_cell_length_b   7.96669775
_cell_length_c   6.41051672
_cell_angle_alpha   91.10535652
_cell_angle_beta   88.89464898
_cell_angle_gamma   150.02005811
_symmetry_Int_Tables_number   1
_chemical_formula_structural   Er2Ga7Ni2Ag
_chemical_formula_sum   'Er2 Ga7 Ni2 Ag1'
_cell_volume   203.26834786
_cell_formula_units_Z   1
loop_
 _symmetry_equiv_pos_site_id
 _symmetry_equiv_pos_as_xyz
  1  'x, y, z'
loop_
 _atom_site_type_symbol
 _atom_site_label
 _atom_site_symmetry_multiplicity
 _atom_site_fract_x
 _atom_site_fract_y
 _atom_site_fract_z
 _atom_site_occupancy
  Er  Er0  1  0.876076  0.123924  0.734946  1
  Er  Er1  1  0.123924  0.876076  0.265054  1
  Ga  Ga2  1  0.500000  0.500000  0.500000  1
  Ga  Ga3  1  0.068886  0.931114  0.765272  1
  Ga  Ga4  1  0.931114  0.068886  0.234728  1
  Ga  Ga5  1  0.684096  0.315904  0.957591  1
  Ga  Ga6  1  0.315904  0.684096  0.042409  1
  Ga  Ga7  1  0.685844  0.314156  0.554146  1
  Ga  Ga8  1  0.314156  0.685844  0.445854  1
  Ni  Ni9  1  0.221568  0.778432  0.750035  1
  Ni  Ni10  1  0.778432  0.221568  0.249965  1
  Ag  Ag11  1  0.500000  0.500000  0.000000  1
