# generated using pymatgen
data_La5Nd(GaPd5)2
_symmetry_space_group_name_H-M   'P 1'
_cell_length_a   8.58189411
_cell_length_b   8.57305243
_cell_length_c   8.57305080
_cell_angle_alpha   127.98810093
_cell_angle_beta   126.06744835
_cell_angle_gamma   78.19208786
_symmetry_Int_Tables_number   1
_chemical_formula_structural   La5Nd(GaPd5)2
_chemical_formula_sum   'La5 Nd1 Ga2 Pd10'
_cell_volume   389.31856095
_cell_formula_units_Z   1
loop_
 _symmetry_equiv_pos_site_id
 _symmetry_equiv_pos_as_xyz
  1  'x, y, z'
loop_
 _atom_site_type_symbol
 _atom_site_label
 _atom_site_symmetry_multiplicity
 _atom_site_fract_x
 _atom_site_fract_y
 _atom_site_fract_z
 _atom_site_occupancy
  La  La0  1  0.218926  0.450242  0.768685  1
  La  La1  1  0.181252  0.950401  0.230851  1
  La  La2  1  0.377519  0.249866  0.127653  1
  La  La3  1  0.781223  0.549824  0.231398  1
  La  La4  1  0.622457  0.750244  0.872213  1
  Nd  Nd5  1  0.818706  0.049916  0.768790  1
  Ga  Ga6  1  0.220681  0.749975  0.470705  1
  Ga  Ga7  1  0.779568  0.249616  0.529952  1
  Pd  Pd8  1  0.831691  0.604776  0.643187  1
  Pd  Pd9  1  0.538965  0.311292  0.643268  1
  Pd  Pd10  1  0.461311  0.104229  0.772566  1
  Pd  Pd11  1  0.831691  0.188504  0.226915  1
  Pd  Pd12  1  0.167907  0.395321  0.356223  1
  Pd  Pd13  1  0.461311  0.688744  0.357082  1
  Pd  Pd14  1  0.538965  0.895697  0.227672  1
  Pd  Pd15  1  0.167907  0.811683  0.772586  1
  Pd  Pd16  1  0.999961  0.000073  0.500365  1
  Pd  Pd17  1  0.999961  0.499596  0.999888  1
