# generated using pymatgen
data_Sc2As2Cl2O5
_symmetry_space_group_name_H-M   'P 1'
_cell_length_a   6.69867980
_cell_length_b   7.46058267
_cell_length_c   9.19293490
_cell_angle_alpha   108.35665912
_cell_angle_beta   104.82555532
_cell_angle_gamma   102.20801294
_symmetry_Int_Tables_number   1
_chemical_formula_structural   Sc2As2Cl2O5
_chemical_formula_sum   'Sc4 As4 Cl4 O10'
_cell_volume   399.60838877
_cell_formula_units_Z   2
loop_
 _symmetry_equiv_pos_site_id
 _symmetry_equiv_pos_as_xyz
  1  'x, y, z'
loop_
 _atom_site_type_symbol
 _atom_site_label
 _atom_site_symmetry_multiplicity
 _atom_site_fract_x
 _atom_site_fract_y
 _atom_site_fract_z
 _atom_site_occupancy
  Sc  Sc0  1  0.407163  0.689732  0.517105  1
  Sc  Sc1  1  0.592837  0.310268  0.482895  1
  Sc  Sc2  1  0.862295  0.778199  0.346063  1
  Sc  Sc3  1  0.137705  0.221801  0.653937  1
  As  As4  1  0.892331  0.847242  0.750457  1
  As  As5  1  0.107669  0.152758  0.249543  1
  As  As6  1  0.699641  0.230206  0.791811  1
  As  As7  1  0.300359  0.769794  0.208189  1
  Cl  Cl8  1  0.239245  0.611813  0.718329  1
  Cl  Cl9  1  0.760755  0.388187  0.281671  1
  Cl  Cl10  1  0.775607  0.724499  0.055146  1
  Cl  Cl11  1  0.224393  0.275501  0.944854  1
  O  O12  1  0.834462  0.266382  0.649018  1
  O  O13  1  0.165538  0.733618  0.350982  1
  O  O14  1  0.550380  0.776800  0.349789  1
  O  O15  1  0.449620  0.223200  0.650211  1
  O  O16  1  0.650598  0.954399  0.720701  1
  O  O17  1  0.349402  0.045601  0.279299  1
  O  O18  1  0.689556  0.613899  0.604805  1
  O  O19  1  0.310444  0.386101  0.395195  1
  O  O20  1  0.993023  0.917629  0.604879  1
  O  O21  1  0.006977  0.082371  0.395121  1
