# generated using pymatgen
data_Mg3MnAl2(B2Rh5)2
_symmetry_space_group_name_H-M   'P 1'
_cell_length_a   9.39939797
_cell_length_b   9.39939797
_cell_length_c   2.92782600
_cell_angle_alpha   90.00000000
_cell_angle_beta   90.00000000
_cell_angle_gamma   90.05202059
_symmetry_Int_Tables_number   1
_chemical_formula_structural   Mg3MnAl2(B2Rh5)2
_chemical_formula_sum   'Mg3 Mn1 Al2 B4 Rh10'
_cell_volume   258.66946211
_cell_formula_units_Z   1
loop_
 _symmetry_equiv_pos_site_id
 _symmetry_equiv_pos_as_xyz
  1  'x, y, z'
loop_
 _atom_site_type_symbol
 _atom_site_label
 _atom_site_symmetry_multiplicity
 _atom_site_fract_x
 _atom_site_fract_y
 _atom_site_fract_z
 _atom_site_occupancy
  Mg  Mg0  1  0.824165  0.324165  0.000000  1
  Mg  Mg1  1  0.324206  0.176171  0.000000  1
  Mg  Mg2  1  0.676171  0.824206  0.000000  1
  Mn  Mn3  1  0.176441  0.676441  0.000000  1
  Al  Al4  1  0.999703  0.000396  0.000000  1
  Al  Al5  1  0.500396  0.499703  0.000000  1
  B  B6  1  0.625285  0.125285  0.000000  1
  B  B7  1  0.125976  0.373723  0.000000  1
  B  B8  1  0.873723  0.625976  0.000000  1
  B  B9  1  0.373843  0.873843  0.000000  1
  Rh  Rh10  1  0.070860  0.214964  0.500000  1
  Rh  Rh11  1  0.212795  0.925070  0.500000  1
  Rh  Rh12  1  0.785695  0.071042  0.500000  1
  Rh  Rh13  1  0.932988  0.784542  0.500000  1
  Rh  Rh14  1  0.425070  0.712795  0.500000  1
  Rh  Rh15  1  0.571042  0.285695  0.500000  1
  Rh  Rh16  1  0.714964  0.570860  0.500000  1
  Rh  Rh17  1  0.284542  0.432988  0.500000  1
  Rh  Rh18  1  0.499376  0.999376  0.500000  1
  Rh  Rh19  1  0.002758  0.502758  0.500000  1
