# generated using pymatgen
data_Y15Tm5Cd5InNi2
_symmetry_space_group_name_H-M   'P 1'
_cell_length_a   9.65574555
_cell_length_b   9.65574635
_cell_length_c   9.71267502
_cell_angle_alpha   90.00565968
_cell_angle_beta   89.99433745
_cell_angle_gamma   120.13953673
_symmetry_Int_Tables_number   1
_chemical_formula_structural   Y15Tm5Cd5InNi2
_chemical_formula_sum   'Y15 Tm5 Cd5 In1 Ni2'
_cell_volume   783.12084296
_cell_formula_units_Z   1
loop_
 _symmetry_equiv_pos_site_id
 _symmetry_equiv_pos_as_xyz
  1  'x, y, z'
loop_
 _atom_site_type_symbol
 _atom_site_label
 _atom_site_symmetry_multiplicity
 _atom_site_fract_x
 _atom_site_fract_y
 _atom_site_fract_z
 _atom_site_occupancy
  Y  Y0  1  0.542186  0.457814  0.250931  1
  Y  Y1  1  0.539515  0.086223  0.250877  1
  Y  Y2  1  0.913777  0.460485  0.250877  1
  Y  Y3  1  0.455845  0.544155  0.748457  1
  Y  Y4  1  0.456548  0.912351  0.748602  1
  Y  Y5  1  0.087649  0.543452  0.748602  1
  Y  Y6  1  0.791046  0.208954  0.562292  1
  Y  Y7  1  0.790617  0.581802  0.563524  1
  Y  Y8  1  0.418198  0.209383  0.563524  1
  Y  Y9  1  0.790585  0.209415  0.937624  1
  Y  Y10  1  0.790178  0.580910  0.936365  1
  Y  Y11  1  0.419090  0.209822  0.936365  1
  Y  Y12  1  0.209486  0.790514  0.063121  1
  Y  Y13  1  0.208902  0.418052  0.063885  1
  Y  Y14  1  0.581948  0.791098  0.063885  1
  Tm  Tm15  1  0.001809  0.998191  0.501104  1
  Tm  Tm16  1  0.001761  0.998239  0.997899  1
  Tm  Tm17  1  0.211096  0.788904  0.436598  1
  Tm  Tm18  1  0.210596  0.421309  0.435764  1
  Tm  Tm19  1  0.578691  0.789404  0.435764  1
  Cd  Cd20  1  0.885603  0.770667  0.250279  1
  Cd  Cd21  1  0.229333  0.114397  0.250279  1
  Cd  Cd22  1  0.115803  0.884197  0.749863  1
  Cd  Cd23  1  0.114390  0.229834  0.749923  1
  Cd  Cd24  1  0.770166  0.885610  0.749923  1
  In  In25  1  0.885124  0.114876  0.250168  1
  Ni  Ni26  1  0.332922  0.667078  0.253938  1
  Ni  Ni27  1  0.667135  0.332865  0.749568  1
