# generated using pymatgen
data_HoTh5Fe16(CoP6)2
_symmetry_space_group_name_H-M   'P 1'
_cell_length_a   3.80052400
_cell_length_b   10.60679498
_cell_length_c   12.35203840
_cell_angle_alpha   90.17956330
_cell_angle_beta   90.00000000
_cell_angle_gamma   90.00000000
_symmetry_Int_Tables_number   1
_chemical_formula_structural   HoTh5Fe16(CoP6)2
_chemical_formula_sum   'Ho1 Th5 Fe16 Co2 P12'
_cell_volume   497.92525469
_cell_formula_units_Z   1
loop_
 _symmetry_equiv_pos_site_id
 _symmetry_equiv_pos_as_xyz
  1  'x, y, z'
loop_
 _atom_site_type_symbol
 _atom_site_label
 _atom_site_symmetry_multiplicity
 _atom_site_fract_x
 _atom_site_fract_y
 _atom_site_fract_z
 _atom_site_occupancy
  Ho  Ho0  1  0.000000  0.315474  0.792411  1
  Th  Th1  1  0.000000  0.502062  0.524331  1
  Th  Th2  1  0.500000  0.997184  0.477720  1
  Th  Th3  1  0.500000  0.816383  0.203235  1
  Th  Th4  1  0.500000  0.182136  0.211674  1
  Th  Th5  1  0.000000  0.679930  0.794565  1
  Fe  Fe6  1  0.000000  0.490719  0.986518  1
  Fe  Fe7  1  0.500000  0.007624  0.009360  1
  Fe  Fe8  1  0.500000  0.301481  0.432656  1
  Fe  Fe9  1  0.500000  0.699126  0.427161  1
  Fe  Fe10  1  0.000000  0.200697  0.574541  1
  Fe  Fe11  1  0.000000  0.801792  0.571943  1
  Fe  Fe12  1  0.500000  0.882372  0.716610  1
  Fe  Fe13  1  0.500000  0.115488  0.709041  1
  Fe  Fe14  1  0.000000  0.618363  0.282227  1
  Fe  Fe15  1  0.000000  0.385416  0.292156  1
  Fe  Fe16  1  0.500000  0.320470  0.996774  1
  Fe  Fe17  1  0.500000  0.662328  0.994354  1
  Fe  Fe18  1  0.000000  0.180073  0.001781  1
  Fe  Fe19  1  0.000000  0.834925  0.002223  1
  Fe  Fe20  1  0.500000  0.493674  0.151701  1
  Fe  Fe21  1  0.000000  0.006902  0.848198  1
  Co  Co22  1  0.500000  0.498163  0.702792  1
  Co  Co23  1  0.000000  0.003638  0.296130  1
  P  P24  1  0.500000  0.302790  0.617040  1
  P  P25  1  0.500000  0.700608  0.611857  1
  P  P26  1  0.000000  0.200963  0.393063  1
  P  P27  1  0.000000  0.800330  0.387075  1
  P  P28  1  0.500000  0.492774  0.886915  1
  P  P29  1  0.000000  0.002977  0.107457  1
  P  P30  1  0.500000  0.847235  0.900436  1
  P  P31  1  0.500000  0.148302  0.883736  1
  P  P32  1  0.000000  0.650481  0.096390  1
  P  P33  1  0.000000  0.355595  0.114533  1
  P  P34  1  0.500000  0.502720  0.337862  1
  P  P35  1  0.000000  0.998805  0.663534  1
