# generated using pymatgen
data_Ac9Sm3(Si7Br3)2
_symmetry_space_group_name_H-M   'P 1'
_cell_length_a   4.20667400
_cell_length_b   12.25342088
_cell_length_c   17.17266116
_cell_angle_alpha   89.46900636
_cell_angle_beta   90.00000000
_cell_angle_gamma   90.00000000
_symmetry_Int_Tables_number   1
_chemical_formula_structural   Ac9Sm3(Si7Br3)2
_chemical_formula_sum   'Ac9 Sm3 Si14 Br6'
_cell_volume   885.14650332
_cell_formula_units_Z   1
loop_
 _symmetry_equiv_pos_site_id
 _symmetry_equiv_pos_as_xyz
  1  'x, y, z'
loop_
 _atom_site_type_symbol
 _atom_site_label
 _atom_site_symmetry_multiplicity
 _atom_site_fract_x
 _atom_site_fract_y
 _atom_site_fract_z
 _atom_site_occupancy
  Ac  Ac0  1  0.500000  0.341083  0.505086  1
  Ac  Ac1  1  0.000000  0.656269  0.997352  1
  Ac  Ac2  1  0.000000  0.638740  0.745737  1
  Ac  Ac3  1  0.500000  0.360289  0.244597  1
  Ac  Ac4  1  0.000000  0.638574  0.254540  1
  Ac  Ac5  1  0.500000  0.071321  0.876659  1
  Ac  Ac6  1  0.000000  0.933339  0.621399  1
  Ac  Ac7  1  0.500000  0.069364  0.117942  1
  Ac  Ac8  1  0.000000  0.930402  0.379698  1
  Sm  Sm9  1  0.500000  0.369642  0.760888  1
  Sm  Sm10  1  0.500000  0.357836  0.997722  1
  Sm  Sm11  1  0.000000  0.640092  0.502794  1
  Si  Si12  1  0.000000  0.164008  0.996791  1
  Si  Si13  1  0.500000  0.838023  0.500983  1
  Si  Si14  1  0.500000  0.554574  0.878035  1
  Si  Si15  1  0.000000  0.435710  0.626687  1
  Si  Si16  1  0.500000  0.557954  0.117974  1
  Si  Si17  1  0.000000  0.441474  0.382980  1
  Si  Si18  1  0.000000  0.262931  0.872724  1
  Si  Si19  1  0.500000  0.737696  0.621265  1
  Si  Si20  1  0.000000  0.261089  0.118963  1
  Si  Si21  1  0.500000  0.737691  0.380722  1
  Si  Si22  1  0.000000  0.455132  0.877667  1
  Si  Si23  1  0.500000  0.539891  0.624178  1
  Si  Si24  1  0.500000  0.543071  0.381230  1
  Si  Si25  1  0.000000  0.455722  0.118233  1
  Br  Br26  1  0.500000  0.117831  0.691551  1
  Br  Br27  1  0.000000  0.891293  0.808514  1
  Br  Br28  1  0.000000  0.134172  0.498787  1
  Br  Br29  1  0.500000  0.864730  0.999306  1
  Br  Br30  1  0.500000  0.107823  0.307172  1
  Br  Br31  1  0.000000  0.892233  0.191824  1
