# generated using pymatgen
data_Nd20GaCo4Bi7
_symmetry_space_group_name_H-M   'P 1'
_cell_length_a   8.34308514
_cell_length_b   9.08368545
_cell_length_c   12.78314666
_cell_angle_alpha   90.07566329
_cell_angle_beta   90.23213713
_cell_angle_gamma   90.09154074
_symmetry_Int_Tables_number   1
_chemical_formula_structural   Nd20GaCo4Bi7
_chemical_formula_sum   'Nd20 Ga1 Co4 Bi7'
_cell_volume   968.77301553
_cell_formula_units_Z   1
loop_
 _symmetry_equiv_pos_site_id
 _symmetry_equiv_pos_as_xyz
  1  'x, y, z'
loop_
 _atom_site_type_symbol
 _atom_site_label
 _atom_site_symmetry_multiplicity
 _atom_site_fract_x
 _atom_site_fract_y
 _atom_site_fract_z
 _atom_site_occupancy
  Nd  Nd0  1  0.840475  0.741731  0.797181  1
  Nd  Nd1  1  0.150265  0.250262  0.196443  1
  Nd  Nd2  1  0.353398  0.256288  0.705155  1
  Nd  Nd3  1  0.650749  0.752071  0.299032  1
  Nd  Nd4  1  0.387746  0.740906  0.696183  1
  Nd  Nd5  1  0.619903  0.249718  0.310189  1
  Nd  Nd6  1  0.867512  0.257384  0.810812  1
  Nd  Nd7  1  0.120670  0.750241  0.190038  1
  Nd  Nd8  1  0.950107  0.752457  0.503582  1
  Nd  Nd9  1  0.054037  0.248554  0.497226  1
  Nd  Nd10  1  0.459227  0.261819  0.989700  1
  Nd  Nd11  1  0.551622  0.738656  0.997345  1
  Nd  Nd12  1  0.679308  0.032759  0.565181  1
  Nd  Nd13  1  0.321592  0.964449  0.437109  1
  Nd  Nd14  1  0.178646  0.969299  0.934800  1
  Nd  Nd15  1  0.321315  0.533578  0.435134  1
  Nd  Nd16  1  0.818580  0.027850  0.062771  1
  Nd  Nd17  1  0.676092  0.469016  0.573064  1
  Nd  Nd18  1  0.822534  0.467809  0.062014  1
  Nd  Nd19  1  0.181849  0.533926  0.934007  1
  Ga  Ga20  1  0.568622  0.496082  0.828236  1
  Co  Co21  1  0.569856  0.748484  0.509521  1
  Co  Co22  1  0.432998  0.249941  0.494106  1
  Co  Co23  1  0.061025  0.249652  0.990956  1
  Co  Co24  1  0.934994  0.749280  0.006531  1
  Bi  Bi25  1  0.426981  0.506722  0.175392  1
  Bi  Bi26  1  0.073593  0.506037  0.673414  1
  Bi  Bi27  1  0.426576  0.993647  0.169269  1
  Bi  Bi28  1  0.926297  0.492639  0.326966  1
  Bi  Bi29  1  0.572904  0.006082  0.826848  1
  Bi  Bi30  1  0.927645  0.008350  0.324577  1
  Bi  Bi31  1  0.072884  0.994314  0.677217  1
