# generated using pymatgen
data_Ca9EuIr4
_symmetry_space_group_name_H-M   'P 1'
_cell_length_a   6.53395002
_cell_length_b   7.55060958
_cell_length_c   8.61215000
_cell_angle_alpha   97.22966727
_cell_angle_beta   112.29311379
_cell_angle_gamma   89.99999560
_symmetry_Int_Tables_number   1
_chemical_formula_structural   Ca9EuIr4
_chemical_formula_sum   'Ca9 Eu1 Ir4'
_cell_volume   389.47200219
_cell_formula_units_Z   1
loop_
 _symmetry_equiv_pos_site_id
 _symmetry_equiv_pos_as_xyz
  1  'x, y, z'
loop_
 _atom_site_type_symbol
 _atom_site_label
 _atom_site_symmetry_multiplicity
 _atom_site_fract_x
 _atom_site_fract_y
 _atom_site_fract_z
 _atom_site_occupancy
  Ca  Ca0  1  0.798552  0.082093  0.826173  1
  Ca  Ca1  1  0.972379  0.417907  0.173827  1
  Ca  Ca2  1  0.199841  0.918755  0.175317  1
  Ca  Ca3  1  0.024524  0.581245  0.824683  1
  Ca  Ca4  1  0.202859  0.178362  0.565198  1
  Ca  Ca5  1  0.637661  0.321638  0.434802  1
  Ca  Ca6  1  0.800731  0.821243  0.438799  1
  Ca  Ca7  1  0.361932  0.678757  0.561201  1
  Ca  Ca8  1  0.425370  0.250000  0.000000  1
  Eu  Eu9  1  0.573195  0.750000  0.000000  1
  Ir  Ir10  1  0.602669  0.420635  0.779542  1
  Ir  Ir11  1  0.823127  0.079365  0.220458  1
  Ir  Ir12  1  0.398552  0.582304  0.219940  1
  Ir  Ir13  1  0.178612  0.917696  0.780060  1
