# generated using pymatgen
data_Dy3Pa(Ni2Hg)2
_symmetry_space_group_name_H-M   'P 1'
_cell_length_a   7.37752194
_cell_length_b   7.37752194
_cell_length_c   3.60519700
_cell_angle_alpha   90.00000000
_cell_angle_beta   90.00000000
_cell_angle_gamma   87.58305279
_symmetry_Int_Tables_number   1
_chemical_formula_structural   Dy3Pa(Ni2Hg)2
_chemical_formula_sum   'Dy3 Pa1 Ni4 Hg2'
_cell_volume   196.04848952
_cell_formula_units_Z   1
loop_
 _symmetry_equiv_pos_site_id
 _symmetry_equiv_pos_as_xyz
  1  'x, y, z'
loop_
 _atom_site_type_symbol
 _atom_site_label
 _atom_site_symmetry_multiplicity
 _atom_site_fract_x
 _atom_site_fract_y
 _atom_site_fract_z
 _atom_site_occupancy
  Dy  Dy0  1  0.825062  0.327167  0.499999  1
  Dy  Dy1  1  0.172834  0.674937  0.499999  1
  Dy  Dy2  1  0.675541  0.824458  0.499999  1
  Pa  Pa3  1  0.327501  0.172500  0.499999  1
  Ni  Ni4  1  0.603979  0.129444  0.000000  1
  Ni  Ni5  1  0.139143  0.360856  0.000000  1
  Ni  Ni6  1  0.890238  0.609763  0.000000  1
  Ni  Ni7  1  0.370555  0.896022  0.000000  1
  Hg  Hg8  1  0.991760  0.996614  0.000000  1
  Hg  Hg9  1  0.503387  0.508241  0.000000  1
