# generated using pymatgen
data_Tb3Pr17Ga7Pb5
_symmetry_space_group_name_H-M   'P 1'
_cell_length_a   8.33866576
_cell_length_b   8.34046935
_cell_length_c   13.98752098
_cell_angle_alpha   89.99179025
_cell_angle_beta   90.16749865
_cell_angle_gamma   91.05149680
_symmetry_Int_Tables_number   1
_chemical_formula_structural   Tb3Pr17Ga7Pb5
_chemical_formula_sum   'Tb3 Pr17 Ga7 Pb5'
_cell_volume   972.64153495
_cell_formula_units_Z   1
loop_
 _symmetry_equiv_pos_site_id
 _symmetry_equiv_pos_as_xyz
  1  'x, y, z'
loop_
 _atom_site_type_symbol
 _atom_site_label
 _atom_site_symmetry_multiplicity
 _atom_site_fract_x
 _atom_site_fract_y
 _atom_site_fract_z
 _atom_site_occupancy
  Tb  Tb0  1  0.000648  0.499066  0.730844  1
  Tb  Tb1  1  0.009931  0.503163  0.250584  1
  Tb  Tb2  1  0.496272  0.989742  0.250078  1
  Pr  Pr3  1  0.828835  0.836944  0.614107  1
  Pr  Pr4  1  0.160316  0.840092  0.100885  1
  Pr  Pr5  1  0.158965  0.838247  0.398434  1
  Pr  Pr6  1  0.848208  0.153349  0.403800  1
  Pr  Pr7  1  0.671553  0.677748  0.393783  1
  Pr  Pr8  1  0.655083  0.334342  0.603319  1
  Pr  Pr9  1  0.343029  0.667978  0.602247  1
  Pr  Pr10  1  0.670600  0.677764  0.105394  1
  Pr  Pr11  1  0.666217  0.346973  0.895863  1
  Pr  Pr12  1  0.842776  0.826269  0.885318  1
  Pr  Pr13  1  0.322052  0.329694  0.393811  1
  Pr  Pr14  1  0.173251  0.159946  0.613853  1
  Pr  Pr15  1  0.846766  0.151802  0.095652  1
  Pr  Pr16  1  0.331612  0.655218  0.897167  1
  Pr  Pr17  1  0.321654  0.329244  0.105985  1
  Pr  Pr18  1  0.160966  0.171723  0.885149  1
  Pr  Pr19  1  0.501684  0.999816  0.776503  1
  Ga  Ga20  1  0.140824  0.855379  0.748801  1
  Ga  Ga21  1  0.372050  0.377797  0.749037  1
  Ga  Ga22  1  0.359531  0.640229  0.249662  1
  Ga  Ga23  1  0.874862  0.875077  0.249214  1
  Ga  Ga24  1  0.625481  0.624886  0.748743  1
  Ga  Ga25  1  0.860827  0.143562  0.748677  1
  Ga  Ga26  1  0.124457  0.124976  0.249602  1
  Pb  Pb27  1  0.639163  0.360991  0.249760  1
  Pb  Pb28  1  0.997093  0.501006  0.497170  1
  Pb  Pb29  1  0.499086  0.002813  0.496650  1
  Pb  Pb30  1  0.498562  0.003967  0.009154  1
  Pb  Pb31  1  0.997647  0.500195  0.000755  1
