# generated using pymatgen
data_Dy13Er3(TmSn4)4
_symmetry_space_group_name_H-M   'P 1'
_cell_length_a   7.99213708
_cell_length_b   8.14045530
_cell_length_c   15.39028504
_cell_angle_alpha   90.00933573
_cell_angle_beta   89.99765494
_cell_angle_gamma   90.03466169
_symmetry_Int_Tables_number   1
_chemical_formula_structural   Dy13Er3(TmSn4)4
_chemical_formula_sum   'Dy13 Er3 Tm4 Sn16'
_cell_volume   1001.28612404
_cell_formula_units_Z   1
loop_
 _symmetry_equiv_pos_site_id
 _symmetry_equiv_pos_as_xyz
  1  'x, y, z'
loop_
 _atom_site_type_symbol
 _atom_site_label
 _atom_site_symmetry_multiplicity
 _atom_site_fract_x
 _atom_site_fract_y
 _atom_site_fract_z
 _atom_site_occupancy
  Dy  Dy0  1  0.132463  0.336147  0.121871  1
  Dy  Dy1  1  0.632163  0.163930  0.122219  1
  Dy  Dy2  1  0.132006  0.336132  0.377996  1
  Dy  Dy3  1  0.367992  0.836174  0.622141  1
  Dy  Dy4  1  0.868072  0.663782  0.877911  1
  Dy  Dy5  1  0.521059  0.320316  0.902476  1
  Dy  Dy6  1  0.021332  0.179738  0.597592  1
  Dy  Dy7  1  0.478831  0.679910  0.402583  1
  Dy  Dy8  1  0.978687  0.820360  0.097554  1
  Dy  Dy9  1  0.478955  0.679684  0.097257  1
  Dy  Dy10  1  0.978756  0.820482  0.402819  1
  Dy  Dy11  1  0.521225  0.320488  0.597369  1
  Dy  Dy12  1  0.021163  0.179285  0.902229  1
  Er  Er13  1  0.367543  0.836539  0.877313  1
  Er  Er14  1  0.867323  0.663602  0.622340  1
  Er  Er15  1  0.632529  0.163516  0.377948  1
  Tm  Tm16  1  0.198593  0.503179  0.750105  1
  Tm  Tm17  1  0.698623  0.996849  0.749764  1
  Tm  Tm18  1  0.801230  0.497053  0.250418  1
  Tm  Tm19  1  0.301656  0.002884  0.250027  1
  Sn  Sn20  1  0.292651  0.034566  0.041437  1
  Sn  Sn21  1  0.791896  0.464313  0.458419  1
  Sn  Sn22  1  0.708168  0.964233  0.541739  1
  Sn  Sn23  1  0.208377  0.536414  0.957608  1
  Sn  Sn24  1  0.706030  0.964471  0.957556  1
  Sn  Sn25  1  0.206047  0.535488  0.542470  1
  Sn  Sn26  1  0.293888  0.035523  0.457672  1
  Sn  Sn27  1  0.792428  0.464894  0.042257  1
  Sn  Sn28  1  0.564859  0.619553  0.749926  1
  Sn  Sn29  1  0.064792  0.880439  0.749921  1
  Sn  Sn30  1  0.435603  0.380700  0.250425  1
  Sn  Sn31  1  0.934759  0.118706  0.250376  1
  Sn  Sn32  1  0.329899  0.147799  0.750161  1
  Sn  Sn33  1  0.829908  0.352394  0.749795  1
  Sn  Sn34  1  0.670201  0.852402  0.250219  1
  Sn  Sn35  1  0.170291  0.648058  0.250089  1
