# generated using pymatgen
data_Rb4Zr6RuI18
_symmetry_space_group_name_H-M   'P 1'
_cell_length_a   11.53971331
_cell_length_b   11.71316079
_cell_length_c   11.84017283
_cell_angle_alpha   118.39351429
_cell_angle_beta   100.32959968
_cell_angle_gamma   103.88198124
_symmetry_Int_Tables_number   1
_chemical_formula_structural   Rb4Zr6RuI18
_chemical_formula_sum   'Rb4 Zr6 Ru1 I18'
_cell_volume   1283.55901434
_cell_formula_units_Z   1
loop_
 _symmetry_equiv_pos_site_id
 _symmetry_equiv_pos_as_xyz
  1  'x, y, z'
loop_
 _atom_site_type_symbol
 _atom_site_label
 _atom_site_symmetry_multiplicity
 _atom_site_fract_x
 _atom_site_fract_y
 _atom_site_fract_z
 _atom_site_occupancy
  Rb  Rb0  1  0.651705  0.537586  0.226700  1
  Rb  Rb1  1  0.348295  0.462414  0.773300  1
  Rb  Rb2  1  0.686622  0.225679  0.564636  1
  Rb  Rb3  1  0.313378  0.774321  0.435364  1
  Zr  Zr4  1  0.149144  0.055145  0.226992  1
  Zr  Zr5  1  0.850856  0.944855  0.773008  1
  Zr  Zr6  1  0.863003  0.124260  0.130483  1
  Zr  Zr7  1  0.136997  0.875740  0.869517  1
  Zr  Zr8  1  0.144493  0.235820  0.045058  1
  Zr  Zr9  1  0.855507  0.764180  0.954942  1
  Ru  Ru10  1  0.000000  0.000000  0.000000  1
  I  I11  1  0.008047  0.404750  0.194350  1
  I  I12  1  0.991953  0.595250  0.805650  1
  I  I13  1  0.327322  0.330194  0.308495  1
  I  I14  1  0.672678  0.669806  0.691505  1
  I  I15  1  0.318528  0.516964  0.099111  1
  I  I16  1  0.681472  0.483036  0.900889  1
  I  I17  1  0.003878  0.797779  0.206494  1
  I  I18  1  0.996122  0.202221  0.793506  1
  I  I19  1  0.703599  0.270942  0.283481  1
  I  I20  1  0.296401  0.729058  0.716519  1
  I  I21  1  0.314723  0.126601  0.904591  1
  I  I22  1  0.685277  0.873399  0.095409  1
  I  I23  1  0.014828  0.201975  0.402711  1
  I  I24  1  0.985172  0.798025  0.597289  1
  I  I25  1  0.319172  0.924216  0.109341  1
  I  I26  1  0.680828  0.075784  0.890659  1
  I  I27  1  0.330242  0.120139  0.496685  1
  I  I28  1  0.669758  0.879861  0.503315  1
