# generated using pymatgen
data_YHo7(IrPd)4
_symmetry_space_group_name_H-M   'P 1'
_cell_length_a   6.96310700
_cell_length_b   4.87435800
_cell_length_c   9.71751000
_cell_angle_alpha   90.00000000
_cell_angle_beta   90.00052864
_cell_angle_gamma   90.00000000
_symmetry_Int_Tables_number   1
_chemical_formula_structural   YHo7(IrPd)4
_chemical_formula_sum   'Y1 Ho7 Ir4 Pd4'
_cell_volume   329.81886145
_cell_formula_units_Z   1
loop_
 _symmetry_equiv_pos_site_id
 _symmetry_equiv_pos_as_xyz
  1  'x, y, z'
loop_
 _atom_site_type_symbol
 _atom_site_label
 _atom_site_symmetry_multiplicity
 _atom_site_fract_x
 _atom_site_fract_y
 _atom_site_fract_z
 _atom_site_occupancy
  Y  Y0  1  0.999856  0.249999  0.874877  1
  Ho  Ho1  1  0.000069  0.750000  0.125471  1
  Ho  Ho2  1  0.499993  0.750000  0.125149  1
  Ho  Ho3  1  0.000038  0.249999  0.374867  1
  Ho  Ho4  1  0.500079  0.249999  0.374884  1
  Ho  Ho5  1  0.499949  0.750000  0.625097  1
  Ho  Ho6  1  0.000039  0.750000  0.624758  1
  Ho  Ho7  1  0.499941  0.249999  0.874878  1
  Ir  Ir8  1  0.749565  0.249999  0.125326  1
  Ir  Ir9  1  0.249997  0.750000  0.375197  1
  Ir  Ir10  1  0.749534  0.249999  0.624288  1
  Ir  Ir11  1  0.250883  0.750000  0.875197  1
  Pd  Pd12  1  0.250347  0.249999  0.124792  1
  Pd  Pd13  1  0.750047  0.750000  0.375455  1
  Pd  Pd14  1  0.250220  0.249999  0.624311  1
  Pd  Pd15  1  0.749440  0.750000  0.875457  1
