# generated using pymatgen
data_MgNp(PPt)2
_symmetry_space_group_name_H-M   'P 1'
_cell_length_a   3.99712900
_cell_length_b   3.99713126
_cell_length_c   14.88789500
_cell_angle_alpha   90.00000000
_cell_angle_beta   90.00000000
_cell_angle_gamma   120.00000612
_symmetry_Int_Tables_number   1
_chemical_formula_structural   MgNp(PPt)2
_chemical_formula_sum   'Mg2 Np2 P4 Pt4'
_cell_volume   205.99680130
_cell_formula_units_Z   2
loop_
 _symmetry_equiv_pos_site_id
 _symmetry_equiv_pos_as_xyz
  1  'x, y, z'
loop_
 _atom_site_type_symbol
 _atom_site_label
 _atom_site_symmetry_multiplicity
 _atom_site_fract_x
 _atom_site_fract_y
 _atom_site_fract_z
 _atom_site_occupancy
  Mg  Mg0  1  0.000000  0.000000  0.250000  1
  Mg  Mg1  1  0.000000  0.000000  0.750000  1
  Np  Np2  1  0.000000  0.000000  0.500000  1
  Np  Np3  1  0.000000  0.000000  0.000000  1
  P  P4  1  0.333333  0.666667  0.884227  1
  P  P5  1  0.666667  0.333333  0.115773  1
  P  P6  1  0.666667  0.333333  0.384227  1
  P  P7  1  0.333333  0.666667  0.615773  1
  Pt  Pt8  1  0.333333  0.666667  0.352492  1
  Pt  Pt9  1  0.666667  0.333333  0.647508  1
  Pt  Pt10  1  0.666667  0.333333  0.852492  1
  Pt  Pt11  1  0.333333  0.666667  0.147508  1
