# generated using pymatgen
data_CeSmAg4
_symmetry_space_group_name_H-M   'P 1'
_cell_length_a   6.03282508
_cell_length_b   6.03282551
_cell_length_c   6.03282500
_cell_angle_alpha   133.75732882
_cell_angle_beta   102.23066277
_cell_angle_gamma   95.54035055
_symmetry_Int_Tables_number   1
_chemical_formula_structural   CeSmAg4
_chemical_formula_sum   'Ce1 Sm1 Ag4'
_cell_volume   145.50852883
_cell_formula_units_Z   1
loop_
 _symmetry_equiv_pos_site_id
 _symmetry_equiv_pos_as_xyz
  1  'x, y, z'
loop_
 _atom_site_type_symbol
 _atom_site_label
 _atom_site_symmetry_multiplicity
 _atom_site_fract_x
 _atom_site_fract_y
 _atom_site_fract_z
 _atom_site_occupancy
  Ce  Ce0  1  0.038910  0.538910  0.500000  1
  Sm  Sm1  1  0.462059  0.462059  0.000000  1
  Ag  Ag2  1  0.460318  0.164632  0.295686  1
  Ag  Ag3  1  0.043097  0.834883  0.208214  1
  Ag  Ag4  1  0.626669  0.834883  0.791786  1
  Ag  Ag5  1  0.868947  0.164632  0.704314  1
