# generated using pymatgen
data_SeCl30
_symmetry_space_group_name_H-M   'P 1'
_cell_length_a   13.68755808
_cell_length_b   13.68755817
_cell_length_c   16.05513553
_cell_angle_alpha   83.78985458
_cell_angle_beta   83.78985688
_cell_angle_gamma   124.87847257
_symmetry_Int_Tables_number   1
_chemical_formula_structural   SeCl30
_chemical_formula_sum   'Se1 Cl30'
_cell_volume   2399.20724434
_cell_formula_units_Z   1
loop_
 _symmetry_equiv_pos_site_id
 _symmetry_equiv_pos_as_xyz
  1  'x, y, z'
loop_
 _atom_site_type_symbol
 _atom_site_label
 _atom_site_symmetry_multiplicity
 _atom_site_fract_x
 _atom_site_fract_y
 _atom_site_fract_z
 _atom_site_occupancy
  Se  Se0  1  0.000000  0.000000  0.000000  1
  Cl  Cl1  1  0.946203  0.946203  0.151697  1
  Cl  Cl2  1  0.053797  0.053797  0.848303  1
  Cl  Cl3  1  0.060382  0.192260  0.005542  1
  Cl  Cl4  1  0.939618  0.807740  0.994458  1
  Cl  Cl5  1  0.192260  0.060382  0.005542  1
  Cl  Cl6  1  0.807740  0.939618  0.994458  1
  Cl  Cl7  1  0.203691  0.743271  0.063796  1
  Cl  Cl8  1  0.796309  0.256729  0.936204  1
  Cl  Cl9  1  0.700737  0.076293  0.264403  1
  Cl  Cl10  1  0.256729  0.796309  0.936204  1
  Cl  Cl11  1  0.299263  0.923707  0.735597  1
  Cl  Cl12  1  0.743271  0.203691  0.063796  1
  Cl  Cl13  1  0.976313  0.198134  0.783311  1
  Cl  Cl14  1  0.923707  0.299263  0.735597  1
  Cl  Cl15  1  0.023687  0.801866  0.216689  1
  Cl  Cl16  1  0.076293  0.700737  0.264403  1
  Cl  Cl17  1  0.801866  0.023687  0.216689  1
  Cl  Cl18  1  0.198134  0.976313  0.783311  1
  Cl  Cl19  1  0.464728  0.546748  0.259123  1
  Cl  Cl20  1  0.535272  0.453252  0.740877  1
  Cl  Cl21  1  0.507870  0.206101  0.451059  1
  Cl  Cl22  1  0.453252  0.535272  0.740877  1
  Cl  Cl23  1  0.492130  0.793899  0.548941  1
  Cl  Cl24  1  0.546748  0.464728  0.259123  1
  Cl  Cl25  1  0.240074  0.429384  0.543850  1
  Cl  Cl26  1  0.793899  0.492130  0.548941  1
  Cl  Cl27  1  0.759926  0.570616  0.456150  1
  Cl  Cl28  1  0.206101  0.507870  0.451059  1
  Cl  Cl29  1  0.570616  0.759926  0.456150  1
  Cl  Cl30  1  0.429384  0.240074  0.543850  1
