# generated using pymatgen
data_NdMnHgPt3
_symmetry_space_group_name_H-M   'P 1'
_cell_length_a   5.32103067
_cell_length_b   5.53939106
_cell_length_c   5.53939100
_cell_angle_alpha   60.00000636
_cell_angle_beta   58.63296090
_cell_angle_gamma   58.63295711
_symmetry_Int_Tables_number   1
_chemical_formula_structural   NdMnHgPt3
_chemical_formula_sum   'Nd1 Mn1 Hg1 Pt3'
_cell_volume   113.00950828
_cell_formula_units_Z   1
loop_
 _symmetry_equiv_pos_site_id
 _symmetry_equiv_pos_as_xyz
  1  'x, y, z'
loop_
 _atom_site_type_symbol
 _atom_site_label
 _atom_site_symmetry_multiplicity
 _atom_site_fract_x
 _atom_site_fract_y
 _atom_site_fract_z
 _atom_site_occupancy
  Nd  Nd0  1  0.739258  0.753581  0.753581  1
  Mn  Mn1  1  0.880484  0.373172  0.373172  1
  Hg  Hg2  1  0.994509  0.001830  0.001830  1
  Pt  Pt3  1  0.378583  0.875366  0.373025  1
  Pt  Pt4  1  0.378583  0.373025  0.373025  1
  Pt  Pt5  1  0.378583  0.373025  0.875366  1
