# generated using pymatgen
data_CaPr16Hg3Ir4
_symmetry_space_group_name_H-M   'P 1'
_cell_length_a   10.12242074
_cell_length_b   10.12319895
_cell_length_c   10.12319800
_cell_angle_alpha   60.00000312
_cell_angle_beta   59.99745992
_cell_angle_gamma   59.99746504
_symmetry_Int_Tables_number   1
_chemical_formula_structural   CaPr16Hg3Ir4
_chemical_formula_sum   'Ca1 Pr16 Hg3 Ir4'
_cell_volume   733.47994327
_cell_formula_units_Z   1
loop_
 _symmetry_equiv_pos_site_id
 _symmetry_equiv_pos_as_xyz
  1  'x, y, z'
loop_
 _atom_site_type_symbol
 _atom_site_label
 _atom_site_symmetry_multiplicity
 _atom_site_fract_x
 _atom_site_fract_y
 _atom_site_fract_z
 _atom_site_occupancy
  Ca  Ca0  1  0.315345  0.561552  0.561552  1
  Pr  Pr1  1  0.343853  0.343867  0.343867  1
  Pr  Pr2  1  0.343853  0.343867  0.968415  1
  Pr  Pr3  1  0.343853  0.968415  0.343867  1
  Pr  Pr4  1  0.952634  0.349123  0.349123  1
  Pr  Pr5  1  0.803476  0.193910  0.193910  1
  Pr  Pr6  1  0.180657  0.816475  0.816475  1
  Pr  Pr7  1  0.180657  0.816475  0.186393  1
  Pr  Pr8  1  0.803476  0.193910  0.808705  1
  Pr  Pr9  1  0.180657  0.186393  0.816475  1
  Pr  Pr10  1  0.803476  0.808705  0.193910  1
  Pr  Pr11  1  0.937189  0.563365  0.563365  1
  Pr  Pr12  1  0.557638  0.939676  0.939676  1
  Pr  Pr13  1  0.557638  0.939676  0.563010  1
  Pr  Pr14  1  0.937189  0.563365  0.936081  1
  Pr  Pr15  1  0.557638  0.563010  0.939676  1
  Pr  Pr16  1  0.937189  0.936081  0.563365  1
  Hg  Hg17  1  0.591973  0.588414  0.588414  1
  Hg  Hg18  1  0.591973  0.588414  0.231198  1
  Hg  Hg19  1  0.591973  0.231198  0.588414  1
  Ir  Ir20  1  0.137378  0.142856  0.142856  1
  Ir  Ir21  1  0.137378  0.142856  0.576911  1
  Ir  Ir22  1  0.137378  0.576911  0.142856  1
  Ir  Ir23  1  0.575534  0.141488  0.141488  1
