# generated using pymatgen
data_NaMn5AlO12
_symmetry_space_group_name_H-M   'P 1'
_cell_length_a   8.10403735
_cell_length_b   8.11335986
_cell_length_c   9.63432000
_cell_angle_alpha   54.13220577
_cell_angle_beta   54.18101080
_cell_angle_gamma   64.64836977
_symmetry_Int_Tables_number   1
_chemical_formula_structural   NaMn5AlO12
_chemical_formula_sum   'Na2 Mn10 Al2 O24'
_cell_volume   412.73368990
_cell_formula_units_Z   2
loop_
 _symmetry_equiv_pos_site_id
 _symmetry_equiv_pos_as_xyz
  1  'x, y, z'
loop_
 _atom_site_type_symbol
 _atom_site_label
 _atom_site_symmetry_multiplicity
 _atom_site_fract_x
 _atom_site_fract_y
 _atom_site_fract_z
 _atom_site_occupancy
  Na  Na0  1  0.759955  0.258821  0.003150  1
  Na  Na1  1  0.254247  0.746816  0.004088  1
  Mn  Mn2  1  0.669067  0.002112  0.818308  1
  Mn  Mn3  1  0.001266  0.334375  0.174422  1
  Mn  Mn4  1  0.669508  0.666688  0.177123  1
  Mn  Mn5  1  0.331537  0.001699  0.178158  1
  Mn  Mn6  1  0.143786  0.145268  0.526372  1
  Mn  Mn7  1  0.476892  0.810048  0.526207  1
  Mn  Mn8  1  0.811863  0.477899  0.524275  1
  Mn  Mn9  1  0.852601  0.849908  0.477823  1
  Mn  Mn10  1  0.184482  0.517341  0.481423  1
  Mn  Mn11  1  0.515487  0.185629  0.480534  1
  Al  Al12  1  0.332321  0.338259  0.815894  1
  Al  Al13  1  0.005924  0.668028  0.814559  1
  O  O14  1  0.344335  0.344549  0.613681  1
  O  O15  1  0.010477  0.677932  0.613190  1
  O  O16  1  0.678724  0.010875  0.611676  1
  O  O17  1  0.987027  0.319724  0.390123  1
  O  O18  1  0.655237  0.654937  0.388049  1
  O  O19  1  0.321394  0.990266  0.387857  1
  O  O20  1  0.340831  0.341790  0.355326  1
  O  O21  1  0.010688  0.674503  0.352274  1
  O  O22  1  0.674629  0.011132  0.352960  1
  O  O23  1  0.986374  0.322318  0.651803  1
  O  O24  1  0.656331  0.655559  0.648604  1
  O  O25  1  0.322268  0.986896  0.651792  1
  O  O26  1  0.619207  0.293058  0.718699  1
  O  O27  1  0.290128  0.623597  0.716486  1
  O  O28  1  0.959652  0.953283  0.718042  1
  O  O29  1  0.707873  0.377381  0.276608  1
  O  O30  1  0.376507  0.709344  0.279153  1
  O  O31  1  0.043166  0.041881  0.277978  1
  O  O32  1  0.964784  0.628683  0.053864  1
  O  O33  1  0.631016  0.966779  0.052829  1
  O  O34  1  0.294834  0.295150  0.053445  1
  O  O35  1  0.372631  0.036369  0.944963  1
  O  O36  1  0.037245  0.374201  0.943601  1
  O  O37  1  0.705709  0.706901  0.944653  1
