# generated using pymatgen
data_Sc4Al18Ir5Pt
_symmetry_space_group_name_H-M   'P 1'
_cell_length_a   7.49021070
_cell_length_b   7.49021013
_cell_length_c   9.32073609
_cell_angle_alpha   89.97006750
_cell_angle_beta   89.97006133
_cell_angle_gamma   119.75983872
_symmetry_Int_Tables_number   1
_chemical_formula_structural   Sc4Al18Ir5Pt
_chemical_formula_sum   'Sc4 Al18 Ir5 Pt1'
_cell_volume   453.95684373
_cell_formula_units_Z   1
loop_
 _symmetry_equiv_pos_site_id
 _symmetry_equiv_pos_as_xyz
  1  'x, y, z'
loop_
 _atom_site_type_symbol
 _atom_site_label
 _atom_site_symmetry_multiplicity
 _atom_site_fract_x
 _atom_site_fract_y
 _atom_site_fract_z
 _atom_site_occupancy
  Sc  Sc0  1  0.995644  0.670887  0.251194  1
  Sc  Sc1  1  0.003693  0.329453  0.748835  1
  Sc  Sc2  1  0.670547  0.996307  0.251165  1
  Sc  Sc3  1  0.329113  0.004356  0.748806  1
  Al  Al4  1  0.123553  0.122763  0.250210  1
  Al  Al5  1  0.877237  0.876447  0.749790  1
  Al  Al6  1  0.001059  0.334787  0.078388  1
  Al  Al7  1  0.005097  0.668597  0.920913  1
  Al  Al8  1  0.002385  0.664941  0.577143  1
  Al  Al9  1  0.335059  0.997615  0.422857  1
  Al  Al10  1  0.998353  0.334444  0.422429  1
  Al  Al11  1  0.665556  0.001647  0.577571  1
  Al  Al12  1  0.665213  0.998941  0.921612  1
  Al  Al13  1  0.331403  0.994903  0.079087  1
  Al  Al14  1  0.331145  0.330818  0.558181  1
  Al  Al15  1  0.669182  0.668855  0.441819  1
  Al  Al16  1  0.668572  0.671844  0.062022  1
  Al  Al17  1  0.328156  0.331428  0.937978  1
  Al  Al18  1  0.340015  0.552868  0.250372  1
  Al  Al19  1  0.660347  0.449680  0.747896  1
  Al  Al20  1  0.550320  0.339653  0.252104  1
  Al  Al21  1  0.447132  0.659985  0.749628  1
  Ir  Ir22  1  0.328173  0.671827  0.000000  1
  Ir  Ir23  1  0.328250  0.671750  0.500000  1
  Ir  Ir24  1  0.672315  0.327685  0.500000  1
  Ir  Ir25  1  0.000004  0.999996  0.000000  1
  Ir  Ir26  1  0.000310  0.999690  0.500000  1
  Pt  Pt27  1  0.672166  0.327834  0.000000  1
