# generated using pymatgen
data_Ti4Nb2SnSb
_symmetry_space_group_name_H-M   'P 1'
_cell_length_a   7.49565556
_cell_length_b   7.49320470
_cell_length_c   6.28441190
_cell_angle_alpha   65.12685476
_cell_angle_beta   65.16824185
_cell_angle_gamma   81.30533259
_symmetry_Int_Tables_number   1
_chemical_formula_structural   Ti4Nb2SnSb
_chemical_formula_sum   'Ti8 Nb4 Sn2 Sb2'
_cell_volume   290.48577690
_cell_formula_units_Z   2
loop_
 _symmetry_equiv_pos_site_id
 _symmetry_equiv_pos_as_xyz
  1  'x, y, z'
loop_
 _atom_site_type_symbol
 _atom_site_label
 _atom_site_symmetry_multiplicity
 _atom_site_fract_x
 _atom_site_fract_y
 _atom_site_fract_z
 _atom_site_occupancy
  Ti  Ti0  1  0.228115  0.523524  0.124236  1
  Ti  Ti1  1  0.726346  0.021698  0.125911  1
  Ti  Ti2  1  0.773689  0.478351  0.374006  1
  Ti  Ti3  1  0.271883  0.976418  0.375654  1
  Ti  Ti4  1  0.727678  0.023057  0.624603  1
  Ti  Ti5  1  0.226585  0.522078  0.625358  1
  Ti  Ti6  1  0.273431  0.977835  0.874693  1
  Ti  Ti7  1  0.772291  0.477054  0.875458  1
  Nb  Nb8  1  0.006802  0.243336  0.125157  1
  Nb  Nb9  1  0.493211  0.256588  0.374933  1
  Nb  Nb10  1  0.506334  0.743640  0.624897  1
  Nb  Nb11  1  0.993667  0.756421  0.875189  1
  Sn  Sn12  1  0.031879  0.217571  0.625331  1
  Sn  Sn13  1  0.468202  0.282429  0.874528  1
  Sb  Sb14  1  0.532395  0.717492  0.125057  1
  Sb  Sb15  1  0.967491  0.782508  0.374984  1
