# generated using pymatgen
data_LuZr(Si7Ir3)2
_symmetry_space_group_name_H-M   'P 1'
_cell_length_a   8.00668958
_cell_length_b   8.00668950
_cell_length_c   8.00668850
_cell_angle_alpha   56.66218883
_cell_angle_beta   56.66217306
_cell_angle_gamma   56.66218117
_symmetry_Int_Tables_number   1
_chemical_formula_structural   LuZr(Si7Ir3)2
_chemical_formula_sum   'Lu1 Zr1 Si14 Ir6'
_cell_volume   334.96821527
_cell_formula_units_Z   1
loop_
 _symmetry_equiv_pos_site_id
 _symmetry_equiv_pos_as_xyz
  1  'x, y, z'
loop_
 _atom_site_type_symbol
 _atom_site_label
 _atom_site_symmetry_multiplicity
 _atom_site_fract_x
 _atom_site_fract_y
 _atom_site_fract_z
 _atom_site_occupancy
  Lu  Lu0  1  0.500000  0.500000  0.500000  1
  Zr  Zr1  1  0.000000  0.000000  0.000000  1
  Si  Si2  1  0.851623  0.062537  0.675327  1
  Si  Si3  1  0.675327  0.851623  0.062537  1
  Si  Si4  1  0.062537  0.675327  0.851623  1
  Si  Si5  1  0.649614  0.828661  0.433609  1
  Si  Si6  1  0.250209  0.250209  0.250209  1
  Si  Si7  1  0.749791  0.749791  0.749791  1
  Si  Si8  1  0.171339  0.566391  0.350386  1
  Si  Si9  1  0.566391  0.350386  0.171339  1
  Si  Si10  1  0.350386  0.171339  0.566391  1
  Si  Si11  1  0.937463  0.324673  0.148377  1
  Si  Si12  1  0.324673  0.148377  0.937463  1
  Si  Si13  1  0.148377  0.937463  0.324673  1
  Si  Si14  1  0.828661  0.433609  0.649614  1
  Si  Si15  1  0.433609  0.649614  0.828661  1
  Ir  Ir16  1  0.750352  0.071744  0.428261  1
  Ir  Ir17  1  0.428261  0.750352  0.071744  1
  Ir  Ir18  1  0.071744  0.428261  0.750352  1
  Ir  Ir19  1  0.249648  0.928256  0.571739  1
  Ir  Ir20  1  0.571739  0.249648  0.928256  1
  Ir  Ir21  1  0.928256  0.571739  0.249648  1
