# generated using pymatgen
data_TmLu5(Sc2Sn3)2
_symmetry_space_group_name_H-M   'P 1'
_cell_length_a   8.67860936
_cell_length_b   8.67861064
_cell_length_c   6.20673600
_cell_angle_alpha   90.00000000
_cell_angle_beta   90.00000000
_cell_angle_gamma   120.03322060
_symmetry_Int_Tables_number   1
_chemical_formula_structural   TmLu5(Sc2Sn3)2
_chemical_formula_sum   'Tm1 Lu5 Sc4 Sn6'
_cell_volume   404.71450653
_cell_formula_units_Z   1
loop_
 _symmetry_equiv_pos_site_id
 _symmetry_equiv_pos_as_xyz
  1  'x, y, z'
loop_
 _atom_site_type_symbol
 _atom_site_label
 _atom_site_symmetry_multiplicity
 _atom_site_fract_x
 _atom_site_fract_y
 _atom_site_fract_z
 _atom_site_occupancy
  Tm  Tm0  1  0.762138  0.762138  0.750000  1
  Lu  Lu1  1  0.237991  0.000054  0.750000  1
  Lu  Lu2  1  0.000054  0.237991  0.750000  1
  Lu  Lu3  1  0.237746  0.237746  0.250000  1
  Lu  Lu4  1  0.762100  0.000121  0.250000  1
  Lu  Lu5  1  0.000121  0.762100  0.250000  1
  Sc  Sc6  1  0.666644  0.333301  0.000035  1
  Sc  Sc7  1  0.333301  0.666644  0.000035  1
  Sc  Sc8  1  0.333301  0.666644  0.499965  1
  Sc  Sc9  1  0.666644  0.333301  0.499965  1
  Sn  Sn10  1  0.398260  0.398260  0.750000  1
  Sn  Sn11  1  0.601418  0.000261  0.750000  1
  Sn  Sn12  1  0.000261  0.601418  0.750000  1
  Sn  Sn13  1  0.601529  0.601529  0.250000  1
  Sn  Sn14  1  0.398478  0.000013  0.250000  1
  Sn  Sn15  1  0.000013  0.398478  0.250000  1
