# generated using pymatgen
data_YTm3Lu4In3Co
_symmetry_space_group_name_H-M   'P 1'
_cell_length_a   10.17696400
_cell_length_b   10.17696556
_cell_length_c   6.94060400
_cell_angle_alpha   90.00000000
_cell_angle_beta   90.00000000
_cell_angle_gamma   120.00000794
_symmetry_Int_Tables_number   1
_chemical_formula_structural   YTm3Lu4In3Co
_chemical_formula_sum   'Y2 Tm6 Lu8 In6 Co2'
_cell_volume   622.53590709
_cell_formula_units_Z   2
loop_
 _symmetry_equiv_pos_site_id
 _symmetry_equiv_pos_as_xyz
  1  'x, y, z'
loop_
 _atom_site_type_symbol
 _atom_site_label
 _atom_site_symmetry_multiplicity
 _atom_site_fract_x
 _atom_site_fract_y
 _atom_site_fract_z
 _atom_site_occupancy
  Y  Y0  1  0.000000  0.000000  0.495567  1
  Y  Y1  1  0.000000  0.000000  0.995567  1
  Tm  Tm2  1  0.464825  0.535175  0.481917  1
  Tm  Tm3  1  0.070352  0.535175  0.481917  1
  Tm  Tm4  1  0.464825  0.929648  0.481917  1
  Tm  Tm5  1  0.535175  0.464825  0.981917  1
  Tm  Tm6  1  0.929648  0.464825  0.981917  1
  Tm  Tm7  1  0.535175  0.070352  0.981917  1
  Lu  Lu8  1  0.820279  0.179721  0.276773  1
  Lu  Lu9  1  0.359443  0.179721  0.276773  1
  Lu  Lu10  1  0.820279  0.640557  0.276773  1
  Lu  Lu11  1  0.179721  0.820279  0.776773  1
  Lu  Lu12  1  0.640557  0.820279  0.776773  1
  Lu  Lu13  1  0.179721  0.359443  0.776773  1
  Lu  Lu14  1  0.333333  0.666667  0.090569  1
  Lu  Lu15  1  0.666667  0.333333  0.590569  1
  In  In16  1  0.163474  0.836526  0.234342  1
  In  In17  1  0.673052  0.836526  0.234342  1
  In  In18  1  0.163474  0.326948  0.234342  1
  In  In19  1  0.836526  0.163474  0.734342  1
  In  In20  1  0.326948  0.163474  0.734342  1
  In  In21  1  0.836526  0.673052  0.734342  1
  Co  Co22  1  0.333333  0.666667  0.707046  1
  Co  Co23  1  0.666667  0.333333  0.207046  1
