# generated using pymatgen
data_MgMn(AuO2)2
_symmetry_space_group_name_H-M   'P 1'
_cell_length_a   3.10453861
_cell_length_b   5.32302967
_cell_length_c   6.36274353
_cell_angle_alpha   82.82776918
_cell_angle_beta   75.84190401
_cell_angle_gamma   90.04409107
_symmetry_Int_Tables_number   1
_chemical_formula_structural   MgMn(AuO2)2
_chemical_formula_sum   'Mg1 Mn1 Au2 O4'
_cell_volume   101.10258817
_cell_formula_units_Z   1
loop_
 _symmetry_equiv_pos_site_id
 _symmetry_equiv_pos_as_xyz
  1  'x, y, z'
loop_
 _atom_site_type_symbol
 _atom_site_label
 _atom_site_symmetry_multiplicity
 _atom_site_fract_x
 _atom_site_fract_y
 _atom_site_fract_z
 _atom_site_occupancy
  Mg  Mg0  1  0.250155  0.750211  0.499856  1
  Mn  Mn1  1  0.749645  0.249570  0.499879  1
  Au  Au2  1  0.500687  0.492246  0.996137  1
  Au  Au3  1  0.999464  0.007536  0.003974  1
  O  O4  1  0.166754  0.069582  0.668063  1
  O  O5  1  0.669116  0.542896  0.660985  1
  O  O6  1  0.333259  0.430524  0.331926  1
  O  O7  1  0.830921  0.957434  0.339179  1
