# generated using pymatgen
data_Dy5Nb3Co16Si11P
_symmetry_space_group_name_H-M   'P 1'
_cell_length_a   12.37078736
_cell_length_b   12.39174497
_cell_length_c   3.78476500
_cell_angle_alpha   90.00000000
_cell_angle_beta   90.00000000
_cell_angle_gamma   120.10587591
_symmetry_Int_Tables_number   1
_chemical_formula_structural   Dy5Nb3Co16Si11P
_chemical_formula_sum   'Dy5 Nb3 Co16 Si11 P1'
_cell_volume   501.92061302
_cell_formula_units_Z   1
loop_
 _symmetry_equiv_pos_site_id
 _symmetry_equiv_pos_as_xyz
  1  'x, y, z'
loop_
 _atom_site_type_symbol
 _atom_site_label
 _atom_site_symmetry_multiplicity
 _atom_site_fract_x
 _atom_site_fract_y
 _atom_site_fract_z
 _atom_site_occupancy
  Dy  Dy0  1  0.814910  0.998867  0.500000  1
  Dy  Dy1  1  0.000064  0.813299  0.500000  1
  Dy  Dy2  1  0.183915  0.184752  0.500000  1
  Dy  Dy3  1  0.332809  0.667006  0.000000  1
  Dy  Dy4  1  0.669932  0.333492  0.000000  1
  Nb  Nb5  1  0.434832  0.000964  0.000000  1
  Nb  Nb6  1  0.997701  0.432472  0.000000  1
  Nb  Nb7  1  0.565363  0.565839  0.000000  1
  Co  Co8  1  0.280620  0.000554  0.500000  1
  Co  Co9  1  0.995954  0.279377  0.500000  1
  Co  Co10  1  0.720104  0.719432  0.500000  1
  Co  Co11  1  0.624631  0.805237  0.000000  1
  Co  Co12  1  0.195544  0.819333  0.000000  1
  Co  Co13  1  0.178860  0.375313  0.000000  1
  Co  Co14  1  0.376467  0.181541  0.000000  1
  Co  Co15  1  0.804541  0.622588  0.000000  1
  Co  Co16  1  0.819035  0.197503  0.000000  1
  Co  Co17  1  0.520714  0.881476  0.500000  1
  Co  Co18  1  0.120677  0.640227  0.500000  1
  Co  Co19  1  0.359736  0.480998  0.500000  1
  Co  Co20  1  0.480407  0.360385  0.500000  1
  Co  Co21  1  0.877630  0.514899  0.500000  1
  Co  Co22  1  0.644667  0.125598  0.500000  1
  Co  Co23  1  0.000112  0.999182  0.000000  1
  Si  Si24  1  0.184541  0.000259  0.000000  1
  Si  Si25  1  0.999083  0.182768  0.000000  1
  Si  Si26  1  0.816082  0.815019  0.000000  1
  Si  Si27  1  0.522617  0.695057  0.500000  1
  Si  Si28  1  0.306483  0.829171  0.500000  1
  Si  Si29  1  0.170685  0.477355  0.500000  1
  Si  Si30  1  0.478344  0.172788  0.500000  1
  Si  Si31  1  0.693454  0.521714  0.500000  1
  Si  Si32  1  0.640758  0.000529  0.000000  1
  Si  Si33  1  0.000165  0.638657  0.000000  1
  Si  Si34  1  0.359151  0.359942  0.000000  1
  P  P35  1  0.829413  0.306408  0.500000  1
