# generated using pymatgen
data_Ca4Nd16(Ga3Sn)3
_symmetry_space_group_name_H-M   'P 1'
_cell_length_a   8.07079400
_cell_length_b   8.07079400
_cell_length_c   14.29784600
_cell_angle_alpha   90.00000000
_cell_angle_beta   90.00000000
_cell_angle_gamma   90.00000000
_symmetry_Int_Tables_number   1
_chemical_formula_structural   Ca4Nd16(Ga3Sn)3
_chemical_formula_sum   'Ca4 Nd16 Ga9 Sn3'
_cell_volume   931.32902916
_cell_formula_units_Z   1
loop_
 _symmetry_equiv_pos_site_id
 _symmetry_equiv_pos_as_xyz
  1  'x, y, z'
loop_
 _atom_site_type_symbol
 _atom_site_label
 _atom_site_symmetry_multiplicity
 _atom_site_fract_x
 _atom_site_fract_y
 _atom_site_fract_z
 _atom_site_occupancy
  Ca  Ca0  1  0.500000  0.500000  0.755403  1
  Ca  Ca1  1  0.000000  0.000000  0.249609  1
  Ca  Ca2  1  0.000000  0.000000  0.750391  1
  Ca  Ca3  1  0.500000  0.500000  0.244597  1
  Nd  Nd4  1  0.674757  0.167116  0.103227  1
  Nd  Nd5  1  0.170497  0.669181  0.606055  1
  Nd  Nd6  1  0.325243  0.832884  0.103227  1
  Nd  Nd7  1  0.829503  0.330819  0.606055  1
  Nd  Nd8  1  0.832884  0.674757  0.103227  1
  Nd  Nd9  1  0.330819  0.170497  0.606055  1
  Nd  Nd10  1  0.167116  0.325243  0.103227  1
  Nd  Nd11  1  0.669181  0.829503  0.606055  1
  Nd  Nd12  1  0.832884  0.325243  0.896773  1
  Nd  Nd13  1  0.330819  0.829503  0.393945  1
  Nd  Nd14  1  0.167116  0.674757  0.896773  1
  Nd  Nd15  1  0.669181  0.170497  0.393945  1
  Nd  Nd16  1  0.674757  0.832884  0.896773  1
  Nd  Nd17  1  0.170497  0.330819  0.393945  1
  Nd  Nd18  1  0.325243  0.167116  0.896773  1
  Nd  Nd19  1  0.829503  0.669181  0.393945  1
  Ga  Ga20  1  0.618674  0.118956  0.750805  1
  Ga  Ga21  1  0.118956  0.618674  0.249195  1
  Ga  Ga22  1  0.881044  0.381326  0.249195  1
  Ga  Ga23  1  0.381326  0.881044  0.750805  1
  Ga  Ga24  1  0.881044  0.618674  0.750805  1
  Ga  Ga25  1  0.381326  0.118956  0.249195  1
  Ga  Ga26  1  0.118956  0.381326  0.750805  1
  Ga  Ga27  1  0.618674  0.881044  0.249195  1
  Ga  Ga28  1  0.000000  0.000000  0.000000  1
  Sn  Sn29  1  0.500000  0.500000  0.500000  1
  Sn  Sn30  1  0.500000  0.500000  0.000000  1
  Sn  Sn31  1  0.000000  0.000000  0.500000  1
