# generated using pymatgen
data_Li8Pr8IrPt7
_symmetry_space_group_name_H-M   'P 1'
_cell_length_a   9.39697388
_cell_length_b   9.39697436
_cell_length_c   7.21508700
_cell_angle_alpha   90.92699442
_cell_angle_beta   89.07299943
_cell_angle_gamma   128.76177495
_symmetry_Int_Tables_number   1
_chemical_formula_structural   Li8Pr8IrPt7
_chemical_formula_sum   'Li8 Pr8 Ir1 Pt7'
_cell_volume   496.71393971
_cell_formula_units_Z   1
loop_
 _symmetry_equiv_pos_site_id
 _symmetry_equiv_pos_as_xyz
  1  'x, y, z'
loop_
 _atom_site_type_symbol
 _atom_site_label
 _atom_site_symmetry_multiplicity
 _atom_site_fract_x
 _atom_site_fract_y
 _atom_site_fract_z
 _atom_site_occupancy
  Li  Li0  1  0.847677  0.152323  0.874017  1
  Li  Li1  1  0.847214  0.656489  0.631262  1
  Li  Li2  1  0.343511  0.152786  0.631262  1
  Li  Li3  1  0.152821  0.847179  0.372885  1
  Li  Li4  1  0.150263  0.342265  0.134726  1
  Li  Li5  1  0.657735  0.849737  0.134726  1
  Li  Li6  1  0.654725  0.345275  0.371878  1
  Li  Li7  1  0.345626  0.654374  0.867640  1
  Pr  Pr8  1  0.469482  0.530518  0.463242  1
  Pr  Pr9  1  0.533268  0.973261  0.537596  1
  Pr  Pr10  1  0.026739  0.466732  0.537596  1
  Pr  Pr11  1  0.530398  0.469602  0.961113  1
  Pr  Pr12  1  0.476184  0.032612  0.045234  1
  Pr  Pr13  1  0.967388  0.523816  0.045234  1
  Pr  Pr14  1  0.965603  0.034397  0.460583  1
  Pr  Pr15  1  0.032715  0.967285  0.960191  1
  Ir  Ir16  1  0.815095  0.184905  0.256283  1
  Pt  Pt17  1  0.817727  0.682258  0.254046  1
  Pt  Pt18  1  0.317742  0.182273  0.254046  1
  Pt  Pt19  1  0.184986  0.815014  0.751916  1
  Pt  Pt20  1  0.181833  0.318327  0.756896  1
  Pt  Pt21  1  0.681673  0.818167  0.756896  1
  Pt  Pt22  1  0.680287  0.319713  0.749865  1
  Pt  Pt23  1  0.319306  0.680694  0.248871  1
