# generated using pymatgen
data_Tb16Cd3Ni3HgIr
_symmetry_space_group_name_H-M   'P 1'
_cell_length_a   9.60440305
_cell_length_b   9.60440403
_cell_length_c   9.60440398
_cell_angle_alpha   59.86461821
_cell_angle_beta   59.86462274
_cell_angle_gamma   59.86461747
_symmetry_Int_Tables_number   1
_chemical_formula_structural   Tb16Cd3Ni3HgIr
_chemical_formula_sum   'Tb16 Cd3 Ni3 Hg1 Ir1'
_cell_volume   624.53963520
_cell_formula_units_Z   1
loop_
 _symmetry_equiv_pos_site_id
 _symmetry_equiv_pos_as_xyz
  1  'x, y, z'
loop_
 _atom_site_type_symbol
 _atom_site_label
 _atom_site_symmetry_multiplicity
 _atom_site_fract_x
 _atom_site_fract_y
 _atom_site_fract_z
 _atom_site_occupancy
  Tb  Tb0  1  0.346599  0.346599  0.346599  1
  Tb  Tb1  1  0.352617  0.352617  0.950198  1
  Tb  Tb2  1  0.352617  0.950198  0.352617  1
  Tb  Tb3  1  0.950198  0.352617  0.352617  1
  Tb  Tb4  1  0.809264  0.188957  0.188957  1
  Tb  Tb5  1  0.187566  0.810473  0.810473  1
  Tb  Tb6  1  0.188957  0.809264  0.188957  1
  Tb  Tb7  1  0.810473  0.187566  0.810473  1
  Tb  Tb8  1  0.188957  0.188957  0.809264  1
  Tb  Tb9  1  0.810473  0.810473  0.187566  1
  Tb  Tb10  1  0.935946  0.565330  0.565330  1
  Tb  Tb11  1  0.559260  0.937850  0.937850  1
  Tb  Tb12  1  0.565330  0.935946  0.565330  1
  Tb  Tb13  1  0.937850  0.559260  0.937850  1
  Tb  Tb14  1  0.565330  0.565330  0.935946  1
  Tb  Tb15  1  0.937850  0.937850  0.559260  1
  Cd  Cd16  1  0.579626  0.579626  0.256579  1
  Cd  Cd17  1  0.579626  0.256579  0.579626  1
  Cd  Cd18  1  0.256579  0.579626  0.579626  1
  Ni  Ni19  1  0.141493  0.141493  0.574249  1
  Ni  Ni20  1  0.141493  0.574249  0.141493  1
  Ni  Ni21  1  0.574249  0.141493  0.141493  1
  Hg  Hg22  1  0.584210  0.584210  0.584210  1
  Ir  Ir23  1  0.143437  0.143437  0.143437  1
