# generated using pymatgen
data_DyZnCu3Ag
_symmetry_space_group_name_H-M   'P 1'
_cell_length_a   5.09974326
_cell_length_b   5.09974348
_cell_length_c   5.08415596
_cell_angle_alpha   59.89853179
_cell_angle_beta   59.89852820
_cell_angle_gamma   59.99999821
_symmetry_Int_Tables_number   1
_chemical_formula_structural   DyZnCu3Ag
_chemical_formula_sum   'Dy1 Zn1 Cu3 Ag1'
_cell_volume   93.35395325
_cell_formula_units_Z   1
loop_
 _symmetry_equiv_pos_site_id
 _symmetry_equiv_pos_as_xyz
  1  'x, y, z'
loop_
 _atom_site_type_symbol
 _atom_site_label
 _atom_site_symmetry_multiplicity
 _atom_site_fract_x
 _atom_site_fract_y
 _atom_site_fract_z
 _atom_site_occupancy
  Dy  Dy0  1  0.001787  0.001787  0.994640  1
  Zn  Zn1  1  0.622581  0.622581  0.132258  1
  Cu  Cu2  1  0.623639  0.127712  0.625009  1
  Cu  Cu3  1  0.127712  0.623639  0.625009  1
  Cu  Cu4  1  0.623639  0.623639  0.625009  1
  Ag  Ag5  1  0.250642  0.250642  0.248075  1
