# generated using pymatgen
data_Ho2Er8IrRu3
_symmetry_space_group_name_H-M   'P 1'
_cell_length_a   6.29489024
_cell_length_b   7.28459482
_cell_length_c   8.39436405
_cell_angle_alpha   96.80116057
_cell_angle_beta   111.92924314
_cell_angle_gamma   90.12764593
_symmetry_Int_Tables_number   1
_chemical_formula_structural   Ho2Er8IrRu3
_chemical_formula_sum   'Ho2 Er8 Ir1 Ru3'
_cell_volume   354.11443436
_cell_formula_units_Z   1
loop_
 _symmetry_equiv_pos_site_id
 _symmetry_equiv_pos_as_xyz
  1  'x, y, z'
loop_
 _atom_site_type_symbol
 _atom_site_label
 _atom_site_symmetry_multiplicity
 _atom_site_fract_x
 _atom_site_fract_y
 _atom_site_fract_z
 _atom_site_occupancy
  Ho  Ho0  1  0.792632  0.582384  0.814540  1
  Ho  Ho1  1  0.978447  0.915015  0.187035  1
  Er  Er2  1  0.208251  0.415357  0.186010  1
  Er  Er3  1  0.024195  0.085633  0.814653  1
  Er  Er4  1  0.204720  0.683978  0.564319  1
  Er  Er5  1  0.642007  0.815630  0.434444  1
  Er  Er6  1  0.793811  0.314931  0.434880  1
  Er  Er7  1  0.356993  0.185818  0.563662  1
  Er  Er8  1  0.419369  0.749704  0.000412  1
  Er  Er9  1  0.580432  0.251369  0.000788  1
  Ir  Ir10  1  0.601341  0.923341  0.778895  1
  Ru  Ru11  1  0.823775  0.576690  0.220272  1
  Ru  Ru12  1  0.396387  0.076045  0.220640  1
  Ru  Ru13  1  0.177638  0.424103  0.779449  1
