# generated using pymatgen
data_YRhI18
_symmetry_space_group_name_H-M   'P 1'
_cell_length_a   10.21887580
_cell_length_b   10.26468106
_cell_length_c   10.20147117
_cell_angle_alpha   93.31599837
_cell_angle_beta   93.38631014
_cell_angle_gamma   93.24410853
_symmetry_Int_Tables_number   1
_chemical_formula_structural   YRhI18
_chemical_formula_sum   'Y1 Rh1 I18'
_cell_volume   1064.47625213
_cell_formula_units_Z   1
loop_
 _symmetry_equiv_pos_site_id
 _symmetry_equiv_pos_as_xyz
  1  'x, y, z'
loop_
 _atom_site_type_symbol
 _atom_site_label
 _atom_site_symmetry_multiplicity
 _atom_site_fract_x
 _atom_site_fract_y
 _atom_site_fract_z
 _atom_site_occupancy
  Y  Y0  1  0.500000  0.500000  0.500000  1
  Rh  Rh1  1  0.000000  0.000000  0.000000  1
  I  I2  1  0.796409  0.479444  0.526018  1
  I  I3  1  0.525739  0.794973  0.478910  1
  I  I4  1  0.479845  0.526811  0.796802  1
  I  I5  1  0.203591  0.520556  0.473982  1
  I  I6  1  0.474261  0.205027  0.521090  1
  I  I7  1  0.520155  0.473189  0.203198  1
  I  I8  1  0.901371  0.361413  0.767189  1
  I  I9  1  0.766820  0.900168  0.362050  1
  I  I10  1  0.362142  0.767105  0.901345  1
  I  I11  1  0.098629  0.638587  0.232811  1
  I  I12  1  0.233180  0.099832  0.637950  1
  I  I13  1  0.637858  0.232895  0.098655  1
  I  I14  1  0.001218  0.969000  0.735889  1
  I  I15  1  0.736456  0.001599  0.967945  1
  I  I16  1  0.967860  0.737699  0.000443  1
  I  I17  1  0.998782  0.031000  0.264111  1
  I  I18  1  0.263544  0.998401  0.032055  1
  I  I19  1  0.032140  0.262301  0.999557  1
