# generated using pymatgen
data_ZrSc19Tc6
_symmetry_space_group_name_H-M   'P 1'
_cell_length_a   8.88990100
_cell_length_b   8.88990153
_cell_length_c   8.11589200
_cell_angle_alpha   90.00000000
_cell_angle_beta   90.00000000
_cell_angle_gamma   119.99999432
_symmetry_Int_Tables_number   1
_chemical_formula_structural   ZrSc19Tc6
_chemical_formula_sum   'Zr1 Sc19 Tc6'
_cell_volume   555.47023307
_cell_formula_units_Z   1
loop_
 _symmetry_equiv_pos_site_id
 _symmetry_equiv_pos_as_xyz
  1  'x, y, z'
loop_
 _atom_site_type_symbol
 _atom_site_label
 _atom_site_symmetry_multiplicity
 _atom_site_fract_x
 _atom_site_fract_y
 _atom_site_fract_z
 _atom_site_occupancy
  Zr  Zr0  1  0.000000  0.000000  0.000000  1
  Sc  Sc1  1  0.404051  0.202025  0.054630  1
  Sc  Sc2  1  0.797975  0.202025  0.054630  1
  Sc  Sc3  1  0.797974  0.595948  0.054630  1
  Sc  Sc4  1  0.094887  0.547443  0.249868  1
  Sc  Sc5  1  0.452557  0.547443  0.249868  1
  Sc  Sc6  1  0.452557  0.905114  0.249868  1
  Sc  Sc7  1  0.403529  0.201764  0.444814  1
  Sc  Sc8  1  0.798236  0.201764  0.444814  1
  Sc  Sc9  1  0.798235  0.596470  0.444814  1
  Sc  Sc10  1  0.000000  0.000000  0.500000  1
  Sc  Sc11  1  0.201764  0.403530  0.555187  1
  Sc  Sc12  1  0.201763  0.798236  0.555187  1
  Sc  Sc13  1  0.596471  0.798236  0.555187  1
  Sc  Sc14  1  0.547442  0.094886  0.750133  1
  Sc  Sc15  1  0.547443  0.452557  0.750133  1
  Sc  Sc16  1  0.905114  0.452557  0.750133  1
  Sc  Sc17  1  0.202025  0.404052  0.945369  1
  Sc  Sc18  1  0.202024  0.797975  0.945369  1
  Sc  Sc19  1  0.595949  0.797975  0.945369  1
  Tc  Tc20  1  0.120085  0.240171  0.250413  1
  Tc  Tc21  1  0.120084  0.879915  0.250413  1
  Tc  Tc22  1  0.759830  0.879915  0.250413  1
  Tc  Tc23  1  0.240171  0.120085  0.749588  1
  Tc  Tc24  1  0.879915  0.120085  0.749588  1
  Tc  Tc25  1  0.879914  0.759829  0.749588  1
