# generated using pymatgen
data_Ca20MgHg2Au9
_symmetry_space_group_name_H-M   'P 1'
_cell_length_a   8.09263500
_cell_length_b   8.09263500
_cell_length_c   14.82443800
_cell_angle_alpha   90.00000000
_cell_angle_beta   90.00000000
_cell_angle_gamma   90.00000000
_symmetry_Int_Tables_number   1
_chemical_formula_structural   Ca20MgHg2Au9
_chemical_formula_sum   'Ca20 Mg1 Hg2 Au9'
_cell_volume   970.86343313
_cell_formula_units_Z   1
loop_
 _symmetry_equiv_pos_site_id
 _symmetry_equiv_pos_as_xyz
  1  'x, y, z'
loop_
 _atom_site_type_symbol
 _atom_site_label
 _atom_site_symmetry_multiplicity
 _atom_site_fract_x
 _atom_site_fract_y
 _atom_site_fract_z
 _atom_site_occupancy
  Ca  Ca0  1  0.000000  0.000000  0.754255  1
  Ca  Ca1  1  0.500000  0.500000  0.250215  1
  Ca  Ca2  1  0.000000  0.000000  0.245745  1
  Ca  Ca3  1  0.500000  0.500000  0.749785  1
  Ca  Ca4  1  0.175054  0.656448  0.108331  1
  Ca  Ca5  1  0.666431  0.165985  0.611349  1
  Ca  Ca6  1  0.824946  0.343552  0.108331  1
  Ca  Ca7  1  0.333569  0.834015  0.611349  1
  Ca  Ca8  1  0.343552  0.175054  0.108331  1
  Ca  Ca9  1  0.834015  0.666431  0.611349  1
  Ca  Ca10  1  0.656448  0.824946  0.108331  1
  Ca  Ca11  1  0.165985  0.333569  0.611349  1
  Ca  Ca12  1  0.343552  0.824946  0.891669  1
  Ca  Ca13  1  0.834015  0.333569  0.388651  1
  Ca  Ca14  1  0.656448  0.175054  0.891669  1
  Ca  Ca15  1  0.165985  0.666431  0.388651  1
  Ca  Ca16  1  0.175054  0.343552  0.891669  1
  Ca  Ca17  1  0.666431  0.834015  0.388651  1
  Ca  Ca18  1  0.824946  0.656448  0.891669  1
  Ca  Ca19  1  0.333569  0.165985  0.388651  1
  Mg  Mg20  1  0.000000  0.000000  0.000000  1
  Hg  Hg21  1  0.000000  0.000000  0.500000  1
  Hg  Hg22  1  0.500000  0.500000  0.500000  1
  Au  Au23  1  0.631237  0.130901  0.248707  1
  Au  Au24  1  0.130901  0.631237  0.751293  1
  Au  Au25  1  0.869099  0.368763  0.751293  1
  Au  Au26  1  0.368763  0.869099  0.248707  1
  Au  Au27  1  0.368763  0.130901  0.751293  1
  Au  Au28  1  0.869099  0.631237  0.248707  1
  Au  Au29  1  0.130901  0.368763  0.248707  1
  Au  Au30  1  0.631237  0.869099  0.751293  1
  Au  Au31  1  0.500000  0.500000  0.000000  1
