# generated using pymatgen
data_Dy12OsPt3
_symmetry_space_group_name_H-M   'P 1'
_cell_length_a   7.12508698
_cell_length_b   9.45885400
_cell_length_c   6.45616659
_cell_angle_alpha   90.00000000
_cell_angle_beta   89.82639430
_cell_angle_gamma   90.00000000
_symmetry_Int_Tables_number   1
_chemical_formula_structural   Dy12OsPt3
_chemical_formula_sum   'Dy12 Os1 Pt3'
_cell_volume   435.11236668
_cell_formula_units_Z   1
loop_
 _symmetry_equiv_pos_site_id
 _symmetry_equiv_pos_as_xyz
  1  'x, y, z'
loop_
 _atom_site_type_symbol
 _atom_site_label
 _atom_site_symmetry_multiplicity
 _atom_site_fract_x
 _atom_site_fract_y
 _atom_site_fract_z
 _atom_site_occupancy
  Dy  Dy0  1  0.181626  0.063100  0.181332  1
  Dy  Dy1  1  0.317828  0.945228  0.672066  1
  Dy  Dy2  1  0.677476  0.437073  0.325164  1
  Dy  Dy3  1  0.820353  0.561525  0.824644  1
  Dy  Dy4  1  0.820353  0.938475  0.824644  1
  Dy  Dy5  1  0.677476  0.062927  0.325164  1
  Dy  Dy6  1  0.317828  0.554772  0.672066  1
  Dy  Dy7  1  0.181626  0.436900  0.181332  1
  Dy  Dy8  1  0.036179  0.250000  0.625379  1
  Dy  Dy9  1  0.471525  0.750000  0.127112  1
  Dy  Dy10  1  0.528485  0.250000  0.872232  1
  Dy  Dy11  1  0.970211  0.750000  0.368249  1
  Os  Os12  1  0.388846  0.250000  0.455805  1
  Pt  Pt13  1  0.113047  0.750000  0.948568  1
  Pt  Pt14  1  0.888029  0.250000  0.043149  1
  Pt  Pt15  1  0.609114  0.750000  0.553097  1
