# generated using pymatgen
data_AgMoF6
_symmetry_space_group_name_H-M   'P 1'
_cell_length_a   6.10844184
_cell_length_b   6.11115751
_cell_length_c   6.17038726
_cell_angle_alpha   53.83821387
_cell_angle_beta   54.65669231
_cell_angle_gamma   54.12292966
_symmetry_Int_Tables_number   1
_chemical_formula_structural   AgMoF6
_chemical_formula_sum   'Ag1 Mo1 F6'
_cell_volume   140.83031916
_cell_formula_units_Z   1
loop_
 _symmetry_equiv_pos_site_id
 _symmetry_equiv_pos_as_xyz
  1  'x, y, z'
loop_
 _atom_site_type_symbol
 _atom_site_label
 _atom_site_symmetry_multiplicity
 _atom_site_fract_x
 _atom_site_fract_y
 _atom_site_fract_z
 _atom_site_occupancy
  Ag  Ag0  1  0.000000  0.000000  0.000000  1
  Mo  Mo1  1  0.500000  0.500000  0.500000  1
  F  F2  1  0.291793  0.845425  0.580742  1
  F  F3  1  0.574301  0.292649  0.850536  1
  F  F4  1  0.148316  0.417924  0.714550  1
  F  F5  1  0.425699  0.707351  0.149464  1
  F  F6  1  0.708207  0.154575  0.419258  1
  F  F7  1  0.851684  0.582076  0.285450  1
