# generated using pymatgen
data_TbYCuPd
_symmetry_space_group_name_H-M   'P 1'
_cell_length_a   4.48886700
_cell_length_b   5.52709600
_cell_length_c   7.17786300
_cell_angle_alpha   90.00000000
_cell_angle_beta   90.00000000
_cell_angle_gamma   90.00000000
_symmetry_Int_Tables_number   1
_chemical_formula_structural   TbYCuPd
_chemical_formula_sum   'Tb2 Y2 Cu2 Pd2'
_cell_volume   178.08564385
_cell_formula_units_Z   2
loop_
 _symmetry_equiv_pos_site_id
 _symmetry_equiv_pos_as_xyz
  1  'x, y, z'
loop_
 _atom_site_type_symbol
 _atom_site_label
 _atom_site_symmetry_multiplicity
 _atom_site_fract_x
 _atom_site_fract_y
 _atom_site_fract_z
 _atom_site_occupancy
  Tb  Tb0  1  0.500000  0.391965  0.316145  1
  Tb  Tb1  1  0.500000  0.608035  0.816145  1
  Y  Y2  1  0.000000  0.111624  0.683747  1
  Y  Y3  1  0.000000  0.888376  0.183747  1
  Cu  Cu4  1  0.500000  0.891386  0.464221  1
  Cu  Cu5  1  0.500000  0.108614  0.964221  1
  Pd  Pd6  1  0.000000  0.615130  0.535888  1
  Pd  Pd7  1  0.000000  0.384870  0.035888  1
