# generated using pymatgen
data_Tb3Dy2Co9(P6Ru5)2
_symmetry_space_group_name_H-M   'P 1'
_cell_length_a   12.33563611
_cell_length_b   12.29572691
_cell_length_c   3.76622500
_cell_angle_alpha   90.00000000
_cell_angle_beta   90.00000000
_cell_angle_gamma   119.81721629
_symmetry_Int_Tables_number   1
_chemical_formula_structural   Tb3Dy2Co9(P6Ru5)2
_chemical_formula_sum   'Tb3 Dy2 Co9 P12 Ru10'
_cell_volume   495.62090242
_cell_formula_units_Z   1
loop_
 _symmetry_equiv_pos_site_id
 _symmetry_equiv_pos_as_xyz
  1  'x, y, z'
loop_
 _atom_site_type_symbol
 _atom_site_label
 _atom_site_symmetry_multiplicity
 _atom_site_fract_x
 _atom_site_fract_y
 _atom_site_fract_z
 _atom_site_occupancy
  Tb  Tb0  1  0.663936  0.333506  0.000000  1
  Tb  Tb1  1  0.333318  0.667202  0.000000  1
  Tb  Tb2  1  0.183149  0.181832  0.500000  1
  Dy  Dy3  1  0.817921  0.998237  0.500000  1
  Dy  Dy4  1  0.999353  0.818461  0.500000  1
  Co  Co5  1  0.802616  0.630400  0.000000  1
  Co  Co6  1  0.368477  0.170977  0.000000  1
  Co  Co7  1  0.195190  0.827912  0.000000  1
  Co  Co8  1  0.629599  0.800744  0.000000  1
  Co  Co9  1  0.176397  0.370571  0.000000  1
  Co  Co10  1  0.718922  0.718723  0.500000  1
  Co  Co11  1  0.279331  0.999416  0.500000  1
  Co  Co12  1  0.006836  0.285022  0.500000  1
  Co  Co13  1  0.999423  0.998861  0.000000  1
  P  P14  1  0.363526  0.363497  0.000000  1
  P  P15  1  0.633667  0.997344  0.000000  1
  P  P16  1  0.000593  0.637792  0.000000  1
  P  P17  1  0.838308  0.315745  0.500000  1
  P  P18  1  0.684961  0.524260  0.500000  1
  P  P19  1  0.472987  0.159327  0.500000  1
  P  P20  1  0.315561  0.840482  0.500000  1
  P  P21  1  0.524550  0.683753  0.500000  1
  P  P22  1  0.162031  0.478020  0.500000  1
  P  P23  1  0.820348  0.820554  0.000000  1
  P  P24  1  0.178033  0.999434  0.000000  1
  P  P25  1  0.005468  0.180931  0.000000  1
  Ru  Ru26  1  0.555690  0.554231  0.000000  1
  Ru  Ru27  1  0.440097  0.995365  0.000000  1
  Ru  Ru28  1  0.008257  0.450432  0.000000  1
  Ru  Ru29  1  0.826917  0.197586  0.000000  1
  Ru  Ru30  1  0.639917  0.124957  0.500000  1
  Ru  Ru31  1  0.872940  0.519528  0.500000  1
  Ru  Ru32  1  0.480204  0.352448  0.500000  1
  Ru  Ru33  1  0.129397  0.650078  0.500000  1
  Ru  Ru34  1  0.518453  0.870391  0.500000  1
  Ru  Ru35  1  0.353625  0.481977  0.500000  1
