# generated using pymatgen
data_Nb12Cr2CoOs9N4
_symmetry_space_group_name_H-M   'P 1'
_cell_length_a   8.25077724
_cell_length_b   8.25773995
_cell_length_c   8.33417795
_cell_angle_alpha   60.33335940
_cell_angle_beta   60.33048588
_cell_angle_gamma   60.02789060
_symmetry_Int_Tables_number   1
_chemical_formula_structural   Nb12Cr2CoOs9N4
_chemical_formula_sum   'Nb12 Cr2 Co1 Os9 N4'
_cell_volume   403.60537151
_cell_formula_units_Z   1
loop_
 _symmetry_equiv_pos_site_id
 _symmetry_equiv_pos_as_xyz
  1  'x, y, z'
loop_
 _atom_site_type_symbol
 _atom_site_label
 _atom_site_symmetry_multiplicity
 _atom_site_fract_x
 _atom_site_fract_y
 _atom_site_fract_z
 _atom_site_occupancy
  Nb  Nb0  1  0.807723  0.808230  0.191529  1
  Nb  Nb1  1  0.196854  0.191321  0.806150  1
  Nb  Nb2  1  0.805676  0.191321  0.806150  1
  Nb  Nb3  1  0.192518  0.808230  0.191529  1
  Nb  Nb4  1  0.191285  0.809423  0.808007  1
  Nb  Nb5  1  0.804954  0.192657  0.197433  1
  Nb  Nb6  1  0.442277  0.441770  0.058471  1
  Nb  Nb7  1  0.053146  0.058679  0.443850  1
  Nb  Nb8  1  0.444324  0.058679  0.443850  1
  Nb  Nb9  1  0.057482  0.441770  0.058471  1
  Nb  Nb10  1  0.058715  0.440577  0.441993  1
  Nb  Nb11  1  0.445046  0.057343  0.052567  1
  Cr  Cr12  1  0.125000  0.625000  0.625000  1
  Cr  Cr13  1  0.625000  0.625000  0.625000  1
  Co  Co14  1  0.625000  0.125000  0.625000  1
  Os  Os15  1  0.625000  0.625000  0.125000  1
  Os  Os16  1  0.742069  0.415366  0.428346  1
  Os  Os17  1  0.413380  0.747448  0.425791  1
  Os  Os18  1  0.417716  0.417060  0.747509  1
  Os  Os19  1  0.414220  0.415366  0.428346  1
  Os  Os20  1  0.507931  0.834634  0.821654  1
  Os  Os21  1  0.836620  0.502552  0.824209  1
  Os  Os22  1  0.832284  0.832940  0.502491  1
  Os  Os23  1  0.835780  0.834634  0.821654  1
  N  N24  1  0.625000  0.125000  0.125000  1
  N  N25  1  0.125000  0.625000  0.125000  1
  N  N26  1  0.125000  0.125000  0.625000  1
  N  N27  1  0.125000  0.125000  0.125000  1
