# generated using pymatgen
data_Tm2CrRhF14
_symmetry_space_group_name_H-M   'P 1'
_cell_length_a   5.56384972
_cell_length_b   5.82367077
_cell_length_c   8.11341797
_cell_angle_alpha   103.26635822
_cell_angle_beta   90.11213746
_cell_angle_gamma   89.88887256
_symmetry_Int_Tables_number   1
_chemical_formula_structural   Tm2CrRhF14
_chemical_formula_sum   'Tm2 Cr1 Rh1 F14'
_cell_volume   255.87484195
_cell_formula_units_Z   1
loop_
 _symmetry_equiv_pos_site_id
 _symmetry_equiv_pos_as_xyz
  1  'x, y, z'
loop_
 _atom_site_type_symbol
 _atom_site_label
 _atom_site_symmetry_multiplicity
 _atom_site_fract_x
 _atom_site_fract_y
 _atom_site_fract_z
 _atom_site_occupancy
  Tm  Tm0  1  0.700829  0.652055  0.693704  1
  Tm  Tm1  1  0.200594  0.348986  0.311754  1
  Cr  Cr2  1  0.207330  0.182433  0.776151  1
  Rh  Rh3  1  0.707885  0.815601  0.225533  1
  F  F4  1  0.913333  0.470372  0.487230  1
  F  F5  1  0.414868  0.538794  0.512856  1
  F  F6  1  0.429120  0.939585  0.764555  1
  F  F7  1  0.918100  0.080867  0.232535  1
  F  F8  1  0.957006  0.952511  0.758345  1
  F  F9  1  0.430566  0.034287  0.240616  1
  F  F10  1  0.986658  0.426250  0.792843  1
  F  F11  1  0.498461  0.545678  0.203671  1
  F  F12  1  0.704186  0.767230  0.982156  1
  F  F13  1  0.203072  0.228160  0.008560  1
  F  F14  1  0.707584  0.878720  0.467864  1
  F  F15  1  0.205543  0.133404  0.544722  1
  F  F16  1  0.471018  0.394722  0.791181  1
  F  F17  1  0.996566  0.610346  0.205724  1
