# generated using pymatgen
data_Cs2ErTi6CBr18
_symmetry_space_group_name_H-M   'P 1'
_cell_length_a   10.86664382
_cell_length_b   10.86664381
_cell_length_c   10.86664342
_cell_angle_alpha   55.47899705
_cell_angle_beta   55.47898861
_cell_angle_gamma   55.47899142
_symmetry_Int_Tables_number   1
_chemical_formula_structural   Cs2ErTi6CBr18
_chemical_formula_sum   'Cs2 Er1 Ti6 C1 Br18'
_cell_volume   812.09050357
_cell_formula_units_Z   1
loop_
 _symmetry_equiv_pos_site_id
 _symmetry_equiv_pos_as_xyz
  1  'x, y, z'
loop_
 _atom_site_type_symbol
 _atom_site_label
 _atom_site_symmetry_multiplicity
 _atom_site_fract_x
 _atom_site_fract_y
 _atom_site_fract_z
 _atom_site_occupancy
  Cs  Cs0  1  0.775313  0.775313  0.775313  1
  Cs  Cs1  1  0.224687  0.224687  0.224687  1
  Er  Er2  1  0.500000  0.500000  0.500000  1
  Ti  Ti3  1  0.146241  0.910173  0.809537  1
  Ti  Ti4  1  0.853759  0.089827  0.190463  1
  Ti  Ti5  1  0.089827  0.190463  0.853759  1
  Ti  Ti6  1  0.190463  0.853759  0.089827  1
  Ti  Ti7  1  0.910173  0.809537  0.146241  1
  Ti  Ti8  1  0.809537  0.146241  0.910173  1
  C  C9  1  0.000000  0.000000  0.000000  1
  Br  Br10  1  0.203733  0.463407  0.656206  1
  Br  Br11  1  0.796267  0.536593  0.343794  1
  Br  Br12  1  0.331896  0.053500  0.933469  1
  Br  Br13  1  0.668104  0.946500  0.066531  1
  Br  Br14  1  0.933469  0.331896  0.053500  1
  Br  Br15  1  0.720499  0.881150  0.397197  1
  Br  Br16  1  0.343794  0.796267  0.536593  1
  Br  Br17  1  0.602803  0.279501  0.118850  1
  Br  Br18  1  0.279501  0.118850  0.602803  1
  Br  Br19  1  0.118850  0.602803  0.279501  1
  Br  Br20  1  0.946500  0.066531  0.668104  1
  Br  Br21  1  0.397197  0.720499  0.881150  1
  Br  Br22  1  0.881150  0.397197  0.720499  1
  Br  Br23  1  0.066531  0.668104  0.946500  1
  Br  Br24  1  0.463407  0.656206  0.203733  1
  Br  Br25  1  0.656206  0.203733  0.463407  1
  Br  Br26  1  0.536593  0.343794  0.796267  1
  Br  Br27  1  0.053500  0.933469  0.331896  1
