# generated using pymatgen
data_Th10CdSn2Sb5
_symmetry_space_group_name_H-M   'P 1'
_cell_length_a   9.63732997
_cell_length_b   9.63082177
_cell_length_c   6.55302241
_cell_angle_alpha   89.94161059
_cell_angle_beta   90.11670003
_cell_angle_gamma   120.02235331
_symmetry_Int_Tables_number   1
_chemical_formula_structural   Th10CdSn2Sb5
_chemical_formula_sum   'Th10 Cd1 Sn2 Sb5'
_cell_volume   526.61544436
_cell_formula_units_Z   1
loop_
 _symmetry_equiv_pos_site_id
 _symmetry_equiv_pos_as_xyz
  1  'x, y, z'
loop_
 _atom_site_type_symbol
 _atom_site_label
 _atom_site_symmetry_multiplicity
 _atom_site_fract_x
 _atom_site_fract_y
 _atom_site_fract_z
 _atom_site_occupancy
  Th  Th0  1  0.000469  0.718285  0.748465  1
  Th  Th1  1  0.282184  0.281715  0.748465  1
  Th  Th2  1  0.333050  0.667008  0.499196  1
  Th  Th3  1  0.666043  0.332992  0.499196  1
  Th  Th4  1  0.716926  0.717454  0.251193  1
  Th  Th5  1  0.717916  0.000000  0.748740  1
  Th  Th6  1  0.999472  0.282546  0.251193  1
  Th  Th7  1  0.284229  0.000000  0.251780  1
  Th  Th8  1  0.333265  0.666881  0.000323  1
  Th  Th9  1  0.666385  0.333119  0.000323  1
  Cd  Cd10  1  0.000978  0.000000  0.001896  1
  Sn  Sn11  1  0.376418  0.376836  0.246771  1
  Sn  Sn12  1  0.999582  0.623164  0.246771  1
  Sb  Sb13  1  0.621859  0.621158  0.753020  1
  Sb  Sb14  1  0.000702  0.378842  0.753020  1
  Sb  Sb15  1  0.378627  0.000000  0.753276  1
  Sb  Sb16  1  0.621707  0.000000  0.246849  1
  Sb  Sb17  1  0.000188  0.000000  0.499522  1
