# generated using pymatgen
data_Na4NdUSe6
_symmetry_space_group_name_H-M   'P 1'
_cell_length_a   7.34846251
_cell_length_b   7.34846340
_cell_length_c   7.38812963
_cell_angle_alpha   80.35414108
_cell_angle_beta   80.35413808
_cell_angle_gamma   120.00173033
_symmetry_Int_Tables_number   1
_chemical_formula_structural   Na4NdUSe6
_chemical_formula_sum   'Na4 Nd1 U1 Se6'
_cell_volume   325.52295655
_cell_formula_units_Z   1
loop_
 _symmetry_equiv_pos_site_id
 _symmetry_equiv_pos_as_xyz
  1  'x, y, z'
loop_
 _atom_site_type_symbol
 _atom_site_label
 _atom_site_symmetry_multiplicity
 _atom_site_fract_x
 _atom_site_fract_y
 _atom_site_fract_z
 _atom_site_occupancy
  Na  Na0  1  0.999985  0.000015  0.000000  1
  Na  Na1  1  0.499397  0.500603  0.500000  1
  Na  Na2  1  0.839500  0.160500  0.500000  1
  Na  Na3  1  0.160758  0.839242  0.500000  1
  Nd  Nd4  1  0.667080  0.332920  0.000000  1
  U  U5  1  0.332764  0.667236  0.000000  1
  Se  Se6  1  0.267471  0.285114  0.232142  1
  Se  Se7  1  0.422691  0.059322  0.768444  1
  Se  Se8  1  0.096143  0.441352  0.771447  1
  Se  Se9  1  0.714886  0.732529  0.767858  1
  Se  Se10  1  0.558648  0.903857  0.228553  1
  Se  Se11  1  0.940678  0.577309  0.231556  1
