# generated using pymatgen
data_Ti6BeBi2
_symmetry_space_group_name_H-M   'P 1'
_cell_length_a   7.25124900
_cell_length_b   7.25125025
_cell_length_c   3.63976300
_cell_angle_alpha   90.00000000
_cell_angle_beta   90.00000000
_cell_angle_gamma   119.99999885
_symmetry_Int_Tables_number   1
_chemical_formula_structural   Ti6BeBi2
_chemical_formula_sum   'Ti6 Be1 Bi2'
_cell_volume   165.74080914
_cell_formula_units_Z   1
loop_
 _symmetry_equiv_pos_site_id
 _symmetry_equiv_pos_as_xyz
  1  'x, y, z'
loop_
 _atom_site_type_symbol
 _atom_site_label
 _atom_site_symmetry_multiplicity
 _atom_site_fract_x
 _atom_site_fract_y
 _atom_site_fract_z
 _atom_site_occupancy
  Ti  Ti0  1  0.367618  0.000000  0.000000  1
  Ti  Ti1  1  0.000000  0.367618  0.000000  1
  Ti  Ti2  1  0.632382  0.632382  0.000000  1
  Ti  Ti3  1  0.778341  0.000000  0.500000  1
  Ti  Ti4  1  0.221659  0.221659  0.500000  1
  Ti  Ti5  1  0.000000  0.778341  0.500000  1
  Be  Be6  1  0.000000  0.000000  0.000000  1
  Bi  Bi7  1  0.666667  0.333334  0.500000  1
  Bi  Bi8  1  0.333333  0.666666  0.500000  1
