# generated using pymatgen
data_Pr9Lu(Ga2Sn)2
_symmetry_space_group_name_H-M   'P 1'
_cell_length_a   8.04276000
_cell_length_b   8.04276000
_cell_length_c   14.75818400
_cell_angle_alpha   90.00000000
_cell_angle_beta   90.00000000
_cell_angle_gamma   90.00000000
_symmetry_Int_Tables_number   1
_chemical_formula_structural   Pr9Lu(Ga2Sn)2
_chemical_formula_sum   'Pr18 Lu2 Ga8 Sn4'
_cell_volume   954.64771929
_cell_formula_units_Z   2
loop_
 _symmetry_equiv_pos_site_id
 _symmetry_equiv_pos_as_xyz
  1  'x, y, z'
loop_
 _atom_site_type_symbol
 _atom_site_label
 _atom_site_symmetry_multiplicity
 _atom_site_fract_x
 _atom_site_fract_y
 _atom_site_fract_z
 _atom_site_occupancy
  Pr  Pr0  1  0.825006  0.839033  0.606273  1
  Pr  Pr1  1  0.174994  0.839033  0.106273  1
  Pr  Pr2  1  0.159353  0.824057  0.392956  1
  Pr  Pr3  1  0.840647  0.175943  0.392956  1
  Pr  Pr4  1  0.675943  0.659353  0.392956  1
  Pr  Pr5  1  0.660967  0.325006  0.606273  1
  Pr  Pr6  1  0.339033  0.674994  0.606273  1
  Pr  Pr7  1  0.660967  0.674994  0.106273  1
  Pr  Pr8  1  0.675943  0.340647  0.892956  1
  Pr  Pr9  1  0.840647  0.824057  0.892956  1
  Pr  Pr10  1  0.324057  0.340647  0.392956  1
  Pr  Pr11  1  0.174994  0.160967  0.606273  1
  Pr  Pr12  1  0.825006  0.160967  0.106273  1
  Pr  Pr13  1  0.324057  0.659353  0.892956  1
  Pr  Pr14  1  0.339033  0.325006  0.106273  1
  Pr  Pr15  1  0.500000  0.000000  0.273756  1
  Pr  Pr16  1  0.159353  0.175943  0.892956  1
  Pr  Pr17  1  0.500000  0.000000  0.773756  1
  Lu  Lu18  1  0.000000  0.500000  0.733245  1
  Lu  Lu19  1  0.000000  0.500000  0.233245  1
  Ga  Ga20  1  0.629411  0.379250  0.248025  1
  Ga  Ga21  1  0.120750  0.870589  0.748025  1
  Ga  Ga22  1  0.370589  0.379250  0.748025  1
  Ga  Ga23  1  0.370589  0.620750  0.248025  1
  Ga  Ga24  1  0.879250  0.870589  0.248025  1
  Ga  Ga25  1  0.629411  0.620750  0.748025  1
  Ga  Ga26  1  0.879250  0.129411  0.748025  1
  Ga  Ga27  1  0.120750  0.129411  0.248025  1
  Sn  Sn28  1  0.000000  0.500000  0.508569  1
  Sn  Sn29  1  0.500000  0.000000  0.495411  1
  Sn  Sn30  1  0.500000  0.000000  0.995411  1
  Sn  Sn31  1  0.000000  0.500000  0.008569  1
