# generated using pymatgen
data_Mg4In4BIr4
_symmetry_space_group_name_H-M   'P 1'
_cell_length_a   8.76361044
_cell_length_b   8.76041036
_cell_length_c   8.73000435
_cell_angle_alpha   60.28028503
_cell_angle_beta   60.18278944
_cell_angle_gamma   60.09196928
_symmetry_Int_Tables_number   1
_chemical_formula_structural   Mg4In4BIr4
_chemical_formula_sum   'Mg8 In8 B2 Ir8'
_cell_volume   475.90520886
_cell_formula_units_Z   2
loop_
 _symmetry_equiv_pos_site_id
 _symmetry_equiv_pos_as_xyz
  1  'x, y, z'
loop_
 _atom_site_type_symbol
 _atom_site_label
 _atom_site_symmetry_multiplicity
 _atom_site_fract_x
 _atom_site_fract_y
 _atom_site_fract_z
 _atom_site_occupancy
  Mg  Mg0  1  0.128177  0.121932  0.624904  1
  Mg  Mg1  1  0.544707  0.952600  0.547479  1
  Mg  Mg2  1  0.127283  0.623652  0.121691  1
  Mg  Mg3  1  0.545986  0.548498  0.949872  1
  Mg  Mg4  1  0.955872  0.546270  0.952608  1
  Mg  Mg5  1  0.125472  0.126806  0.124026  1
  Mg  Mg6  1  0.622344  0.125858  0.126054  1
  Mg  Mg7  1  0.298519  0.703788  0.705726  1
  In  In8  1  0.956786  0.947667  0.549452  1
  In  In9  1  0.303063  0.700164  0.293874  1
  In  In10  1  0.697767  0.305944  0.704172  1
  In  In11  1  0.294885  0.299127  0.704216  1
  In  In12  1  0.705526  0.298648  0.287575  1
  In  In13  1  0.702007  0.705029  0.298919  1
  In  In14  1  0.943810  0.553792  0.555752  1
  In  In15  1  0.555478  0.942462  0.945176  1
  B  B16  1  0.248051  0.249644  0.251337  1
  B  B17  1  0.001804  0.000136  0.999129  1
  Ir  Ir18  1  0.901831  0.901166  0.903733  1
  Ir  Ir19  1  0.900951  0.293431  0.903700  1
  Ir  Ir20  1  0.294279  0.901238  0.901798  1
  Ir  Ir21  1  0.346956  0.348000  0.957398  1
  Ir  Ir22  1  0.953160  0.348839  0.349592  1
  Ir  Ir23  1  0.901010  0.902349  0.294039  1
  Ir  Ir24  1  0.346843  0.955396  0.348870  1
  Ir  Ir25  1  0.347433  0.347562  0.348910  1
