# generated using pymatgen
data_Rb7Nb(SO4)6
_symmetry_space_group_name_H-M   'P 1'
_cell_length_a   9.78555768
_cell_length_b   9.78555832
_cell_length_c   9.78555862
_cell_angle_alpha   109.71074114
_cell_angle_beta   109.71074364
_cell_angle_gamma   109.71075743
_symmetry_Int_Tables_number   1
_chemical_formula_structural   Rb7Nb(SO4)6
_chemical_formula_sum   'Rb7 Nb1 S6 O24'
_cell_volume   714.86306124
_cell_formula_units_Z   1
loop_
 _symmetry_equiv_pos_site_id
 _symmetry_equiv_pos_as_xyz
  1  'x, y, z'
loop_
 _atom_site_type_symbol
 _atom_site_label
 _atom_site_symmetry_multiplicity
 _atom_site_fract_x
 _atom_site_fract_y
 _atom_site_fract_z
 _atom_site_occupancy
  Rb  Rb0  1  0.500000  0.500000  0.500000  1
  Rb  Rb1  1  0.836460  0.335009  0.677954  1
  Rb  Rb2  1  0.335009  0.677954  0.836460  1
  Rb  Rb3  1  0.677954  0.836460  0.335009  1
  Rb  Rb4  1  0.163540  0.664991  0.322046  1
  Rb  Rb5  1  0.664991  0.322046  0.163540  1
  Rb  Rb6  1  0.322046  0.163540  0.664991  1
  Nb  Nb7  1  0.000000  0.000000  0.000000  1
  S  S8  1  0.969062  0.749665  0.625755  1
  S  S9  1  0.749665  0.625755  0.969062  1
  S  S10  1  0.625755  0.969062  0.749665  1
  S  S11  1  0.030938  0.250335  0.374245  1
  S  S12  1  0.250335  0.374245  0.030938  1
  S  S13  1  0.374245  0.030938  0.250335  1
  O  O14  1  0.414664  0.910832  0.161274  1
  O  O15  1  0.910832  0.161274  0.414664  1
  O  O16  1  0.161274  0.414664  0.910832  1
  O  O17  1  0.585336  0.089168  0.838726  1
  O  O18  1  0.089168  0.838726  0.585336  1
  O  O19  1  0.838726  0.585336  0.089168  1
  O  O20  1  0.311862  0.987036  0.355155  1
  O  O21  1  0.987036  0.355155  0.311862  1
  O  O22  1  0.355155  0.311862  0.987036  1
  O  O23  1  0.688138  0.012964  0.644845  1
  O  O24  1  0.012964  0.644845  0.688138  1
  O  O25  1  0.644845  0.688138  0.012964  1
  O  O26  1  0.773602  0.978265  0.890599  1
  O  O27  1  0.978265  0.890599  0.773602  1
  O  O28  1  0.654726  0.484778  0.793405  1
  O  O29  1  0.793405  0.654726  0.484778  1
  O  O30  1  0.484778  0.793405  0.654726  1
  O  O31  1  0.345274  0.515222  0.206595  1
  O  O32  1  0.206595  0.345274  0.515222  1
  O  O33  1  0.515222  0.206595  0.345274  1
  O  O34  1  0.109401  0.226398  0.021735  1
  O  O35  1  0.021735  0.109401  0.226398  1
  O  O36  1  0.226398  0.021735  0.109401  1
  O  O37  1  0.890599  0.773602  0.978265  1
