# generated using pymatgen
data_ThVO4F
_symmetry_space_group_name_H-M   'P 1'
_cell_length_a   8.98760400
_cell_length_b   7.33874600
_cell_length_c   6.78564800
_cell_angle_alpha   90.00000000
_cell_angle_beta   90.00000000
_cell_angle_gamma   90.00000000
_symmetry_Int_Tables_number   1
_chemical_formula_structural   ThVO4F
_chemical_formula_sum   'Th4 V4 O16 F4'
_cell_volume   447.56602623
_cell_formula_units_Z   4
loop_
 _symmetry_equiv_pos_site_id
 _symmetry_equiv_pos_as_xyz
  1  'x, y, z'
loop_
 _atom_site_type_symbol
 _atom_site_label
 _atom_site_symmetry_multiplicity
 _atom_site_fract_x
 _atom_site_fract_y
 _atom_site_fract_z
 _atom_site_occupancy
  Th  Th0  1  0.463332  0.750000  0.139727  1
  Th  Th1  1  0.963333  0.750000  0.360272  1
  Th  Th2  1  0.036668  0.250000  0.639727  1
  Th  Th3  1  0.536667  0.250000  0.860273  1
  V  V4  1  0.897152  0.250000  0.179818  1
  V  V5  1  0.397151  0.250000  0.320181  1
  V  V6  1  0.602848  0.750000  0.679819  1
  V  V7  1  0.102848  0.750000  0.820182  1
  O  O8  1  0.987883  0.750000  0.020929  1
  O  O9  1  0.716321  0.250000  0.104330  1
  O  O10  1  0.433134  0.066885  0.158759  1
  O  O11  1  0.433134  0.433115  0.158759  1
  O  O12  1  0.933135  0.066885  0.341241  1
  O  O13  1  0.933135  0.433115  0.341241  1
  O  O14  1  0.216321  0.250000  0.395668  1
  O  O15  1  0.487883  0.750000  0.479071  1
  O  O16  1  0.512118  0.250000  0.520928  1
  O  O17  1  0.783680  0.750000  0.604331  1
  O  O18  1  0.066865  0.566885  0.658757  1
  O  O19  1  0.066865  0.933116  0.658757  1
  O  O20  1  0.566865  0.566885  0.841241  1
  O  O21  1  0.566865  0.933116  0.841241  1
  O  O22  1  0.283679  0.750000  0.895669  1
  O  O23  1  0.012117  0.250000  0.979072  1
  F  F24  1  0.718737  0.750000  0.204287  1
  F  F25  1  0.218738  0.750000  0.295713  1
  F  F26  1  0.781262  0.250000  0.704287  1
  F  F27  1  0.281263  0.250000  0.795714  1
