# generated using pymatgen
data_LuScMnB6
_symmetry_space_group_name_H-M   'P 1'
_cell_length_a   3.41293400
_cell_length_b   8.90525900
_cell_length_c   11.23427000
_cell_angle_alpha   90.00000000
_cell_angle_beta   90.00000000
_cell_angle_gamma   90.00000000
_symmetry_Int_Tables_number   1
_chemical_formula_structural   LuScMnB6
_chemical_formula_sum   'Lu4 Sc4 Mn4 B24'
_cell_volume   341.44385587
_cell_formula_units_Z   4
loop_
 _symmetry_equiv_pos_site_id
 _symmetry_equiv_pos_as_xyz
  1  'x, y, z'
loop_
 _atom_site_type_symbol
 _atom_site_label
 _atom_site_symmetry_multiplicity
 _atom_site_fract_x
 _atom_site_fract_y
 _atom_site_fract_z
 _atom_site_occupancy
  Lu  Lu0  1  0.500000  0.322348  0.414730  1
  Lu  Lu1  1  0.500000  0.677652  0.585270  1
  Lu  Lu2  1  0.500000  0.177652  0.914730  1
  Lu  Lu3  1  0.500000  0.822348  0.085270  1
  Sc  Sc4  1  0.500000  0.443386  0.130549  1
  Sc  Sc5  1  0.500000  0.556614  0.869451  1
  Sc  Sc6  1  0.500000  0.056614  0.630549  1
  Sc  Sc7  1  0.500000  0.943386  0.369451  1
  Mn  Mn8  1  0.500000  0.140934  0.181404  1
  Mn  Mn9  1  0.500000  0.859066  0.818596  1
  Mn  Mn10  1  0.500000  0.359066  0.681404  1
  Mn  Mn11  1  0.500000  0.640934  0.318596  1
  B  B12  1  0.000000  0.098305  0.473310  1
  B  B13  1  0.000000  0.901695  0.526690  1
  B  B14  1  0.000000  0.401695  0.973310  1
  B  B15  1  0.000000  0.598305  0.026690  1
  B  B16  1  0.000000  0.130055  0.316161  1
  B  B17  1  0.000000  0.869945  0.683839  1
  B  B18  1  0.000000  0.369945  0.816161  1
  B  B19  1  0.000000  0.630055  0.183839  1
  B  B20  1  0.000000  0.054587  0.067455  1
  B  B21  1  0.000000  0.945413  0.932545  1
  B  B22  1  0.000000  0.445413  0.567455  1
  B  B23  1  0.000000  0.554587  0.432545  1
  B  B24  1  0.000000  0.482740  0.287287  1
  B  B25  1  0.000000  0.517260  0.712713  1
  B  B26  1  0.000000  0.017260  0.787287  1
  B  B27  1  0.000000  0.982740  0.212713  1
  B  B28  1  0.000000  0.251345  0.082014  1
  B  B29  1  0.000000  0.748655  0.917986  1
  B  B30  1  0.000000  0.248655  0.582014  1
  B  B31  1  0.000000  0.751345  0.417986  1
  B  B32  1  0.000000  0.293341  0.235596  1
  B  B33  1  0.000000  0.706659  0.764404  1
  B  B34  1  0.000000  0.206659  0.735596  1
  B  B35  1  0.000000  0.793341  0.264404  1
