# generated using pymatgen
data_Tm20IrPtRh10
_symmetry_space_group_name_H-M   'P 1'
_cell_length_a   10.78703195
_cell_length_b   10.78552009
_cell_length_c   6.29577618
_cell_angle_alpha   89.99308360
_cell_angle_beta   90.00922528
_cell_angle_gamma   90.29232696
_symmetry_Int_Tables_number   1
_chemical_formula_structural   Tm20IrPtRh10
_chemical_formula_sum   'Tm20 Ir1 Pt1 Rh10'
_cell_volume   732.46465985
_cell_formula_units_Z   1
loop_
 _symmetry_equiv_pos_site_id
 _symmetry_equiv_pos_as_xyz
  1  'x, y, z'
loop_
 _atom_site_type_symbol
 _atom_site_label
 _atom_site_symmetry_multiplicity
 _atom_site_fract_x
 _atom_site_fract_y
 _atom_site_fract_z
 _atom_site_occupancy
  Tm  Tm0  1  0.290964  0.085842  0.377906  1
  Tm  Tm1  1  0.291421  0.909836  0.878340  1
  Tm  Tm2  1  0.708584  0.087936  0.877355  1
  Tm  Tm3  1  0.708525  0.911519  0.376364  1
  Tm  Tm4  1  0.586424  0.791333  0.876764  1
  Tm  Tm5  1  0.589671  0.207589  0.378779  1
  Tm  Tm6  1  0.411054  0.790339  0.377618  1
  Tm  Tm7  1  0.412837  0.206772  0.874406  1
  Tm  Tm8  1  0.207777  0.415134  0.625389  1
  Tm  Tm9  1  0.208297  0.590007  0.120905  1
  Tm  Tm10  1  0.791033  0.411278  0.123291  1
  Tm  Tm11  1  0.792342  0.588892  0.623748  1
  Tm  Tm12  1  0.911998  0.708865  0.122960  1
  Tm  Tm13  1  0.911847  0.291369  0.622289  1
  Tm  Tm14  1  0.090033  0.708499  0.622318  1
  Tm  Tm15  1  0.086264  0.291402  0.122865  1
  Tm  Tm16  1  0.999252  0.999761  0.500078  1
  Tm  Tm17  1  0.999700  0.999942  0.999459  1
  Tm  Tm18  1  0.501461  0.501240  0.999727  1
  Tm  Tm19  1  0.501761  0.501322  0.500288  1
  Ir  Ir20  1  0.346178  0.653873  0.750038  1
  Pt  Pt21  1  0.345720  0.344500  0.250204  1
  Rh  Rh22  1  0.845484  0.154136  0.249819  1
  Rh  Rh23  1  0.844827  0.845853  0.750170  1
  Rh  Rh24  1  0.154705  0.155555  0.749488  1
  Rh  Rh25  1  0.153287  0.846415  0.249939  1
  Rh  Rh26  1  0.654183  0.345969  0.749725  1
  Rh  Rh27  1  0.655976  0.654552  0.249866  1
  Rh  Rh28  1  0.500044  0.000209  0.124097  1
  Rh  Rh29  1  0.499809  0.000279  0.622161  1
  Rh  Rh30  1  0.999298  0.499748  0.877758  1
  Rh  Rh31  1  0.999245  0.500036  0.375886  1
