# generated using pymatgen
data_Ce5AlCuBi2
_symmetry_space_group_name_H-M   'P 1'
_cell_length_a   6.50321602
_cell_length_b   9.53476354
_cell_length_c   9.56905603
_cell_angle_alpha   120.11309091
_cell_angle_beta   89.99310615
_cell_angle_gamma   89.99972429
_symmetry_Int_Tables_number   1
_chemical_formula_structural   Ce5AlCuBi2
_chemical_formula_sum   'Ce10 Al2 Cu2 Bi4'
_cell_volume   513.26516594
_cell_formula_units_Z   2
loop_
 _symmetry_equiv_pos_site_id
 _symmetry_equiv_pos_as_xyz
  1  'x, y, z'
loop_
 _atom_site_type_symbol
 _atom_site_label
 _atom_site_symmetry_multiplicity
 _atom_site_fract_x
 _atom_site_fract_y
 _atom_site_fract_z
 _atom_site_occupancy
  Ce  Ce0  1  0.506171  0.338420  0.667031  1
  Ce  Ce1  1  0.506227  0.661678  0.328548  1
  Ce  Ce2  1  0.993906  0.661693  0.328573  1
  Ce  Ce3  1  0.993840  0.338394  0.667000  1
  Ce  Ce4  1  0.750049  0.270733  0.008600  1
  Ce  Ce5  1  0.750076  0.729161  0.737970  1
  Ce  Ce6  1  0.750040  0.999961  0.259579  1
  Ce  Ce7  1  0.249927  0.737010  0.999401  1
  Ce  Ce8  1  0.249951  0.262985  0.262535  1
  Ce  Ce9  1  0.249927  0.000060  0.740442  1
  Al  Al10  1  0.750052  0.616768  0.000149  1
  Al  Al11  1  0.750050  0.383068  0.383328  1
  Cu  Cu12  1  0.503938  0.000005  0.000204  1
  Cu  Cu13  1  0.995952  0.000006  0.000228  1
  Bi  Bi14  1  0.750009  0.999969  0.619618  1
  Bi  Bi15  1  0.249963  0.383913  0.998575  1
  Bi  Bi16  1  0.249953  0.616118  0.614657  1
  Bi  Bi17  1  0.249972  0.000058  0.383562  1
