# generated using pymatgen
data_PaTa2(Ni10B3)2
_symmetry_space_group_name_H-M   'P 1'
_cell_length_a   7.54361146
_cell_length_b   7.54361242
_cell_length_c   7.54361200
_cell_angle_alpha   60.00000186
_cell_angle_beta   59.99999761
_cell_angle_gamma   60.00000266
_symmetry_Int_Tables_number   1
_chemical_formula_structural   PaTa2(Ni10B3)2
_chemical_formula_sum   'Pa1 Ta2 Ni20 B6'
_cell_volume   303.54496283
_cell_formula_units_Z   1
loop_
 _symmetry_equiv_pos_site_id
 _symmetry_equiv_pos_as_xyz
  1  'x, y, z'
loop_
 _atom_site_type_symbol
 _atom_site_label
 _atom_site_symmetry_multiplicity
 _atom_site_fract_x
 _atom_site_fract_y
 _atom_site_fract_z
 _atom_site_occupancy
  Pa  Pa0  1  0.750000  0.750000  0.750000  1
  Ta  Ta1  1  0.000000  0.000000  0.000000  1
  Ta  Ta2  1  0.250000  0.250000  0.250000  1
  Ni  Ni3  1  0.611514  0.611514  0.165458  1
  Ni  Ni4  1  0.611514  0.165458  0.611514  1
  Ni  Ni5  1  0.165458  0.611514  0.611514  1
  Ni  Ni6  1  0.611514  0.611514  0.611514  1
  Ni  Ni7  1  0.382827  0.382827  0.851520  1
  Ni  Ni8  1  0.382827  0.851520  0.382827  1
  Ni  Ni9  1  0.851520  0.382827  0.382827  1
  Ni  Ni10  1  0.382827  0.382827  0.382827  1
  Ni  Ni11  1  0.002232  0.002232  0.340908  1
  Ni  Ni12  1  0.654629  0.002232  0.340908  1
  Ni  Ni13  1  0.002232  0.654629  0.340908  1
  Ni  Ni14  1  0.654629  0.340908  0.002232  1
  Ni  Ni15  1  0.002232  0.340908  0.002232  1
  Ni  Ni16  1  0.002232  0.340908  0.654629  1
  Ni  Ni17  1  0.340908  0.654629  0.002232  1
  Ni  Ni18  1  0.340908  0.002232  0.654629  1
  Ni  Ni19  1  0.340908  0.002232  0.002232  1
  Ni  Ni20  1  0.002232  0.002232  0.654629  1
  Ni  Ni21  1  0.002232  0.654629  0.002232  1
  Ni  Ni22  1  0.654629  0.002232  0.002232  1
  B  B23  1  0.734436  0.734436  0.265564  1
  B  B24  1  0.265564  0.734436  0.265564  1
  B  B25  1  0.734436  0.265564  0.265564  1
  B  B26  1  0.265564  0.265564  0.734436  1
  B  B27  1  0.734436  0.265564  0.734436  1
  B  B28  1  0.265564  0.734436  0.734436  1
