# generated using pymatgen
data_SrLa2Al3Ga2
_symmetry_space_group_name_H-M   'P 1'
_cell_length_a   5.59434400
_cell_length_b   5.59434398
_cell_length_c   14.48319400
_cell_angle_alpha   90.00000000
_cell_angle_beta   90.00000000
_cell_angle_gamma   120.00000011
_symmetry_Int_Tables_number   1
_chemical_formula_structural   SrLa2Al3Ga2
_chemical_formula_sum   'Sr2 La4 Al6 Ga4'
_cell_volume   392.54849227
_cell_formula_units_Z   2
loop_
 _symmetry_equiv_pos_site_id
 _symmetry_equiv_pos_as_xyz
  1  'x, y, z'
loop_
 _atom_site_type_symbol
 _atom_site_label
 _atom_site_symmetry_multiplicity
 _atom_site_fract_x
 _atom_site_fract_y
 _atom_site_fract_z
 _atom_site_occupancy
  Sr  Sr0  1  0.000000  0.000000  0.000000  1
  Sr  Sr1  1  0.000000  0.000000  0.500000  1
  La  La2  1  0.333333  0.666667  0.878289  1
  La  La3  1  0.666667  0.333333  0.378289  1
  La  La4  1  0.666667  0.333333  0.121711  1
  La  La5  1  0.333333  0.666667  0.621711  1
  Al  Al6  1  0.837626  0.675252  0.750000  1
  Al  Al7  1  0.675252  0.837626  0.250000  1
  Al  Al8  1  0.837626  0.162374  0.750000  1
  Al  Al9  1  0.162374  0.837626  0.250000  1
  Al  Al10  1  0.324748  0.162374  0.750000  1
  Al  Al11  1  0.162374  0.324748  0.250000  1
  Ga  Ga12  1  0.666667  0.333333  0.903001  1
  Ga  Ga13  1  0.333333  0.666667  0.096999  1
  Ga  Ga14  1  0.333333  0.666667  0.403001  1
  Ga  Ga15  1  0.666667  0.333333  0.596999  1
