# generated using pymatgen
data_Pr4Ga13Pt9
_symmetry_space_group_name_H-M   'P 1'
_cell_length_a   11.69335200
_cell_length_b   11.68728350
_cell_length_c   4.20161800
_cell_angle_alpha   90.00000000
_cell_angle_beta   90.00000000
_cell_angle_gamma   119.99599364
_symmetry_Int_Tables_number   1
_chemical_formula_structural   Pr4Ga13Pt9
_chemical_formula_sum   'Pr4 Ga13 Pt9'
_cell_volume   497.29870720
_cell_formula_units_Z   1
loop_
 _symmetry_equiv_pos_site_id
 _symmetry_equiv_pos_as_xyz
  1  'x, y, z'
loop_
 _atom_site_type_symbol
 _atom_site_label
 _atom_site_symmetry_multiplicity
 _atom_site_fract_x
 _atom_site_fract_y
 _atom_site_fract_z
 _atom_site_occupancy
  Pr  Pr0  1  0.203181  0.796744  0.500000  1
  Pr  Pr1  1  0.593616  0.796789  0.500000  1
  Pr  Pr2  1  0.203187  0.406406  0.500000  1
  Pr  Pr3  1  0.666582  0.333277  0.000000  1
  Ga  Ga4  1  0.950906  0.290462  0.000000  1
  Ga  Ga5  1  0.709518  0.660446  0.000000  1
  Ga  Ga6  1  0.950918  0.660439  0.000000  1
  Ga  Ga7  1  0.339412  0.048953  0.000000  1
  Ga  Ga8  1  0.163231  0.081639  0.500000  1
  Ga  Ga9  1  0.918468  0.836893  0.500000  1
  Ga  Ga10  1  0.709528  0.049047  0.000000  1
  Ga  Ga11  1  0.533070  0.066098  0.500000  1
  Ga  Ga12  1  0.918467  0.081639  0.500000  1
  Ga  Ga13  1  0.339480  0.290446  0.000000  1
  Ga  Ga14  1  0.533065  0.466974  0.500000  1
  Ga  Ga15  1  0.933890  0.466958  0.500000  1
  Ga  Ga16  1  0.333336  0.666654  0.000000  1
  Pt  Pt17  1  0.457802  0.542252  0.000000  1
  Pt  Pt18  1  0.836760  0.918378  0.000000  1
  Pt  Pt19  1  0.457805  0.915573  0.000000  1
  Pt  Pt20  1  0.081649  0.163327  0.000000  1
  Pt  Pt21  1  0.081607  0.918337  0.000000  1
  Pt  Pt22  1  0.792145  0.584331  0.500000  1
  Pt  Pt23  1  0.084522  0.542273  0.000000  1
  Pt  Pt24  1  0.792130  0.207825  0.500000  1
  Pt  Pt25  1  0.415725  0.207838  0.500000  1
