# generated using pymatgen
data_Tb5PrMn2(Co4P3)4
_symmetry_space_group_name_H-M   'P 1'
_cell_length_a   3.71664200
_cell_length_b   10.59383000
_cell_length_c   12.26802400
_cell_angle_alpha   90.00000000
_cell_angle_beta   90.00000000
_cell_angle_gamma   90.00000000
_symmetry_Int_Tables_number   1
_chemical_formula_structural   Tb5PrMn2(Co4P3)4
_chemical_formula_sum   'Tb5 Pr1 Mn2 Co16 P12'
_cell_volume   483.03471809
_cell_formula_units_Z   1
loop_
 _symmetry_equiv_pos_site_id
 _symmetry_equiv_pos_as_xyz
  1  'x, y, z'
loop_
 _atom_site_type_symbol
 _atom_site_label
 _atom_site_symmetry_multiplicity
 _atom_site_fract_x
 _atom_site_fract_y
 _atom_site_fract_z
 _atom_site_occupancy
  Tb  Tb0  1  0.000000  0.500000  0.522048  1
  Tb  Tb1  1  0.500000  0.818000  0.204180  1
  Tb  Tb2  1  0.500000  0.182000  0.204180  1
  Tb  Tb3  1  0.000000  0.681255  0.795232  1
  Tb  Tb4  1  0.000000  0.318745  0.795232  1
  Pr  Pr5  1  0.500000  0.000000  0.476978  1
  Mn  Mn6  1  0.500000  0.500000  0.158438  1
  Mn  Mn7  1  0.000000  0.000000  0.843657  1
  Co  Co8  1  0.500000  0.500000  0.703790  1
  Co  Co9  1  0.000000  0.000000  0.293933  1
  Co  Co10  1  0.000000  0.500000  0.986895  1
  Co  Co11  1  0.500000  0.000000  0.012683  1
  Co  Co12  1  0.500000  0.333337  0.994496  1
  Co  Co13  1  0.500000  0.666663  0.994496  1
  Co  Co14  1  0.000000  0.167050  0.005508  1
  Co  Co15  1  0.000000  0.832950  0.005508  1
  Co  Co16  1  0.500000  0.298945  0.429621  1
  Co  Co17  1  0.500000  0.701055  0.429621  1
  Co  Co18  1  0.000000  0.206841  0.570453  1
  Co  Co19  1  0.000000  0.793159  0.570453  1
  Co  Co20  1  0.500000  0.879285  0.711456  1
  Co  Co21  1  0.500000  0.120715  0.711456  1
  Co  Co22  1  0.000000  0.619291  0.289197  1
  Co  Co23  1  0.000000  0.380709  0.289197  1
  P  P24  1  0.500000  0.500000  0.883838  1
  P  P25  1  0.000000  0.000000  0.115161  1
  P  P26  1  0.500000  0.500000  0.343928  1
  P  P27  1  0.000000  0.000000  0.660296  1
  P  P28  1  0.500000  0.311229  0.616167  1
  P  P29  1  0.500000  0.688771  0.616167  1
  P  P30  1  0.000000  0.193535  0.382639  1
  P  P31  1  0.000000  0.806465  0.382639  1
  P  P32  1  0.500000  0.846710  0.893847  1
  P  P33  1  0.500000  0.153290  0.893847  1
  P  P34  1  0.000000  0.652648  0.106380  1
  P  P35  1  0.000000  0.347352  0.106380  1
