# generated using pymatgen
data_Ba4Si3PPd4
_symmetry_space_group_name_H-M   'P 1'
_cell_length_a   6.72157613
_cell_length_b   6.72157613
_cell_length_c   6.72157613
_cell_angle_alpha   88.93769234
_cell_angle_beta   88.93769234
_cell_angle_gamma   91.06230766
_symmetry_Int_Tables_number   1
_chemical_formula_structural   Ba4Si3PPd4
_chemical_formula_sum   'Ba4 Si3 P1 Pd4'
_cell_volume   303.51947751
_cell_formula_units_Z   1
loop_
 _symmetry_equiv_pos_site_id
 _symmetry_equiv_pos_as_xyz
  1  'x, y, z'
loop_
 _atom_site_type_symbol
 _atom_site_label
 _atom_site_symmetry_multiplicity
 _atom_site_fract_x
 _atom_site_fract_y
 _atom_site_fract_z
 _atom_site_occupancy
  Ba  Ba0  1  0.376446  0.876446  0.623554  1
  Ba  Ba1  1  0.868620  0.623469  0.369863  1
  Ba  Ba2  1  0.630137  0.368620  0.876531  1
  Ba  Ba3  1  0.123469  0.130137  0.131380  1
  Si  Si4  1  0.155703  0.344935  0.659786  1
  Si  Si5  1  0.340214  0.655703  0.155065  1
  Si  Si6  1  0.844935  0.840214  0.844297  1
  P  P7  1  0.662597  0.162597  0.337403  1
  Pd  Pd8  1  0.092603  0.592603  0.907397  1
  Pd  Pd9  1  0.596262  0.906699  0.097684  1
  Pd  Pd10  1  0.902316  0.096262  0.593301  1
  Pd  Pd11  1  0.406699  0.402316  0.403738  1
