# generated using pymatgen
data_NaSc(NbSe2)8
_symmetry_space_group_name_H-M   'P 1'
_cell_length_a   7.00387300
_cell_length_b   7.00387367
_cell_length_c   14.59079800
_cell_angle_alpha   90.00000000
_cell_angle_beta   90.00000000
_cell_angle_gamma   119.99999213
_symmetry_Int_Tables_number   1
_chemical_formula_structural   NaSc(NbSe2)8
_chemical_formula_sum   'Na1 Sc1 Nb8 Se16'
_cell_volume   619.84953160
_cell_formula_units_Z   1
loop_
 _symmetry_equiv_pos_site_id
 _symmetry_equiv_pos_as_xyz
  1  'x, y, z'
loop_
 _atom_site_type_symbol
 _atom_site_label
 _atom_site_symmetry_multiplicity
 _atom_site_fract_x
 _atom_site_fract_y
 _atom_site_fract_z
 _atom_site_occupancy
  Na  Na0  1  0.000000  0.000000  0.500000  1
  Sc  Sc1  1  0.000000  0.000000  0.000000  1
  Nb  Nb2  1  0.000000  0.000000  0.232031  1
  Nb  Nb3  1  0.000000  0.000000  0.767969  1
  Nb  Nb4  1  0.508173  0.491827  0.233022  1
  Nb  Nb5  1  0.508173  0.016344  0.233022  1
  Nb  Nb6  1  0.983656  0.491827  0.233022  1
  Nb  Nb7  1  0.491827  0.508173  0.766978  1
  Nb  Nb8  1  0.491827  0.983656  0.766978  1
  Nb  Nb9  1  0.016344  0.508173  0.766978  1
  Se  Se10  1  0.333333  0.666667  0.885864  1
  Se  Se11  1  0.666667  0.333333  0.114136  1
  Se  Se12  1  0.666667  0.333333  0.352236  1
  Se  Se13  1  0.333333  0.666667  0.647764  1
  Se  Se14  1  0.167662  0.832338  0.345503  1
  Se  Se15  1  0.167662  0.335325  0.345503  1
  Se  Se16  1  0.664675  0.832338  0.345503  1
  Se  Se17  1  0.832338  0.167662  0.654497  1
  Se  Se18  1  0.832338  0.664675  0.654497  1
  Se  Se19  1  0.335325  0.167662  0.654497  1
  Se  Se20  1  0.830639  0.169361  0.880997  1
  Se  Se21  1  0.830639  0.661278  0.880997  1
  Se  Se22  1  0.338722  0.169361  0.880997  1
  Se  Se23  1  0.169361  0.830639  0.119003  1
  Se  Se24  1  0.169361  0.338722  0.119003  1
  Se  Se25  1  0.661278  0.830639  0.119003  1
