# generated using pymatgen
data_DyEr11Tc3Pt
_symmetry_space_group_name_H-M   'P 1'
_cell_length_a   6.24248588
_cell_length_b   7.36572614
_cell_length_c   9.09502100
_cell_angle_alpha   90.00000000
_cell_angle_beta   90.00000000
_cell_angle_gamma   89.89220775
_symmetry_Int_Tables_number   1
_chemical_formula_structural   DyEr11Tc3Pt
_chemical_formula_sum   'Dy1 Er11 Tc3 Pt1'
_cell_volume   418.19234011
_cell_formula_units_Z   1
loop_
 _symmetry_equiv_pos_site_id
 _symmetry_equiv_pos_as_xyz
  1  'x, y, z'
loop_
 _atom_site_type_symbol
 _atom_site_label
 _atom_site_symmetry_multiplicity
 _atom_site_fract_x
 _atom_site_fract_y
 _atom_site_fract_z
 _atom_site_occupancy
  Dy  Dy0  1  0.128246  0.457181  0.750000  1
  Er  Er1  1  0.330402  0.676429  0.066921  1
  Er  Er2  1  0.163247  0.177304  0.436492  1
  Er  Er3  1  0.664778  0.317814  0.558385  1
  Er  Er4  1  0.838333  0.828242  0.940581  1
  Er  Er5  1  0.664778  0.317814  0.941615  1
  Er  Er6  1  0.838333  0.828242  0.559419  1
  Er  Er7  1  0.330402  0.676429  0.433079  1
  Er  Er8  1  0.163247  0.177304  0.063508  1
  Er  Er9  1  0.872988  0.541643  0.250000  1
  Er  Er10  1  0.621656  0.037315  0.250000  1
  Er  Er11  1  0.372042  0.963836  0.750000  1
  Tc  Tc12  1  0.038855  0.885390  0.250000  1
  Tc  Tc13  1  0.463353  0.385657  0.250000  1
  Tc  Tc14  1  0.959998  0.115327  0.750000  1
  Pt  Pt15  1  0.549341  0.614072  0.750000  1
