# generated using pymatgen
data_Se8I3Br
_symmetry_space_group_name_H-M   'P 1'
_cell_length_a   9.18846131
_cell_length_b   10.09151539
_cell_length_c   13.36220729
_cell_angle_alpha   104.04226331
_cell_angle_beta   111.74476943
_cell_angle_gamma   94.10586820
_symmetry_Int_Tables_number   1
_chemical_formula_structural   Se8I3Br
_chemical_formula_sum   'Se16 I6 Br2'
_cell_volume   1098.38609052
_cell_formula_units_Z   2
loop_
 _symmetry_equiv_pos_site_id
 _symmetry_equiv_pos_as_xyz
  1  'x, y, z'
loop_
 _atom_site_type_symbol
 _atom_site_label
 _atom_site_symmetry_multiplicity
 _atom_site_fract_x
 _atom_site_fract_y
 _atom_site_fract_z
 _atom_site_occupancy
  Se  Se0  1  0.882393  0.554733  0.818481  1
  Se  Se1  1  0.117607  0.445267  0.181519  1
  Se  Se2  1  0.733055  0.453007  0.624272  1
  Se  Se3  1  0.266945  0.546993  0.375728  1
  Se  Se4  1  0.747428  0.212278  0.582657  1
  Se  Se5  1  0.252572  0.787722  0.417343  1
  Se  Se6  1  0.926293  0.189584  0.497219  1
  Se  Se7  1  0.073707  0.810416  0.502781  1
  Se  Se8  1  0.874765  0.328771  0.162828  1
  Se  Se9  1  0.125235  0.671229  0.837172  1
  Se  Se10  1  0.682329  0.474641  0.116453  1
  Se  Se11  1  0.317671  0.525359  0.883547  1
  Se  Se12  1  0.653668  0.579273  0.280050  1
  Se  Se13  1  0.346332  0.420727  0.719950  1
  Se  Se14  1  0.805120  0.825016  0.365989  1
  Se  Se15  1  0.194880  0.174984  0.634011  1
  I  I16  1  0.477909  0.085662  0.841551  1
  I  I17  1  0.522091  0.914338  0.158449  1
  I  I18  1  0.861472  0.867472  0.177711  1
  I  I19  1  0.138528  0.132528  0.822289  1
  I  I20  1  0.724425  0.822836  0.541715  1
  I  I21  1  0.275575  0.177164  0.458285  1
  Br  Br22  1  0.761087  0.061784  0.839768  1
  Br  Br23  1  0.238913  0.938216  0.160232  1
