# generated using pymatgen
data_CeTaB6Ru
_symmetry_space_group_name_H-M   'P 1'
_cell_length_a   3.51859400
_cell_length_b   9.04668600
_cell_length_c   11.38124100
_cell_angle_alpha   90.00000000
_cell_angle_beta   90.00000000
_cell_angle_gamma   90.00000000
_symmetry_Int_Tables_number   1
_chemical_formula_structural   CeTaB6Ru
_chemical_formula_sum   'Ce4 Ta4 B24 Ru4'
_cell_volume   362.28328264
_cell_formula_units_Z   4
loop_
 _symmetry_equiv_pos_site_id
 _symmetry_equiv_pos_as_xyz
  1  'x, y, z'
loop_
 _atom_site_type_symbol
 _atom_site_label
 _atom_site_symmetry_multiplicity
 _atom_site_fract_x
 _atom_site_fract_y
 _atom_site_fract_z
 _atom_site_occupancy
  Ce  Ce0  1  0.000000  0.322773  0.413748  1
  Ce  Ce1  1  0.000000  0.677227  0.586252  1
  Ce  Ce2  1  0.000000  0.822773  0.086252  1
  Ce  Ce3  1  0.000000  0.177227  0.913748  1
  Ta  Ta4  1  0.000000  0.947025  0.375359  1
  Ta  Ta5  1  0.000000  0.052975  0.624641  1
  Ta  Ta6  1  0.000000  0.447025  0.124641  1
  Ta  Ta7  1  0.000000  0.552975  0.875359  1
  B  B8  1  0.500000  0.554999  0.433002  1
  B  B9  1  0.500000  0.445001  0.566998  1
  B  B10  1  0.500000  0.054999  0.066998  1
  B  B11  1  0.500000  0.945001  0.933002  1
  B  B12  1  0.500000  0.755506  0.418536  1
  B  B13  1  0.500000  0.244494  0.581464  1
  B  B14  1  0.500000  0.255506  0.081464  1
  B  B15  1  0.500000  0.744494  0.918536  1
  B  B16  1  0.500000  0.799077  0.264563  1
  B  B17  1  0.500000  0.200923  0.735437  1
  B  B18  1  0.500000  0.299077  0.235437  1
  B  B19  1  0.500000  0.700923  0.764563  1
  B  B20  1  0.500000  0.629196  0.180688  1
  B  B21  1  0.500000  0.370804  0.819312  1
  B  B22  1  0.500000  0.129196  0.319312  1
  B  B23  1  0.500000  0.870804  0.680688  1
  B  B24  1  0.500000  0.981214  0.215703  1
  B  B25  1  0.500000  0.018786  0.784297  1
  B  B26  1  0.500000  0.481214  0.284297  1
  B  B27  1  0.500000  0.518786  0.715703  1
  B  B28  1  0.500000  0.599249  0.026539  1
  B  B29  1  0.500000  0.400751  0.973461  1
  B  B30  1  0.500000  0.099249  0.473461  1
  B  B31  1  0.500000  0.900751  0.526539  1
  Ru  Ru32  1  0.000000  0.643656  0.317507  1
  Ru  Ru33  1  0.000000  0.356344  0.682493  1
  Ru  Ru34  1  0.000000  0.143656  0.182493  1
  Ru  Ru35  1  0.000000  0.856344  0.817507  1
