# generated using pymatgen
data_U4Tc6P6Ru
_symmetry_space_group_name_H-M   'P 1'
_cell_length_a   7.04038685
_cell_length_b   7.04038581
_cell_length_c   7.04038625
_cell_angle_alpha   109.34997673
_cell_angle_beta   109.71399960
_cell_angle_gamma   109.34995646
_symmetry_Int_Tables_number   1
_chemical_formula_structural   U4Tc6P6Ru
_chemical_formula_sum   'U4 Tc6 P6 Ru1'
_cell_volume   268.63446972
_cell_formula_units_Z   1
loop_
 _symmetry_equiv_pos_site_id
 _symmetry_equiv_pos_as_xyz
  1  'x, y, z'
loop_
 _atom_site_type_symbol
 _atom_site_label
 _atom_site_symmetry_multiplicity
 _atom_site_fract_x
 _atom_site_fract_y
 _atom_site_fract_z
 _atom_site_occupancy
  U  U0  1  0.998086  0.996173  0.498086  1
  U  U1  1  0.501914  0.003827  0.001914  1
  U  U2  1  0.998086  0.500000  0.001914  1
  U  U3  1  0.501914  0.500000  0.498086  1
  Tc  Tc4  1  0.750000  0.500000  0.250000  1
  Tc  Tc5  1  0.499272  0.749672  0.248944  1
  Tc  Tc6  1  0.499272  0.250328  0.749601  1
  Tc  Tc7  1  0.751056  0.250328  0.500728  1
  Tc  Tc8  1  0.250399  0.749672  0.500728  1
  Tc  Tc9  1  0.000000  0.000000  0.000000  1
  P  P10  1  0.310524  0.000000  0.310524  1
  P  P11  1  0.000823  0.309463  0.310285  1
  P  P12  1  0.000823  0.690537  0.691360  1
  P  P13  1  0.308640  0.309463  0.999177  1
  P  P14  1  0.689715  0.690537  0.999177  1
  P  P15  1  0.689476  0.000000  0.689476  1
  Ru  Ru16  1  0.250000  0.500000  0.750000  1
