# generated using pymatgen
data_Dy16Cd4Ir2RuRh
_symmetry_space_group_name_H-M   'P 1'
_cell_length_a   9.64255818
_cell_length_b   9.62768414
_cell_length_c   9.66506400
_cell_angle_alpha   59.87112191
_cell_angle_beta   59.92341130
_cell_angle_gamma   59.77618725
_symmetry_Int_Tables_number   1
_chemical_formula_structural   Dy16Cd4Ir2RuRh
_chemical_formula_sum   'Dy16 Cd4 Ir2 Ru1 Rh1'
_cell_volume   632.39703900
_cell_formula_units_Z   1
loop_
 _symmetry_equiv_pos_site_id
 _symmetry_equiv_pos_as_xyz
  1  'x, y, z'
loop_
 _atom_site_type_symbol
 _atom_site_label
 _atom_site_symmetry_multiplicity
 _atom_site_fract_x
 _atom_site_fract_y
 _atom_site_fract_z
 _atom_site_occupancy
  Dy  Dy0  1  0.561898  0.562468  0.937816  1
  Dy  Dy1  1  0.150439  0.545519  0.152020  1
  Dy  Dy2  1  0.690438  0.312409  0.310278  1
  Dy  Dy3  1  0.937188  0.561775  0.561903  1
  Dy  Dy4  1  0.937184  0.561777  0.939138  1
  Dy  Dy5  1  0.690512  0.687032  0.311230  1
  Dy  Dy6  1  0.562310  0.938281  0.936267  1
  Dy  Dy7  1  0.150020  0.151582  0.152061  1
  Dy  Dy8  1  0.311639  0.689395  0.309929  1
  Dy  Dy9  1  0.546808  0.150275  0.151457  1
  Dy  Dy10  1  0.310923  0.311013  0.689032  1
  Dy  Dy11  1  0.311641  0.689394  0.689034  1
  Dy  Dy12  1  0.150019  0.151582  0.546338  1
  Dy  Dy13  1  0.690439  0.312411  0.686875  1
  Dy  Dy14  1  0.935412  0.939138  0.562725  1
  Dy  Dy15  1  0.562310  0.938282  0.563142  1
  Cd  Cd16  1  0.919362  0.919593  0.918876  1
  Cd  Cd17  1  0.242525  0.919461  0.919006  1
  Cd  Cd18  1  0.919362  0.919595  0.242166  1
  Cd  Cd19  1  0.919156  0.242898  0.918972  1
  Ir  Ir20  1  0.359042  0.357045  0.924829  1
  Ir  Ir21  1  0.359041  0.357044  0.359085  1
  Ru  Ru22  1  0.924218  0.357384  0.359201  1
  Rh  Rh23  1  0.358117  0.924648  0.358615  1
