# generated using pymatgen
data_LaTb2Co7B2
_symmetry_space_group_name_H-M   'P 1'
_cell_length_a   5.15736113
_cell_length_b   5.15740121
_cell_length_c   14.03744500
_cell_angle_alpha   90.00000000
_cell_angle_beta   90.00000000
_cell_angle_gamma   119.99630672
_symmetry_Int_Tables_number   1
_chemical_formula_structural   LaTb2Co7B2
_chemical_formula_sum   'La2 Tb4 Co14 B4'
_cell_volume   323.36523088
_cell_formula_units_Z   2
loop_
 _symmetry_equiv_pos_site_id
 _symmetry_equiv_pos_as_xyz
  1  'x, y, z'
loop_
 _atom_site_type_symbol
 _atom_site_label
 _atom_site_symmetry_multiplicity
 _atom_site_fract_x
 _atom_site_fract_y
 _atom_site_fract_z
 _atom_site_occupancy
  La  La0  1  0.666668  0.333328  0.250000  1
  La  La1  1  0.333332  0.666672  0.750000  1
  Tb  Tb2  1  0.666679  0.333320  0.033939  1
  Tb  Tb3  1  0.333321  0.666680  0.966061  1
  Tb  Tb4  1  0.333321  0.666680  0.533939  1
  Tb  Tb5  1  0.666679  0.333320  0.466061  1
  Co  Co6  1  0.834664  0.669345  0.647065  1
  Co  Co7  1  0.834658  0.165348  0.647060  1
  Co  Co8  1  0.330657  0.165340  0.647069  1
  Co  Co9  1  0.165336  0.330655  0.352935  1
  Co  Co10  1  0.165342  0.834652  0.352940  1
  Co  Co11  1  0.669343  0.834660  0.352931  1
  Co  Co12  1  0.165336  0.330655  0.147065  1
  Co  Co13  1  0.165342  0.834652  0.147060  1
  Co  Co14  1  0.669343  0.834660  0.147069  1
  Co  Co15  1  0.834664  0.669345  0.852935  1
  Co  Co16  1  0.834658  0.165348  0.852940  1
  Co  Co17  1  0.330657  0.165340  0.852931  1
  Co  Co18  1  0.000000  0.000000  0.500000  1
  Co  Co19  1  0.000000  0.000000  0.000000  1
  B  B20  1  0.666658  0.333345  0.750000  1
  B  B21  1  0.333342  0.666655  0.250000  1
  B  B22  1  0.999983  0.000011  0.750000  1
  B  B23  1  0.000017  0.999989  0.250000  1
