# generated using pymatgen
data_Ho3PdPtPb3
_symmetry_space_group_name_H-M   'P 1'
_cell_length_a   7.88813500
_cell_length_b   7.88813622
_cell_length_c   3.67819500
_cell_angle_alpha   90.00000000
_cell_angle_beta   90.00000000
_cell_angle_gamma   119.99999068
_symmetry_Int_Tables_number   1
_chemical_formula_structural   Ho3PdPtPb3
_chemical_formula_sum   'Ho3 Pd1 Pt1 Pb3'
_cell_volume   198.20479594
_cell_formula_units_Z   1
loop_
 _symmetry_equiv_pos_site_id
 _symmetry_equiv_pos_as_xyz
  1  'x, y, z'
loop_
 _atom_site_type_symbol
 _atom_site_label
 _atom_site_symmetry_multiplicity
 _atom_site_fract_x
 _atom_site_fract_y
 _atom_site_fract_z
 _atom_site_occupancy
  Ho  Ho0  1  0.584730  0.991925  0.500000  1
  Ho  Ho1  1  0.407196  0.415271  0.500000  1
  Ho  Ho2  1  0.008075  0.592805  0.500000  1
  Pd  Pd3  1  0.666667  0.333333  0.000000  1
  Pt  Pt4  1  0.333333  0.666667  0.000000  1
  Pb  Pb5  1  0.246868  0.003960  0.000000  1
  Pb  Pb6  1  0.996040  0.242908  0.000000  1
  Pb  Pb7  1  0.757091  0.753132  0.000000  1
