# generated using pymatgen
data_La2InGaRh2
_symmetry_space_group_name_H-M   'P 1'
_cell_length_a   4.15352700
_cell_length_b   7.72045700
_cell_length_c   16.84826300
_cell_angle_alpha   90.00000000
_cell_angle_beta   90.00000000
_cell_angle_gamma   90.00000000
_symmetry_Int_Tables_number   1
_chemical_formula_structural   La2InGaRh2
_chemical_formula_sum   'La8 In4 Ga4 Rh8'
_cell_volume   540.27538264
_cell_formula_units_Z   4
loop_
 _symmetry_equiv_pos_site_id
 _symmetry_equiv_pos_as_xyz
  1  'x, y, z'
loop_
 _atom_site_type_symbol
 _atom_site_label
 _atom_site_symmetry_multiplicity
 _atom_site_fract_x
 _atom_site_fract_y
 _atom_site_fract_z
 _atom_site_occupancy
  La  La0  1  0.250000  0.548667  0.786246  1
  La  La1  1  0.750000  0.451333  0.213754  1
  La  La2  1  0.750000  0.951333  0.286246  1
  La  La3  1  0.250000  0.048667  0.713754  1
  La  La4  1  0.250000  0.682850  0.558428  1
  La  La5  1  0.750000  0.317150  0.441572  1
  La  La6  1  0.750000  0.817150  0.058428  1
  La  La7  1  0.250000  0.182850  0.941572  1
  In  In8  1  0.250000  0.619176  0.349100  1
  In  In9  1  0.750000  0.380824  0.650900  1
  In  In10  1  0.750000  0.880824  0.849100  1
  In  In11  1  0.250000  0.119176  0.150900  1
  Ga  Ga12  1  0.250000  0.502236  0.063009  1
  Ga  Ga13  1  0.750000  0.497764  0.936991  1
  Ga  Ga14  1  0.750000  0.997764  0.563009  1
  Ga  Ga15  1  0.250000  0.002236  0.436991  1
  Rh  Rh16  1  0.250000  0.744829  0.179665  1
  Rh  Rh17  1  0.750000  0.255171  0.820335  1
  Rh  Rh18  1  0.750000  0.755171  0.679665  1
  Rh  Rh19  1  0.250000  0.244829  0.320335  1
  Rh  Rh20  1  0.250000  0.715007  0.935114  1
  Rh  Rh21  1  0.750000  0.284993  0.064886  1
  Rh  Rh22  1  0.750000  0.784993  0.435114  1
  Rh  Rh23  1  0.250000  0.215007  0.564886  1
