# generated using pymatgen
data_MgTc3Mo3P4
_symmetry_space_group_name_H-M   'P 1'
_cell_length_a   7.59453300
_cell_length_b   7.59453318
_cell_length_c   3.17267100
_cell_angle_alpha   90.00000000
_cell_angle_beta   90.00000000
_cell_angle_gamma   119.99999488
_symmetry_Int_Tables_number   1
_chemical_formula_structural   MgTc3Mo3P4
_chemical_formula_sum   'Mg1 Tc3 Mo3 P4'
_cell_volume   158.47393806
_cell_formula_units_Z   1
loop_
 _symmetry_equiv_pos_site_id
 _symmetry_equiv_pos_as_xyz
  1  'x, y, z'
loop_
 _atom_site_type_symbol
 _atom_site_label
 _atom_site_symmetry_multiplicity
 _atom_site_fract_x
 _atom_site_fract_y
 _atom_site_fract_z
 _atom_site_occupancy
  Mg  Mg0  1  0.000000  0.000000  0.000000  1
  Tc  Tc1  1  0.194331  0.805669  0.500000  1
  Tc  Tc2  1  0.194331  0.388663  0.500000  1
  Tc  Tc3  1  0.611337  0.805669  0.500000  1
  Mo  Mo4  1  0.541255  0.082511  0.000000  1
  Mo  Mo5  1  0.917489  0.458745  0.000000  1
  Mo  Mo6  1  0.541255  0.458745  0.000000  1
  P  P7  1  0.825941  0.174059  0.500000  1
  P  P8  1  0.348118  0.174059  0.500000  1
  P  P9  1  0.333333  0.666667  0.000000  1
  P  P10  1  0.825941  0.651882  0.500000  1
