# generated using pymatgen
data_TbZnCu2PtAu
_symmetry_space_group_name_H-M   'P 1'
_cell_length_a   5.19102135
_cell_length_b   5.16739811
_cell_length_c   5.19628551
_cell_angle_alpha   59.11557936
_cell_angle_beta   60.03350722
_cell_angle_gamma   59.84866567
_symmetry_Int_Tables_number   1
_chemical_formula_structural   TbZnCu2PtAu
_chemical_formula_sum   'Tb1 Zn1 Cu2 Pt1 Au1'
_cell_volume   97.79824638
_cell_formula_units_Z   1
loop_
 _symmetry_equiv_pos_site_id
 _symmetry_equiv_pos_as_xyz
  1  'x, y, z'
loop_
 _atom_site_type_symbol
 _atom_site_label
 _atom_site_symmetry_multiplicity
 _atom_site_fract_x
 _atom_site_fract_y
 _atom_site_fract_z
 _atom_site_occupancy
  Tb  Tb0  1  0.002663  0.991621  0.003052  1
  Zn  Zn1  1  0.623680  0.134753  0.617887  1
  Cu  Cu2  1  0.129226  0.627703  0.618129  1
  Cu  Cu3  1  0.624943  0.627703  0.618129  1
  Pt  Pt4  1  0.626703  0.629864  0.116731  1
  Au  Au5  1  0.242786  0.238356  0.276071  1
