# generated using pymatgen
data_Tb6Al24ZnIrRu6
_symmetry_space_group_name_H-M   'P 1'
_cell_length_a   8.86142603
_cell_length_b   8.86116299
_cell_length_c   9.54310182
_cell_angle_alpha   89.86919386
_cell_angle_beta   89.99661323
_cell_angle_gamma   119.91126119
_symmetry_Int_Tables_number   1
_chemical_formula_structural   Tb6Al24ZnIrRu6
_chemical_formula_sum   'Tb6 Al24 Zn1 Ir1 Ru6'
_cell_volume   649.53212067
_cell_formula_units_Z   1
loop_
 _symmetry_equiv_pos_site_id
 _symmetry_equiv_pos_as_xyz
  1  'x, y, z'
loop_
 _atom_site_type_symbol
 _atom_site_label
 _atom_site_symmetry_multiplicity
 _atom_site_fract_x
 _atom_site_fract_y
 _atom_site_fract_z
 _atom_site_occupancy
  Tb  Tb0  1  0.384759  0.192670  0.253226  1
  Tb  Tb1  1  0.807128  0.193992  0.246467  1
  Tb  Tb2  1  0.807553  0.614375  0.252411  1
  Tb  Tb3  1  0.615241  0.807330  0.746774  1
  Tb  Tb4  1  0.192872  0.806008  0.753533  1
  Tb  Tb5  1  0.192447  0.385625  0.747589  1
  Al  Al6  1  0.437797  0.877769  0.252461  1
  Al  Al7  1  0.121382  0.561802  0.250927  1
  Al  Al8  1  0.435902  0.564159  0.244145  1
  Al  Al9  1  0.562203  0.122231  0.747539  1
  Al  Al10  1  0.878618  0.438198  0.749073  1
  Al  Al11  1  0.564098  0.435841  0.755855  1
  Al  Al12  1  0.162666  0.837220  0.422107  1
  Al  Al13  1  0.150206  0.322383  0.419058  1
  Al  Al14  1  0.678027  0.850029  0.418521  1
  Al  Al15  1  0.837334  0.162780  0.577893  1
  Al  Al16  1  0.849794  0.677617  0.580942  1
  Al  Al17  1  0.321973  0.149971  0.581479  1
  Al  Al18  1  0.838682  0.163330  0.922419  1
  Al  Al19  1  0.838321  0.675722  0.924309  1
  Al  Al20  1  0.324347  0.162909  0.924823  1
  Al  Al21  1  0.161318  0.836670  0.077581  1
  Al  Al22  1  0.161679  0.324278  0.075691  1
  Al  Al23  1  0.675653  0.837091  0.075177  1
  Al  Al24  1  0.328557  0.670859  0.520252  1
  Al  Al25  1  0.671443  0.329141  0.479748  1
  Al  Al26  1  0.667455  0.335531  0.016322  1
  Al  Al27  1  0.332545  0.664469  0.983678  1
  Al  Al28  1  0.001211  0.999250  0.249522  1
  Al  Al29  1  0.998789  0.000750  0.750478  1
  Zn  Zn30  1  0.500000  0.500000  0.500000  1
  Ir  Ir31  1  0.500000  0.000000  0.000000  1
  Ru  Ru32  1  0.000000  0.000000  0.500000  1
  Ru  Ru33  1  0.000000  0.000000  0.000000  1
  Ru  Ru34  1  0.500000  0.000000  0.500000  1
  Ru  Ru35  1  0.000000  0.500000  0.500000  1
  Ru  Ru36  1  0.000000  0.500000  0.000000  1
  Ru  Ru37  1  0.500000  0.500000  0.000000  1
