# generated using pymatgen
data_Nb2Ni12P7
_symmetry_space_group_name_H-M   'P 1'
_cell_length_a   9.02317100
_cell_length_b   9.02317135
_cell_length_c   3.48236500
_cell_angle_alpha   90.00000000
_cell_angle_beta   90.00000000
_cell_angle_gamma   119.99999506
_symmetry_Int_Tables_number   1
_chemical_formula_structural   Nb2Ni12P7
_chemical_formula_sum   'Nb2 Ni12 P7'
_cell_volume   245.54061261
_cell_formula_units_Z   1
loop_
 _symmetry_equiv_pos_site_id
 _symmetry_equiv_pos_as_xyz
  1  'x, y, z'
loop_
 _atom_site_type_symbol
 _atom_site_label
 _atom_site_symmetry_multiplicity
 _atom_site_fract_x
 _atom_site_fract_y
 _atom_site_fract_z
 _atom_site_occupancy
  Nb  Nb0  1  0.666667  0.333333  0.500000  1
  Nb  Nb1  1  0.333333  0.666667  0.000000  1
  Ni  Ni2  1  0.108640  0.832859  0.000000  1
  Ni  Ni3  1  0.393279  0.432715  0.500000  1
  Ni  Ni4  1  0.724219  0.891360  0.000000  1
  Ni  Ni5  1  0.567285  0.960563  0.500000  1
  Ni  Ni6  1  0.217586  0.082801  0.500000  1
  Ni  Ni7  1  0.865216  0.782414  0.500000  1
  Ni  Ni8  1  0.917199  0.134784  0.500000  1
  Ni  Ni9  1  0.947538  0.372198  0.000000  1
  Ni  Ni10  1  0.627802  0.575340  0.000000  1
  Ni  Ni11  1  0.424660  0.052462  0.000000  1
  Ni  Ni12  1  0.039437  0.606721  0.500000  1
  Ni  Ni13  1  0.167141  0.275781  0.000000  1
  P  P14  1  0.000000  0.000000  0.000000  1
  P  P15  1  0.579648  0.712655  0.500000  1
  P  P16  1  0.707170  0.131424  0.000000  1
  P  P17  1  0.868576  0.575746  0.000000  1
  P  P18  1  0.424254  0.292830  0.000000  1
  P  P19  1  0.287345  0.866993  0.500000  1
  P  P20  1  0.133007  0.420352  0.500000  1
