# generated using pymatgen
data_Gd7Dy(SiO5)4
_symmetry_space_group_name_H-M   'P 1'
_cell_length_a   8.09678165
_cell_length_b   8.09981740
_cell_length_c   10.65354307
_cell_angle_alpha   61.27626306
_cell_angle_beta   61.10012562
_cell_angle_gamma   50.22090639
_symmetry_Int_Tables_number   1
_chemical_formula_structural   Gd7Dy(SiO5)4
_chemical_formula_sum   'Gd7 Dy1 Si4 O20'
_cell_volume   454.57852975
_cell_formula_units_Z   1
loop_
 _symmetry_equiv_pos_site_id
 _symmetry_equiv_pos_as_xyz
  1  'x, y, z'
loop_
 _atom_site_type_symbol
 _atom_site_label
 _atom_site_symmetry_multiplicity
 _atom_site_fract_x
 _atom_site_fract_y
 _atom_site_fract_z
 _atom_site_occupancy
  Gd  Gd0  1  0.714695  0.209690  0.967050  1
  Gd  Gd1  1  0.791533  0.279488  0.535605  1
  Gd  Gd2  1  0.281106  0.794243  0.032918  1
  Gd  Gd3  1  0.208945  0.716393  0.465723  1
  Gd  Gd4  1  0.982222  0.734071  0.835795  1
  Gd  Gd5  1  0.265669  0.024323  0.660799  1
  Gd  Gd6  1  0.015032  0.266695  0.167011  1
  Dy  Dy7  1  0.741219  0.972733  0.336567  1
  Si  Si8  1  0.772434  0.591523  0.691723  1
  Si  Si9  1  0.408737  0.228257  0.808312  1
  Si  Si10  1  0.230087  0.407901  0.305137  1
  Si  Si11  1  0.589494  0.773050  0.194215  1
  O  O12  1  0.766625  0.636894  0.064514  1
  O  O13  1  0.377475  0.230018  0.427949  1
  O  O14  1  0.230936  0.364662  0.937613  1
  O  O15  1  0.635936  0.770294  0.563057  1
  O  O16  1  0.590635  0.589984  0.356660  1
  O  O17  1  0.398065  0.418871  0.137047  1
  O  O18  1  0.410391  0.408195  0.644874  1
  O  O19  1  0.593736  0.588066  0.856062  1
  O  O20  1  0.943096  0.648284  0.675902  1
  O  O21  1  0.350975  0.058706  0.823692  1
  O  O22  1  0.059805  0.345564  0.327789  1
  O  O23  1  0.647976  0.941788  0.179692  1
  O  O24  1  0.886518  0.073430  0.398979  1
  O  O25  1  0.917529  0.112080  0.106906  1
  O  O26  1  0.113700  0.922223  0.602515  1
  O  O27  1  0.076873  0.891914  0.895272  1
  O  O28  1  0.094587  0.663093  0.321594  1
  O  O29  1  0.332747  0.905651  0.181986  1
  O  O30  1  0.905854  0.336684  0.676197  1
  O  O31  1  0.665368  0.095229  0.820844  1
