# generated using pymatgen
data_Nb4SiSb2
_symmetry_space_group_name_H-M   'P 1'
_cell_length_a   7.80485750
_cell_length_b   7.80473300
_cell_length_c   7.80485740
_cell_angle_alpha   95.79200894
_cell_angle_beta   95.79770215
_cell_angle_gamma   142.94718670
_symmetry_Int_Tables_number   1
_chemical_formula_structural   Nb4SiSb2
_chemical_formula_sum   'Nb8 Si2 Sb4'
_cell_volume   271.62381479
_cell_formula_units_Z   2
loop_
 _symmetry_equiv_pos_site_id
 _symmetry_equiv_pos_as_xyz
  1  'x, y, z'
loop_
 _atom_site_type_symbol
 _atom_site_label
 _atom_site_symmetry_multiplicity
 _atom_site_fract_x
 _atom_site_fract_y
 _atom_site_fract_z
 _atom_site_occupancy
  Nb  Nb0  1  0.915155  0.793910  0.709041  1
  Nb  Nb1  1  0.793985  0.084992  0.878992  1
  Nb  Nb2  1  0.415131  0.706090  0.121245  1
  Nb  Nb3  1  0.584869  0.293910  0.878755  1
  Nb  Nb4  1  0.706001  0.584992  0.291007  1
  Nb  Nb5  1  0.293999  0.415008  0.708993  1
  Nb  Nb6  1  0.206015  0.915008  0.121008  1
  Nb  Nb7  1  0.084845  0.206090  0.290959  1
  Si  Si8  1  0.250003  0.250000  0.000003  1
  Si  Si9  1  0.749997  0.750000  0.999997  1
  Sb  Sb10  1  0.640796  0.859232  0.500005  1
  Sb  Sb11  1  0.140773  0.640768  0.781563  1
  Sb  Sb12  1  0.859227  0.359232  0.218436  1
  Sb  Sb13  1  0.359204  0.140768  0.499995  1
