# generated using pymatgen
data_KH2Cl3
_symmetry_space_group_name_H-M   'P 1'
_cell_length_a   4.60743397
_cell_length_b   6.28091973
_cell_length_c   6.51944980
_cell_angle_alpha   117.58672438
_cell_angle_beta   69.30714720
_cell_angle_gamma   90.21943396
_symmetry_Int_Tables_number   1
_chemical_formula_structural   KH2Cl3
_chemical_formula_sum   'K1 H2 Cl3'
_cell_volume   153.49608289
_cell_formula_units_Z   1
loop_
 _symmetry_equiv_pos_site_id
 _symmetry_equiv_pos_as_xyz
  1  'x, y, z'
loop_
 _atom_site_type_symbol
 _atom_site_label
 _atom_site_symmetry_multiplicity
 _atom_site_fract_x
 _atom_site_fract_y
 _atom_site_fract_z
 _atom_site_occupancy
  K  K0  1  0.334496  0.997119  0.233285  1
  H  H1  1  0.714833  0.674529  0.474785  1
  H  H2  1  0.939518  0.457915  0.024394  1
  Cl  Cl3  1  0.829365  0.341104  0.250369  1
  Cl  Cl4  1  0.646832  0.926921  0.617711  1
  Cl  Cl5  1  0.006001  0.570069  0.878430  1
