# generated using pymatgen
data_Dy7Sn22Ru6Se
_symmetry_space_group_name_H-M   'P 1'
_cell_length_a   9.86463300
_cell_length_b   9.86463431
_cell_length_c   9.99530500
_cell_angle_alpha   90.00000000
_cell_angle_beta   90.00000000
_cell_angle_gamma   119.99999896
_symmetry_Int_Tables_number   1
_chemical_formula_structural   Dy7Sn22Ru6Se
_chemical_formula_sum   'Dy7 Sn22 Ru6 Se1'
_cell_volume   842.34229923
_cell_formula_units_Z   1
loop_
 _symmetry_equiv_pos_site_id
 _symmetry_equiv_pos_as_xyz
  1  'x, y, z'
loop_
 _atom_site_type_symbol
 _atom_site_label
 _atom_site_symmetry_multiplicity
 _atom_site_fract_x
 _atom_site_fract_y
 _atom_site_fract_z
 _atom_site_occupancy
  Dy  Dy0  1  0.000000  0.000000  0.000000  1
  Dy  Dy1  1  0.484365  0.515635  0.300146  1
  Dy  Dy2  1  0.515635  0.484365  0.699854  1
  Dy  Dy3  1  0.484365  0.968729  0.300146  1
  Dy  Dy4  1  0.515635  0.031271  0.699854  1
  Dy  Dy5  1  0.031271  0.515635  0.300146  1
  Dy  Dy6  1  0.968729  0.484365  0.699854  1
  Sn  Sn7  1  0.348928  0.000000  0.000000  1
  Sn  Sn8  1  0.651072  0.000000  0.000000  1
  Sn  Sn9  1  0.000000  0.348928  0.000000  1
  Sn  Sn10  1  0.000000  0.651072  0.000000  1
  Sn  Sn11  1  0.651072  0.651072  0.000000  1
  Sn  Sn12  1  0.348928  0.348928  0.000000  1
  Sn  Sn13  1  0.333333  0.666667  0.826603  1
  Sn  Sn14  1  0.666667  0.333333  0.173397  1
  Sn  Sn15  1  0.776178  0.223822  0.462264  1
  Sn  Sn16  1  0.223822  0.776178  0.537736  1
  Sn  Sn17  1  0.776178  0.552358  0.462264  1
  Sn  Sn18  1  0.223822  0.447642  0.537736  1
  Sn  Sn19  1  0.447642  0.223822  0.462264  1
  Sn  Sn20  1  0.552358  0.776178  0.537736  1
  Sn  Sn21  1  0.333333  0.666667  0.126202  1
  Sn  Sn22  1  0.666667  0.333333  0.873798  1
  Sn  Sn23  1  0.116403  0.883597  0.282187  1
  Sn  Sn24  1  0.883597  0.116403  0.717813  1
  Sn  Sn25  1  0.116403  0.232806  0.282187  1
  Sn  Sn26  1  0.883597  0.767194  0.717813  1
  Sn  Sn27  1  0.767194  0.883597  0.282187  1
  Sn  Sn28  1  0.232806  0.116403  0.717813  1
  Ru  Ru29  1  0.831597  0.168403  0.205241  1
  Ru  Ru30  1  0.168403  0.831597  0.794759  1
  Ru  Ru31  1  0.831597  0.663194  0.205241  1
  Ru  Ru32  1  0.168403  0.336806  0.794759  1
  Ru  Ru33  1  0.336806  0.168403  0.205241  1
  Ru  Ru34  1  0.663194  0.831597  0.794759  1
  Se  Se35  1  0.000000  0.000000  0.500000  1
