# generated using pymatgen
data_Lu10InTc3Te4
_symmetry_space_group_name_H-M   'P 1'
_cell_length_a   8.80236300
_cell_length_b   8.80236460
_cell_length_c   7.58482427
_cell_angle_alpha   88.88509790
_cell_angle_beta   88.88509539
_cell_angle_gamma   128.43501339
_symmetry_Int_Tables_number   1
_chemical_formula_structural   Lu10InTc3Te4
_chemical_formula_sum   'Lu10 In1 Tc3 Te4'
_cell_volume   459.88040469
_cell_formula_units_Z   1
loop_
 _symmetry_equiv_pos_site_id
 _symmetry_equiv_pos_as_xyz
  1  'x, y, z'
loop_
 _atom_site_type_symbol
 _atom_site_label
 _atom_site_symmetry_multiplicity
 _atom_site_fract_x
 _atom_site_fract_y
 _atom_site_fract_z
 _atom_site_occupancy
  Lu  Lu0  1  0.005894  0.005894  0.989517  1
  Lu  Lu1  1  0.492030  0.492030  0.507917  1
  Lu  Lu2  1  0.763503  0.525518  0.145979  1
  Lu  Lu3  1  0.448599  0.193216  0.824570  1
  Lu  Lu4  1  0.962986  0.720526  0.681863  1
  Lu  Lu5  1  0.310591  0.064759  0.338094  1
  Lu  Lu6  1  0.193216  0.448599  0.824570  1
  Lu  Lu7  1  0.525518  0.763503  0.145979  1
  Lu  Lu8  1  0.064759  0.310591  0.338094  1
  Lu  Lu9  1  0.720526  0.962986  0.681863  1
  In  In10  1  0.875216  0.875216  0.373827  1
  Tc  Tc11  1  0.139214  0.139214  0.631575  1
  Tc  Tc12  1  0.608788  0.608788  0.872614  1
  Tc  Tc13  1  0.369119  0.369119  0.107863  1
  Te  Te14  1  0.195297  0.774338  0.014341  1
  Te  Te15  1  0.736504  0.313901  0.503497  1
  Te  Te16  1  0.774338  0.195297  0.014341  1
  Te  Te17  1  0.313901  0.736504  0.503497  1
