# generated using pymatgen
data_Dy2Er2Ga16Ir3
_symmetry_space_group_name_H-M   'P 1'
_cell_length_a   6.14482200
_cell_length_b   6.14482200
_cell_length_c   11.17620400
_cell_angle_alpha   90.00000000
_cell_angle_beta   90.00000000
_cell_angle_gamma   90.00000000
_symmetry_Int_Tables_number   1
_chemical_formula_structural   Dy2Er2Ga16Ir3
_chemical_formula_sum   'Dy2 Er2 Ga16 Ir3'
_cell_volume   422.00046972
_cell_formula_units_Z   1
loop_
 _symmetry_equiv_pos_site_id
 _symmetry_equiv_pos_as_xyz
  1  'x, y, z'
loop_
 _atom_site_type_symbol
 _atom_site_label
 _atom_site_symmetry_multiplicity
 _atom_site_fract_x
 _atom_site_fract_y
 _atom_site_fract_z
 _atom_site_occupancy
  Dy  Dy0  1  0.500000  0.000000  0.193941  1
  Dy  Dy1  1  0.000000  0.500000  0.193941  1
  Er  Er2  1  0.500000  0.000000  0.805915  1
  Er  Er3  1  0.000000  0.500000  0.805915  1
  Ga  Ga4  1  0.248719  0.248719  0.620966  1
  Ga  Ga5  1  0.751281  0.751281  0.620966  1
  Ga  Ga6  1  0.751281  0.248719  0.620966  1
  Ga  Ga7  1  0.248719  0.751281  0.620966  1
  Ga  Ga8  1  0.751264  0.751264  0.379235  1
  Ga  Ga9  1  0.248736  0.248736  0.379235  1
  Ga  Ga10  1  0.248736  0.751264  0.379235  1
  Ga  Ga11  1  0.751264  0.248736  0.379235  1
  Ga  Ga12  1  0.288330  0.288330  0.999801  1
  Ga  Ga13  1  0.711670  0.711670  0.999801  1
  Ga  Ga14  1  0.711670  0.288330  0.999801  1
  Ga  Ga15  1  0.288330  0.711670  0.999801  1
  Ga  Ga16  1  0.500000  0.500000  0.803569  1
  Ga  Ga17  1  0.500000  0.500000  0.196455  1
  Ga  Ga18  1  0.000000  0.000000  0.775431  1
  Ga  Ga19  1  0.000000  0.000000  0.224646  1
  Ir  Ir20  1  0.500000  0.000000  0.500071  1
  Ir  Ir21  1  0.000000  0.500000  0.500071  1
  Ir  Ir22  1  0.000000  0.000000  0.000036  1
