# generated using pymatgen
data_Nd14Sm6Si15Ni
_symmetry_space_group_name_H-M   'P 1'
_cell_length_a   7.76776927
_cell_length_b   7.89439077
_cell_length_c   15.04461663
_cell_angle_alpha   89.51061582
_cell_angle_beta   89.66673353
_cell_angle_gamma   90.05033216
_symmetry_Int_Tables_number   1
_chemical_formula_structural   Nd14Sm6Si15Ni
_chemical_formula_sum   'Nd14 Sm6 Si15 Ni1'
_cell_volume   922.51340739
_cell_formula_units_Z   1
loop_
 _symmetry_equiv_pos_site_id
 _symmetry_equiv_pos_as_xyz
  1  'x, y, z'
loop_
 _atom_site_type_symbol
 _atom_site_label
 _atom_site_symmetry_multiplicity
 _atom_site_fract_x
 _atom_site_fract_y
 _atom_site_fract_z
 _atom_site_occupancy
  Nd  Nd0  1  0.307525  0.180352  0.878882  1
  Nd  Nd1  1  0.190461  0.674945  0.379927  1
  Nd  Nd2  1  0.043382  0.187240  0.103160  1
  Nd  Nd3  1  0.311669  0.182229  0.621259  1
  Nd  Nd4  1  0.861643  0.491604  0.261823  1
  Nd  Nd5  1  0.364210  0.005454  0.252802  1
  Nd  Nd6  1  0.539143  0.312615  0.397183  1
  Nd  Nd7  1  0.808930  0.319195  0.879506  1
  Nd  Nd8  1  0.961692  0.818057  0.600023  1
  Nd  Nd9  1  0.456659  0.687611  0.603701  1
  Nd  Nd10  1  0.042109  0.180843  0.398469  1
  Nd  Nd11  1  0.693525  0.811478  0.384136  1
  Nd  Nd12  1  0.636356  0.996461  0.748829  1
  Nd  Nd13  1  0.546476  0.312410  0.102845  1
  Sm  Sm14  1  0.131985  0.511246  0.748071  1
  Sm  Sm15  1  0.808075  0.335407  0.614060  1
  Sm  Sm16  1  0.453713  0.688039  0.897012  1
  Sm  Sm17  1  0.953964  0.812881  0.896432  1
  Sm  Sm18  1  0.187095  0.681203  0.121027  1
  Sm  Sm19  1  0.692062  0.818648  0.121234  1
  Si  Si20  1  0.482347  0.603776  0.245087  1
  Si  Si21  1  0.252657  0.378330  0.246484  1
  Si  Si22  1  0.514749  0.403254  0.750688  1
  Si  Si23  1  0.633007  0.021382  0.958632  1
  Si  Si24  1  0.013244  0.106477  0.748252  1
  Si  Si25  1  0.747174  0.623639  0.750288  1
  Si  Si26  1  0.752103  0.117378  0.248920  1
  Si  Si27  1  0.365985  0.969522  0.460879  1
  Si  Si28  1  0.982664  0.893969  0.247132  1
  Si  Si29  1  0.366733  0.970056  0.041862  1
  Si  Si30  1  0.637176  0.027571  0.541813  1
  Si  Si31  1  0.135609  0.479111  0.957856  1
  Si  Si32  1  0.136567  0.474724  0.542561  1
  Si  Si33  1  0.868259  0.530006  0.040436  1
  Si  Si34  1  0.243736  0.876595  0.752036  1
  Ni  Ni35  1  0.877315  0.516288  0.456688  1
