# generated using pymatgen
data_Zr6Ti4Ga12Co7
_symmetry_space_group_name_H-M   'P 1'
_cell_length_a   8.58201388
_cell_length_b   8.58201310
_cell_length_c   8.58201200
_cell_angle_alpha   59.99999652
_cell_angle_beta   59.99999953
_cell_angle_gamma   59.99999668
_symmetry_Int_Tables_number   1
_chemical_formula_structural   Zr6Ti4Ga12Co7
_chemical_formula_sum   'Zr6 Ti4 Ga12 Co7'
_cell_volume   446.94335153
_cell_formula_units_Z   1
loop_
 _symmetry_equiv_pos_site_id
 _symmetry_equiv_pos_as_xyz
  1  'x, y, z'
loop_
 _atom_site_type_symbol
 _atom_site_label
 _atom_site_symmetry_multiplicity
 _atom_site_fract_x
 _atom_site_fract_y
 _atom_site_fract_z
 _atom_site_occupancy
  Zr  Zr0  1  0.695993  0.695993  0.304007  1
  Zr  Zr1  1  0.304007  0.695993  0.304007  1
  Zr  Zr2  1  0.695993  0.304007  0.304007  1
  Zr  Zr3  1  0.304007  0.304007  0.695993  1
  Zr  Zr4  1  0.695993  0.304007  0.695993  1
  Zr  Zr5  1  0.304007  0.695993  0.695993  1
  Ti  Ti6  1  0.879928  0.879928  0.360214  1
  Ti  Ti7  1  0.879928  0.360214  0.879928  1
  Ti  Ti8  1  0.360214  0.879928  0.879928  1
  Ti  Ti9  1  0.879928  0.879928  0.879928  1
  Ga  Ga10  1  0.118203  0.118203  0.645392  1
  Ga  Ga11  1  0.118203  0.645392  0.118203  1
  Ga  Ga12  1  0.645392  0.118203  0.118203  1
  Ga  Ga13  1  0.118203  0.118203  0.118203  1
  Ga  Ga14  1  0.662605  0.662605  0.012182  1
  Ga  Ga15  1  0.662605  0.012182  0.662605  1
  Ga  Ga16  1  0.012182  0.662605  0.662605  1
  Ga  Ga17  1  0.662605  0.662605  0.662605  1
  Ga  Ga18  1  0.337509  0.337509  0.987471  1
  Ga  Ga19  1  0.337509  0.987471  0.337509  1
  Ga  Ga20  1  0.987471  0.337509  0.337509  1
  Ga  Ga21  1  0.337509  0.337509  0.337509  1
  Co  Co22  1  0.000000  0.000000  0.000000  1
  Co  Co23  1  0.996764  0.996764  0.503236  1
  Co  Co24  1  0.503236  0.996764  0.503236  1
  Co  Co25  1  0.996764  0.503236  0.503236  1
  Co  Co26  1  0.503236  0.503236  0.996764  1
  Co  Co27  1  0.996764  0.503236  0.996764  1
  Co  Co28  1  0.503236  0.996764  0.996764  1
