# generated using pymatgen
data_Ho4Al6ReRu
_symmetry_space_group_name_H-M   'P 1'
_cell_length_a   5.48997200
_cell_length_b   5.48997318
_cell_length_c   8.88875900
_cell_angle_alpha   90.00000000
_cell_angle_beta   90.00000000
_cell_angle_gamma   120.00000496
_symmetry_Int_Tables_number   1
_chemical_formula_structural   Ho4Al6ReRu
_chemical_formula_sum   'Ho4 Al6 Re1 Ru1'
_cell_volume   232.01287913
_cell_formula_units_Z   1
loop_
 _symmetry_equiv_pos_site_id
 _symmetry_equiv_pos_as_xyz
  1  'x, y, z'
loop_
 _atom_site_type_symbol
 _atom_site_label
 _atom_site_symmetry_multiplicity
 _atom_site_fract_x
 _atom_site_fract_y
 _atom_site_fract_z
 _atom_site_occupancy
  Ho  Ho0  1  0.666666  0.333332  0.052096  1
  Ho  Ho1  1  0.666666  0.333332  0.447840  1
  Ho  Ho2  1  0.333334  0.666667  0.552160  1
  Ho  Ho3  1  0.333334  0.666667  0.947904  1
  Al  Al4  1  0.162258  0.324517  0.251631  1
  Al  Al5  1  0.162259  0.837742  0.251631  1
  Al  Al6  1  0.675483  0.837742  0.251631  1
  Al  Al7  1  0.324517  0.162259  0.748367  1
  Al  Al8  1  0.837743  0.162259  0.748367  1
  Al  Al9  1  0.837741  0.675483  0.748367  1
  Re  Re10  1  0.000000  0.000000  0.000000  1
  Ru  Ru11  1  0.000000  0.000000  0.500000  1
