# generated using pymatgen
data_Sn2IrRh3Se10
_symmetry_space_group_name_H-M   'P 1'
_cell_length_a   3.80372300
_cell_length_b   7.76140434
_cell_length_c   13.14852151
_cell_angle_alpha   78.29638974
_cell_angle_beta   90.00000000
_cell_angle_gamma   90.00000000
_symmetry_Int_Tables_number   1
_chemical_formula_structural   Sn2IrRh3Se10
_chemical_formula_sum   'Sn2 Ir1 Rh3 Se10'
_cell_volume   380.10358572
_cell_formula_units_Z   1
loop_
 _symmetry_equiv_pos_site_id
 _symmetry_equiv_pos_as_xyz
  1  'x, y, z'
loop_
 _atom_site_type_symbol
 _atom_site_label
 _atom_site_symmetry_multiplicity
 _atom_site_fract_x
 _atom_site_fract_y
 _atom_site_fract_z
 _atom_site_occupancy
  Sn  Sn0  1  0.500000  0.164313  0.671238  1
  Sn  Sn1  1  0.500000  0.838240  0.328529  1
  Ir  Ir2  1  0.000000  0.742640  0.852292  1
  Rh  Rh3  1  0.000000  0.257392  0.147604  1
  Rh  Rh4  1  0.500000  0.749734  0.144231  1
  Rh  Rh5  1  0.500000  0.248975  0.856176  1
  Se  Se6  1  0.000000  0.957181  0.101864  1
  Se  Se7  1  0.000000  0.041085  0.898257  1
  Se  Se8  1  0.000000  0.459844  0.784378  1
  Se  Se9  1  0.000000  0.540362  0.215918  1
  Se  Se10  1  0.500000  0.663540  0.973009  1
  Se  Se11  1  0.500000  0.335648  0.026613  1
  Se  Se12  1  0.500000  0.191094  0.277975  1
  Se  Se13  1  0.500000  0.810540  0.722140  1
  Se  Se14  1  0.000000  0.245324  0.540262  1
  Se  Se15  1  0.000000  0.754088  0.459517  1
