# generated using pymatgen
data_Y5Er11MgIn3Ni4
_symmetry_space_group_name_H-M   'P 1'
_cell_length_a   9.55598477
_cell_length_b   9.51659372
_cell_length_c   9.53014800
_cell_angle_alpha   59.95287403
_cell_angle_beta   60.08939834
_cell_angle_gamma   60.05657115
_symmetry_Int_Tables_number   1
_chemical_formula_structural   Y5Er11MgIn3Ni4
_chemical_formula_sum   'Y5 Er11 Mg1 In3 Ni4'
_cell_volume   613.28807093
_cell_formula_units_Z   1
loop_
 _symmetry_equiv_pos_site_id
 _symmetry_equiv_pos_as_xyz
  1  'x, y, z'
loop_
 _atom_site_type_symbol
 _atom_site_label
 _atom_site_symmetry_multiplicity
 _atom_site_fract_x
 _atom_site_fract_y
 _atom_site_fract_z
 _atom_site_occupancy
  Y  Y0  1  0.187785  0.813724  0.812610  1
  Y  Y1  1  0.812871  0.187608  0.187556  1
  Y  Y2  1  0.812871  0.187608  0.811965  1
  Y  Y3  1  0.187785  0.813724  0.185883  1
  Y  Y4  1  0.812193  0.812344  0.187732  1
  Er  Er5  1  0.188066  0.188141  0.811897  1
  Er  Er6  1  0.596948  0.595977  0.596681  1
  Er  Er7  1  0.596948  0.595977  0.210393  1
  Er  Er8  1  0.597046  0.209192  0.596881  1
  Er  Er9  1  0.205071  0.597770  0.598579  1
  Er  Er10  1  0.061522  0.438126  0.438875  1
  Er  Er11  1  0.434281  0.064507  0.063420  1
  Er  Er12  1  0.434281  0.064507  0.437792  1
  Er  Er13  1  0.061522  0.438126  0.061476  1
  Er  Er14  1  0.435047  0.436749  0.064102  1
  Er  Er15  1  0.061619  0.061424  0.438479  1
  Mg  Mg16  1  0.519176  0.827169  0.826827  1
  In  In17  1  0.831925  0.832261  0.832384  1
  In  In18  1  0.831925  0.832261  0.503429  1
  In  In19  1  0.832323  0.503249  0.832214  1
  Ni  Ni20  1  0.391806  0.392068  0.392743  1
  Ni  Ni21  1  0.391806  0.392068  0.823382  1
  Ni  Ni22  1  0.391338  0.823669  0.392496  1
  Ni  Ni23  1  0.823842  0.391750  0.392204  1
