# generated using pymatgen
data_Nb6Ga4FeCuN2
_symmetry_space_group_name_H-M   'P 1'
_cell_length_a   8.27491339
_cell_length_b   8.22033590
_cell_length_c   8.22033700
_cell_angle_alpha   59.58885648
_cell_angle_beta   59.78013478
_cell_angle_gamma   59.78013071
_symmetry_Int_Tables_number   1
_chemical_formula_structural   Nb6Ga4FeCuN2
_chemical_formula_sum   'Nb12 Ga8 Fe2 Cu2 N4'
_cell_volume   392.84177972
_cell_formula_units_Z   2
loop_
 _symmetry_equiv_pos_site_id
 _symmetry_equiv_pos_as_xyz
  1  'x, y, z'
loop_
 _atom_site_type_symbol
 _atom_site_label
 _atom_site_symmetry_multiplicity
 _atom_site_fract_x
 _atom_site_fract_y
 _atom_site_fract_z
 _atom_site_occupancy
  Nb  Nb0  1  0.807448  0.808424  0.192306  1
  Nb  Nb1  1  0.191821  0.192306  0.808424  1
  Nb  Nb2  1  0.807448  0.192306  0.808424  1
  Nb  Nb3  1  0.191821  0.808424  0.192306  1
  Nb  Nb4  1  0.190704  0.809296  0.809296  1
  Nb  Nb5  1  0.807936  0.192064  0.192064  1
  Nb  Nb6  1  0.442552  0.441576  0.057694  1
  Nb  Nb7  1  0.058179  0.057694  0.441576  1
  Nb  Nb8  1  0.442552  0.057694  0.441576  1
  Nb  Nb9  1  0.058179  0.441576  0.057694  1
  Nb  Nb10  1  0.059296  0.440704  0.440704  1
  Nb  Nb11  1  0.442064  0.057936  0.057936  1
  Ga  Ga12  1  0.755649  0.416126  0.416126  1
  Ga  Ga13  1  0.414047  0.753510  0.418398  1
  Ga  Ga14  1  0.414047  0.418398  0.753510  1
  Ga  Ga15  1  0.412101  0.416126  0.416126  1
  Ga  Ga16  1  0.494351  0.833874  0.833874  1
  Ga  Ga17  1  0.835953  0.496490  0.831602  1
  Ga  Ga18  1  0.835953  0.831602  0.496490  1
  Ga  Ga19  1  0.837899  0.833874  0.833874  1
  Fe  Fe20  1  0.125000  0.625000  0.625000  1
  Fe  Fe21  1  0.625000  0.625000  0.625000  1
  Cu  Cu22  1  0.625000  0.125000  0.625000  1
  Cu  Cu23  1  0.625000  0.625000  0.125000  1
  N  N24  1  0.625000  0.125000  0.125000  1
  N  N25  1  0.125000  0.625000  0.125000  1
  N  N26  1  0.125000  0.125000  0.625000  1
  N  N27  1  0.125000  0.125000  0.125000  1
