# generated using pymatgen
data_Pb2SeO5
_symmetry_space_group_name_H-M   'P 1'
_cell_length_a   7.69093668
_cell_length_b   7.69093657
_cell_length_c   7.35057573
_cell_angle_alpha   68.86440256
_cell_angle_beta   68.86440568
_cell_angle_gamma   44.91770412
_symmetry_Int_Tables_number   1
_chemical_formula_structural   Pb2SeO5
_chemical_formula_sum   'Pb4 Se2 O10'
_cell_volume   282.66931791
_cell_formula_units_Z   2
loop_
 _symmetry_equiv_pos_site_id
 _symmetry_equiv_pos_as_xyz
  1  'x, y, z'
loop_
 _atom_site_type_symbol
 _atom_site_label
 _atom_site_symmetry_multiplicity
 _atom_site_fract_x
 _atom_site_fract_y
 _atom_site_fract_z
 _atom_site_occupancy
  Pb  Pb0  1  0.484282  0.484282  0.757335  1
  Pb  Pb1  1  0.515718  0.515718  0.242665  1
  Pb  Pb2  1  0.140873  0.140873  0.397580  1
  Pb  Pb3  1  0.859127  0.859127  0.602420  1
  Se  Se4  1  0.172367  0.172367  0.844025  1
  Se  Se5  1  0.827633  0.827633  0.155975  1
  O  O6  1  0.253675  0.746325  0.500000  1
  O  O7  1  0.746325  0.253675  0.500000  1
  O  O8  1  0.081032  0.619799  0.267956  1
  O  O9  1  0.380201  0.918968  0.732044  1
  O  O10  1  0.918968  0.380201  0.732044  1
  O  O11  1  0.619799  0.081032  0.267956  1
  O  O12  1  0.902541  0.902541  0.913854  1
  O  O13  1  0.097459  0.097459  0.086146  1
  O  O14  1  0.296114  0.296114  0.810305  1
  O  O15  1  0.703886  0.703886  0.189695  1
