# generated using pymatgen
data_Ho6CrCo17(Si5P)2
_symmetry_space_group_name_H-M   'P 1'
_cell_length_a   3.75208700
_cell_length_b   10.70208300
_cell_length_c   12.30341800
_cell_angle_alpha   90.00000000
_cell_angle_beta   90.00000000
_cell_angle_gamma   90.00000000
_symmetry_Int_Tables_number   1
_chemical_formula_structural   Ho6CrCo17(Si5P)2
_chemical_formula_sum   'Ho6 Cr1 Co17 Si10 P2'
_cell_volume   494.04555221
_cell_formula_units_Z   1
loop_
 _symmetry_equiv_pos_site_id
 _symmetry_equiv_pos_as_xyz
  1  'x, y, z'
loop_
 _atom_site_type_symbol
 _atom_site_label
 _atom_site_symmetry_multiplicity
 _atom_site_fract_x
 _atom_site_fract_y
 _atom_site_fract_z
 _atom_site_occupancy
  Ho  Ho0  1  0.000000  0.500000  0.524376  1
  Ho  Ho1  1  0.500000  0.000000  0.473110  1
  Ho  Ho2  1  0.500000  0.818735  0.204888  1
  Ho  Ho3  1  0.500000  0.181265  0.204888  1
  Ho  Ho4  1  0.000000  0.679843  0.797179  1
  Ho  Ho5  1  0.000000  0.320157  0.797179  1
  Cr  Cr6  1  0.500000  0.500000  0.151276  1
  Co  Co7  1  0.000000  0.500000  0.980665  1
  Co  Co8  1  0.500000  0.000000  0.016575  1
  Co  Co9  1  0.500000  0.305455  0.429311  1
  Co  Co10  1  0.500000  0.694545  0.429311  1
  Co  Co11  1  0.000000  0.199570  0.570836  1
  Co  Co12  1  0.000000  0.800430  0.570836  1
  Co  Co13  1  0.500000  0.882446  0.707445  1
  Co  Co14  1  0.500000  0.117554  0.707445  1
  Co  Co15  1  0.000000  0.616550  0.292850  1
  Co  Co16  1  0.000000  0.383450  0.292850  1
  Co  Co17  1  0.500000  0.332908  0.992318  1
  Co  Co18  1  0.500000  0.667092  0.992318  1
  Co  Co19  1  0.000000  0.168365  0.004707  1
  Co  Co20  1  0.000000  0.831635  0.004707  1
  Co  Co21  1  0.000000  0.000000  0.848130  1
  Co  Co22  1  0.500000  0.500000  0.701981  1
  Co  Co23  1  0.000000  0.000000  0.303211  1
  Si  Si24  1  0.500000  0.306355  0.615405  1
  Si  Si25  1  0.500000  0.693645  0.615405  1
  Si  Si26  1  0.000000  0.196392  0.385793  1
  Si  Si27  1  0.000000  0.803608  0.385793  1
  Si  Si28  1  0.000000  0.000000  0.116521  1
  Si  Si29  1  0.500000  0.852553  0.892533  1
  Si  Si30  1  0.500000  0.147447  0.892533  1
  Si  Si31  1  0.000000  0.650691  0.105559  1
  Si  Si32  1  0.000000  0.349309  0.105559  1
  Si  Si33  1  0.000000  0.000000  0.660899  1
  P  P34  1  0.500000  0.500000  0.884121  1
  P  P35  1  0.500000  0.500000  0.341489  1
