# generated using pymatgen
data_Sc8V10ReSi16Tc
_symmetry_space_group_name_H-M   'P 1'
_cell_length_a   6.62562028
_cell_length_b   6.62561967
_cell_length_c   12.26726351
_cell_angle_alpha   90.00230173
_cell_angle_beta   89.99769677
_cell_angle_gamma   89.64395229
_symmetry_Int_Tables_number   1
_chemical_formula_structural   Sc8V10ReSi16Tc
_chemical_formula_sum   'Sc8 V10 Re1 Si16 Tc1'
_cell_volume   538.50824048
_cell_formula_units_Z   1
loop_
 _symmetry_equiv_pos_site_id
 _symmetry_equiv_pos_as_xyz
  1  'x, y, z'
loop_
 _atom_site_type_symbol
 _atom_site_label
 _atom_site_symmetry_multiplicity
 _atom_site_fract_x
 _atom_site_fract_y
 _atom_site_fract_z
 _atom_site_occupancy
  Sc  Sc0  1  0.001166  0.662644  0.028728  1
  Sc  Sc1  1  0.836243  0.501559  0.279810  1
  Sc  Sc2  1  0.163517  0.498073  0.779815  1
  Sc  Sc3  1  0.501559  0.836243  0.720190  1
  Sc  Sc4  1  0.498073  0.163517  0.220185  1
  Sc  Sc5  1  0.998962  0.337924  0.528812  1
  Sc  Sc6  1  0.662644  0.001166  0.971272  1
  Sc  Sc7  1  0.337924  0.998962  0.471188  1
  V  V8  1  0.168057  0.832538  0.249589  1
  V  V9  1  0.832538  0.168057  0.750411  1
  V  V10  1  0.002000  0.154224  0.127737  1
  V  V11  1  0.340629  0.504599  0.375193  1
  V  V12  1  0.661999  0.495183  0.874777  1
  V  V13  1  0.504599  0.340629  0.624807  1
  V  V14  1  0.495183  0.661999  0.125223  1
  V  V15  1  0.996391  0.844614  0.626559  1
  V  V16  1  0.154224  0.002000  0.872263  1
  V  V17  1  0.844614  0.996391  0.373441  1
  Re  Re18  1  0.667770  0.667770  0.500000  1
  Si  Si19  1  0.291455  0.960815  0.064299  1
  Si  Si20  1  0.538443  0.795718  0.315243  1
  Si  Si21  1  0.460568  0.204916  0.815786  1
  Si  Si22  1  0.795718  0.538443  0.684757  1
  Si  Si23  1  0.204916  0.460568  0.184214  1
  Si  Si24  1  0.707794  0.040452  0.565553  1
  Si  Si25  1  0.960815  0.291455  0.935701  1
  Si  Si26  1  0.040452  0.707794  0.434447  1
  Si  Si27  1  0.703018  0.373044  0.070440  1
  Si  Si28  1  0.130118  0.203731  0.319589  1
  Si  Si29  1  0.869917  0.795955  0.819542  1
  Si  Si30  1  0.203731  0.130118  0.680411  1
  Si  Si31  1  0.795955  0.869917  0.180458  1
  Si  Si32  1  0.295594  0.627902  0.570745  1
  Si  Si33  1  0.373044  0.703018  0.929560  1
  Si  Si34  1  0.627902  0.295594  0.429255  1
  Tc  Tc35  1  0.332470  0.332470  0.000000  1
