# generated using pymatgen
data_ErSiPtRh
_symmetry_space_group_name_H-M   'P 1'
_cell_length_a   9.21649916
_cell_length_b   9.21649957
_cell_length_c   4.08526900
_cell_angle_alpha   90.00000000
_cell_angle_beta   90.00000000
_cell_angle_gamma   155.29312145
_symmetry_Int_Tables_number   1
_chemical_formula_structural   ErSiPtRh
_chemical_formula_sum   'Er2 Si2 Pt2 Rh2'
_cell_volume   145.04546161
_cell_formula_units_Z   2
loop_
 _symmetry_equiv_pos_site_id
 _symmetry_equiv_pos_as_xyz
  1  'x, y, z'
loop_
 _atom_site_type_symbol
 _atom_site_label
 _atom_site_symmetry_multiplicity
 _atom_site_fract_x
 _atom_site_fract_y
 _atom_site_fract_z
 _atom_site_occupancy
  Er  Er0  1  0.103340  0.896660  0.750000  1
  Er  Er1  1  0.896660  0.103340  0.250000  1
  Si  Si2  1  0.321492  0.678508  0.750000  1
  Si  Si3  1  0.678508  0.321492  0.250000  1
  Pt  Pt4  1  0.548572  0.451428  0.250000  1
  Pt  Pt5  1  0.451428  0.548572  0.750000  1
  Rh  Rh6  1  0.250497  0.749503  0.250000  1
  Rh  Rh7  1  0.749503  0.250497  0.750000  1
