# generated using pymatgen
data_Ho5Lu5In8RuPt3
_symmetry_space_group_name_H-M   'P 1'
_cell_length_a   3.60155200
_cell_length_b   8.06655235
_cell_length_c   18.07665136
_cell_angle_alpha   89.91344313
_cell_angle_beta   90.00000000
_cell_angle_gamma   90.00000000
_symmetry_Int_Tables_number   1
_chemical_formula_structural   Ho5Lu5In8RuPt3
_chemical_formula_sum   'Ho5 Lu5 In8 Ru1 Pt3'
_cell_volume   525.16422377
_cell_formula_units_Z   1
loop_
 _symmetry_equiv_pos_site_id
 _symmetry_equiv_pos_as_xyz
  1  'x, y, z'
loop_
 _atom_site_type_symbol
 _atom_site_label
 _atom_site_symmetry_multiplicity
 _atom_site_fract_x
 _atom_site_fract_y
 _atom_site_fract_z
 _atom_site_occupancy
  Ho  Ho0  1  0.000000  0.757959  0.779480  1
  Ho  Ho1  1  0.000000  0.257310  0.720724  1
  Ho  Ho2  1  0.000000  0.751206  0.278852  1
  Ho  Ho3  1  0.000000  0.998962  0.000398  1
  Ho  Ho4  1  0.000000  0.500442  0.499067  1
  Lu  Lu5  1  0.000000  0.116372  0.411123  1
  Lu  Lu6  1  0.000000  0.884212  0.585696  1
  Lu  Lu7  1  0.000000  0.384006  0.914372  1
  Lu  Lu8  1  0.000000  0.617030  0.088441  1
  Lu  Lu9  1  0.000000  0.233421  0.222776  1
  In  In10  1  0.500000  0.420701  0.350924  1
  In  In11  1  0.500000  0.577177  0.647454  1
  In  In12  1  0.500000  0.077477  0.852335  1
  In  In13  1  0.500000  0.931632  0.149618  1
  In  In14  1  0.500000  0.294272  0.065571  1
  In  In15  1  0.500000  0.705020  0.935687  1
  In  In16  1  0.500000  0.205636  0.565132  1
  In  In17  1  0.500000  0.797737  0.432066  1
  Ru  Ru18  1  0.500000  0.023285  0.304313  1
  Pt  Pt19  1  0.500000  0.975232  0.694778  1
  Pt  Pt20  1  0.500000  0.475995  0.805741  1
  Pt  Pt21  1  0.500000  0.514917  0.195450  1
