# generated using pymatgen
data_SrTbSi4N7
_symmetry_space_group_name_H-M   'P 1'
_cell_length_a   6.07288900
_cell_length_b   6.07288862
_cell_length_c   9.89925100
_cell_angle_alpha   90.00000000
_cell_angle_beta   90.00000000
_cell_angle_gamma   119.99999661
_symmetry_Int_Tables_number   1
_chemical_formula_structural   SrTbSi4N7
_chemical_formula_sum   'Sr2 Tb2 Si8 N14'
_cell_volume   316.17217144
_cell_formula_units_Z   2
loop_
 _symmetry_equiv_pos_site_id
 _symmetry_equiv_pos_as_xyz
  1  'x, y, z'
loop_
 _atom_site_type_symbol
 _atom_site_label
 _atom_site_symmetry_multiplicity
 _atom_site_fract_x
 _atom_site_fract_y
 _atom_site_fract_z
 _atom_site_occupancy
  Sr  Sr0  1  0.333333  0.666667  0.366585  1
  Sr  Sr1  1  0.666667  0.333333  0.866585  1
  Tb  Tb2  1  0.333333  0.666667  0.736462  1
  Tb  Tb3  1  0.666667  0.333333  0.236462  1
  Si  Si4  1  0.825989  0.651977  0.546048  1
  Si  Si5  1  0.174011  0.825989  0.046048  1
  Si  Si6  1  0.651977  0.825989  0.046048  1
  Si  Si7  1  0.348023  0.174011  0.546048  1
  Si  Si8  1  0.825989  0.174011  0.546048  1
  Si  Si9  1  0.174011  0.348023  0.046048  1
  Si  Si10  1  0.000000  0.000000  0.814203  1
  Si  Si11  1  0.000000  0.000000  0.314203  1
  N  N12  1  0.000000  0.000000  0.623537  1
  N  N13  1  0.000000  0.000000  0.123537  1
  N  N14  1  0.152600  0.305200  0.873888  1
  N  N15  1  0.847400  0.152600  0.373888  1
  N  N16  1  0.305200  0.152600  0.373888  1
  N  N17  1  0.694800  0.847400  0.873888  1
  N  N18  1  0.152600  0.847400  0.873888  1
  N  N19  1  0.847400  0.694800  0.373888  1
  N  N20  1  0.976166  0.488084  0.597768  1
  N  N21  1  0.488084  0.976166  0.097768  1
  N  N22  1  0.488084  0.511916  0.097768  1
  N  N23  1  0.511916  0.488084  0.597768  1
  N  N24  1  0.023834  0.511916  0.097768  1
  N  N25  1  0.511916  0.023834  0.597768  1
