# generated using pymatgen
data_LaSmDy4Ta2O14
_symmetry_space_group_name_H-M   'P 1'
_cell_length_a   6.51050203
_cell_length_b   6.51050080
_cell_length_c   7.60713422
_cell_angle_alpha   89.97771882
_cell_angle_beta   90.02228639
_cell_angle_gamma   109.17630269
_symmetry_Int_Tables_number   1
_chemical_formula_structural   LaSmDy4Ta2O14
_chemical_formula_sum   'La1 Sm1 Dy4 Ta2 O14'
_cell_volume   304.54924416
_cell_formula_units_Z   1
loop_
 _symmetry_equiv_pos_site_id
 _symmetry_equiv_pos_as_xyz
  1  'x, y, z'
loop_
 _atom_site_type_symbol
 _atom_site_label
 _atom_site_symmetry_multiplicity
 _atom_site_fract_x
 _atom_site_fract_y
 _atom_site_fract_z
 _atom_site_occupancy
  La  La0  1  0.500000  0.500000  0.500000  1
  Sm  Sm1  1  0.500000  0.500000  0.000000  1
  Dy  Dy2  1  0.533458  0.000925  0.751833  1
  Dy  Dy3  1  0.000925  0.533458  0.248167  1
  Dy  Dy4  1  0.466542  0.999075  0.248167  1
  Dy  Dy5  1  0.999075  0.466542  0.751833  1
  Ta  Ta6  1  0.000000  0.000000  0.500000  1
  Ta  Ta7  1  0.000000  0.000000  0.000000  1
  O  O8  1  0.680486  0.933717  0.467463  1
  O  O9  1  0.933717  0.680486  0.532537  1
  O  O10  1  0.680100  0.930063  0.032056  1
  O  O11  1  0.930063  0.680100  0.967944  1
  O  O12  1  0.319514  0.066283  0.532537  1
  O  O13  1  0.066283  0.319514  0.467463  1
  O  O14  1  0.319900  0.069937  0.967944  1
  O  O15  1  0.069937  0.319900  0.032056  1
  O  O16  1  0.935647  0.064353  0.749983  1
  O  O17  1  0.064353  0.935647  0.250017  1
  O  O18  1  0.364175  0.635824  0.756341  1
  O  O19  1  0.635824  0.364175  0.243659  1
  O  O20  1  0.642432  0.357568  0.755166  1
  O  O21  1  0.357568  0.642432  0.244834  1
