# generated using pymatgen
data_La2Y6GePd24
_symmetry_space_group_name_H-M   'P 1'
_cell_length_a   8.41501533
_cell_length_b   8.41501533
_cell_length_c   8.41501533
_cell_angle_alpha   90.18231560
_cell_angle_beta   90.18231560
_cell_angle_gamma   90.18231560
_symmetry_Int_Tables_number   1
_chemical_formula_structural   La2Y6GePd24
_chemical_formula_sum   'La2 Y6 Ge1 Pd24'
_cell_volume   595.87906163
_cell_formula_units_Z   1
loop_
 _symmetry_equiv_pos_site_id
 _symmetry_equiv_pos_as_xyz
  1  'x, y, z'
loop_
 _atom_site_type_symbol
 _atom_site_label
 _atom_site_symmetry_multiplicity
 _atom_site_fract_x
 _atom_site_fract_y
 _atom_site_fract_z
 _atom_site_occupancy
  La  La0  1  0.254020  0.254020  0.254020  1
  La  La1  1  0.745980  0.745980  0.745980  1
  Y  Y2  1  0.746893  0.746893  0.252693  1
  Y  Y3  1  0.746893  0.252693  0.746893  1
  Y  Y4  1  0.253107  0.253107  0.747307  1
  Y  Y5  1  0.253107  0.747307  0.253107  1
  Y  Y6  1  0.252693  0.746893  0.746893  1
  Y  Y7  1  0.747307  0.253107  0.253107  1
  Ge  Ge8  1  0.000000  0.000000  0.000000  1
  Pd  Pd9  1  0.259723  0.501563  0.997354  1
  Pd  Pd10  1  0.740277  0.498437  0.002646  1
  Pd  Pd11  1  0.997354  0.259723  0.501563  1
  Pd  Pd12  1  0.501563  0.259723  0.997354  1
  Pd  Pd13  1  0.002646  0.740277  0.498437  1
  Pd  Pd14  1  0.498437  0.740277  0.002646  1
  Pd  Pd15  1  0.501563  0.997354  0.259723  1
  Pd  Pd16  1  0.259723  0.997354  0.501563  1
  Pd  Pd17  1  0.498437  0.002646  0.740277  1
  Pd  Pd18  1  0.740277  0.002646  0.498437  1
  Pd  Pd19  1  0.997354  0.501563  0.259723  1
  Pd  Pd20  1  0.002646  0.498437  0.740277  1
  Pd  Pd21  1  0.252989  0.502482  0.502482  1
  Pd  Pd22  1  0.747011  0.497518  0.497518  1
  Pd  Pd23  1  0.502482  0.252989  0.502482  1
  Pd  Pd24  1  0.497518  0.747011  0.497518  1
  Pd  Pd25  1  0.502482  0.502482  0.252989  1
  Pd  Pd26  1  0.497518  0.497518  0.747011  1
  Pd  Pd27  1  0.289548  0.997149  0.997149  1
  Pd  Pd28  1  0.710452  0.002851  0.002851  1
  Pd  Pd29  1  0.997149  0.289548  0.997149  1
  Pd  Pd30  1  0.002851  0.710452  0.002851  1
  Pd  Pd31  1  0.997149  0.997149  0.289548  1
  Pd  Pd32  1  0.002851  0.002851  0.710452  1
