# generated using pymatgen
data_ErNb2(SnRu2)3
_symmetry_space_group_name_H-M   'P 1'
_cell_length_a   4.56468101
_cell_length_b   6.48617400
_cell_length_c   13.67740800
_cell_angle_alpha   90.00000000
_cell_angle_beta   90.00386965
_cell_angle_gamma   90.00000000
_symmetry_Int_Tables_number   1
_chemical_formula_structural   ErNb2(SnRu2)3
_chemical_formula_sum   'Er2 Nb4 Sn6 Ru12'
_cell_volume   404.95133029
_cell_formula_units_Z   2
loop_
 _symmetry_equiv_pos_site_id
 _symmetry_equiv_pos_as_xyz
  1  'x, y, z'
loop_
 _atom_site_type_symbol
 _atom_site_label
 _atom_site_symmetry_multiplicity
 _atom_site_fract_x
 _atom_site_fract_y
 _atom_site_fract_z
 _atom_site_occupancy
  Er  Er0  1  0.999996  0.000000  0.998976  1
  Er  Er1  1  0.499946  0.500001  0.167914  1
  Nb  Nb2  1  0.999964  0.000000  0.333413  1
  Nb  Nb3  1  0.499998  0.500001  0.499385  1
  Nb  Nb4  1  0.000036  0.000000  0.667005  1
  Nb  Nb5  1  0.500041  0.500001  0.833307  1
  Sn  Sn6  1  0.000000  0.500001  0.001222  1
  Sn  Sn7  1  0.499968  0.000000  0.165563  1
  Sn  Sn8  1  0.999925  0.500001  0.335277  1
  Sn  Sn9  1  0.499994  0.000000  0.502801  1
  Sn  Sn10  1  0.000088  0.500001  0.663752  1
  Sn  Sn11  1  0.500043  0.000000  0.831395  1
  Ru  Ru12  1  0.499975  0.259331  0.991770  1
  Ru  Ru13  1  0.499975  0.740670  0.991770  1
  Ru  Ru14  1  0.999980  0.240690  0.175072  1
  Ru  Ru15  1  0.999980  0.759310  0.175072  1
  Ru  Ru16  1  0.499937  0.242556  0.341745  1
  Ru  Ru17  1  0.499937  0.757443  0.341745  1
  Ru  Ru18  1  0.999999  0.251070  0.501536  1
  Ru  Ru19  1  0.999999  0.748930  0.501536  1
  Ru  Ru20  1  0.500062  0.249104  0.664977  1
  Ru  Ru21  1  0.500062  0.750895  0.664977  1
  Ru  Ru22  1  0.000046  0.257578  0.824896  1
  Ru  Ru23  1  0.000046  0.742422  0.824896  1
