# generated using pymatgen
data_Sr6Co3OsO12
_symmetry_space_group_name_H-M   'P 1'
_cell_length_a   6.69073141
_cell_length_b   6.73777951
_cell_length_c   6.69860046
_cell_angle_alpha   92.37710456
_cell_angle_beta   92.73069125
_cell_angle_gamma   92.57250708
_symmetry_Int_Tables_number   1
_chemical_formula_structural   Sr6Co3OsO12
_chemical_formula_sum   'Sr6 Co3 Os1 O12'
_cell_volume   301.04256919
_cell_formula_units_Z   1
loop_
 _symmetry_equiv_pos_site_id
 _symmetry_equiv_pos_as_xyz
  1  'x, y, z'
loop_
 _atom_site_type_symbol
 _atom_site_label
 _atom_site_symmetry_multiplicity
 _atom_site_fract_x
 _atom_site_fract_y
 _atom_site_fract_z
 _atom_site_occupancy
  Sr  Sr0  1  0.881501  0.262337  0.609539  1
  Sr  Sr1  1  0.265606  0.608572  0.881852  1
  Sr  Sr2  1  0.608228  0.883670  0.262382  1
  Sr  Sr3  1  0.734942  0.391578  0.117544  1
  Sr  Sr4  1  0.391134  0.116960  0.735656  1
  Sr  Sr5  1  0.118408  0.738885  0.391169  1
  Co  Co6  1  0.747494  0.740107  0.737137  1
  Co  Co7  1  0.500414  0.499246  0.500367  1
  Co  Co8  1  0.252964  0.264722  0.257430  1
  Os  Os9  1  0.999390  0.999445  0.000992  1
  O  O10  1  0.220687  0.406566  0.537490  1
  O  O11  1  0.409325  0.543476  0.221491  1
  O  O12  1  0.540191  0.222033  0.406103  1
  O  O13  1  0.908257  0.717236  0.037815  1
  O  O14  1  0.718378  0.043673  0.915548  1
  O  O15  1  0.037391  0.912084  0.716229  1
  O  O16  1  0.780204  0.592230  0.462462  1
  O  O17  1  0.590412  0.455135  0.778525  1
  O  O18  1  0.461489  0.777318  0.595164  1
  O  O19  1  0.091561  0.282697  0.964312  1
  O  O20  1  0.280896  0.956035  0.085998  1
  O  O21  1  0.961129  0.085995  0.284798  1
