# generated using pymatgen
data_Tb5Y(Lu2Si3)2
_symmetry_space_group_name_H-M   'P 1'
_cell_length_a   8.40895700
_cell_length_b   8.40690229
_cell_length_c   6.26487200
_cell_angle_alpha   90.00000000
_cell_angle_beta   90.00000000
_cell_angle_gamma   120.00808132
_symmetry_Int_Tables_number   1
_chemical_formula_structural   Tb5Y(Lu2Si3)2
_chemical_formula_sum   'Tb5 Y1 Lu4 Si6'
_cell_volume   383.51786044
_cell_formula_units_Z   1
loop_
 _symmetry_equiv_pos_site_id
 _symmetry_equiv_pos_as_xyz
  1  'x, y, z'
loop_
 _atom_site_type_symbol
 _atom_site_label
 _atom_site_symmetry_multiplicity
 _atom_site_fract_x
 _atom_site_fract_y
 _atom_site_fract_z
 _atom_site_occupancy
  Tb  Tb0  1  0.000002  0.755461  0.750000  1
  Tb  Tb1  1  0.000009  0.244563  0.250000  1
  Tb  Tb2  1  0.755445  0.755437  0.250000  1
  Tb  Tb3  1  0.755423  0.000000  0.750000  1
  Tb  Tb4  1  0.244541  0.244539  0.750000  1
  Y  Y5  1  0.244573  0.000000  0.250000  1
  Lu  Lu6  1  0.333333  0.666687  0.499986  1
  Lu  Lu7  1  0.666647  0.333313  0.000014  1
  Lu  Lu8  1  0.666647  0.333313  0.499986  1
  Lu  Lu9  1  0.333333  0.666687  0.000014  1
  Si  Si10  1  0.395658  0.000000  0.750000  1
  Si  Si11  1  0.395605  0.395505  0.250000  1
  Si  Si12  1  0.000100  0.604495  0.250000  1
  Si  Si13  1  0.000032  0.395652  0.750000  1
  Si  Si14  1  0.604380  0.604348  0.750000  1
  Si  Si15  1  0.604272  0.000000  0.250000  1
