# generated using pymatgen
data_Hf5ZrGa6Pt5Rh
_symmetry_space_group_name_H-M   'P 1'
_cell_length_a   7.17502284
_cell_length_b   7.20569685
_cell_length_c   7.03075300
_cell_angle_alpha   90.00000000
_cell_angle_beta   90.00000000
_cell_angle_gamma   119.96101365
_symmetry_Int_Tables_number   1
_chemical_formula_structural   Hf5ZrGa6Pt5Rh
_chemical_formula_sum   'Hf5 Zr1 Ga6 Pt5 Rh1'
_cell_volume   314.92143893
_cell_formula_units_Z   1
loop_
 _symmetry_equiv_pos_site_id
 _symmetry_equiv_pos_as_xyz
  1  'x, y, z'
loop_
 _atom_site_type_symbol
 _atom_site_label
 _atom_site_symmetry_multiplicity
 _atom_site_fract_x
 _atom_site_fract_y
 _atom_site_fract_z
 _atom_site_occupancy
  Hf  Hf0  1  0.405995  0.383510  0.250000  1
  Hf  Hf1  1  0.387347  0.410666  0.750000  1
  Hf  Hf2  1  0.023132  0.612564  0.750000  1
  Hf  Hf3  1  0.977603  0.594064  0.250000  1
  Hf  Hf4  1  0.615695  0.022008  0.250000  1
  Zr  Zr5  1  0.589221  0.976014  0.750000  1
  Ga  Ga6  1  0.266495  0.999480  0.003394  1
  Ga  Ga7  1  0.266495  0.999480  0.496606  1
  Ga  Ga8  1  0.000422  0.266812  0.497081  1
  Ga  Ga9  1  0.000422  0.266812  0.002919  1
  Ga  Ga10  1  0.733324  0.733464  0.003097  1
  Ga  Ga11  1  0.733324  0.733464  0.496903  1
  Pt  Pt12  1  0.667137  0.335744  0.530990  1
  Pt  Pt13  1  0.002256  0.999753  0.750000  1
  Pt  Pt14  1  0.667137  0.335744  0.969010  1
  Pt  Pt15  1  0.331946  0.665178  0.034685  1
  Pt  Pt16  1  0.331946  0.665178  0.465315  1
  Rh  Rh17  1  0.000101  0.000064  0.250000  1
