# generated using pymatgen
data_RbInSn3O8
_symmetry_space_group_name_H-M   'P 1'
_cell_length_a   3.27115754
_cell_length_b   7.72608422
_cell_length_c   7.92027618
_cell_angle_alpha   87.11644826
_cell_angle_beta   101.83595328
_cell_angle_gamma   102.18125047
_symmetry_Int_Tables_number   1
_chemical_formula_structural   RbInSn3O8
_chemical_formula_sum   'Rb1 In1 Sn3 O8'
_cell_volume   191.49897252
_cell_formula_units_Z   1
loop_
 _symmetry_equiv_pos_site_id
 _symmetry_equiv_pos_as_xyz
  1  'x, y, z'
loop_
 _atom_site_type_symbol
 _atom_site_label
 _atom_site_symmetry_multiplicity
 _atom_site_fract_x
 _atom_site_fract_y
 _atom_site_fract_z
 _atom_site_occupancy
  Rb  Rb0  1  0.055590  0.006089  0.001840  1
  In  In1  1  0.167926  0.487056  0.815750  1
  Sn  Sn2  1  0.862677  0.515190  0.178876  1
  Sn  Sn3  1  0.675793  0.809980  0.511793  1
  Sn  Sn4  1  0.350473  0.185150  0.485388  1
  O  O5  1  0.351729  0.377165  0.294916  1
  O  O6  1  0.682453  0.629513  0.703134  1
  O  O7  1  0.966345  0.285112  0.617475  1
  O  O8  1  0.055321  0.704964  0.374919  1
  O  O9  1  0.372967  0.650154  0.063399  1
  O  O10  1  0.675382  0.354584  0.961941  1
  O  O11  1  0.717557  0.046800  0.357241  1
  O  O12  1  0.305786  0.948242  0.633327  1
