# generated using pymatgen
data_CaPr15(YSn4)4
_symmetry_space_group_name_H-M   'P 1'
_cell_length_a   8.20170314
_cell_length_b   8.47256719
_cell_length_c   16.07036566
_cell_angle_alpha   90.14056691
_cell_angle_beta   89.46865237
_cell_angle_gamma   90.15289981
_symmetry_Int_Tables_number   1
_chemical_formula_structural   CaPr15(YSn4)4
_chemical_formula_sum   'Ca1 Pr15 Y4 Sn16'
_cell_volume   1116.66607787
_cell_formula_units_Z   1
loop_
 _symmetry_equiv_pos_site_id
 _symmetry_equiv_pos_as_xyz
  1  'x, y, z'
loop_
 _atom_site_type_symbol
 _atom_site_label
 _atom_site_symmetry_multiplicity
 _atom_site_fract_x
 _atom_site_fract_y
 _atom_site_fract_z
 _atom_site_occupancy
  Ca  Ca0  1  0.328786  0.995203  0.250105  1
  Pr  Pr1  1  0.841750  0.665956  0.624819  1
  Pr  Pr2  1  0.653502  0.167004  0.377449  1
  Pr  Pr3  1  0.160541  0.328694  0.121212  1
  Pr  Pr4  1  0.659425  0.169193  0.122447  1
  Pr  Pr5  1  0.158080  0.331017  0.377081  1
  Pr  Pr6  1  0.343871  0.832513  0.625212  1
  Pr  Pr7  1  0.840185  0.667390  0.876574  1
  Pr  Pr8  1  0.497822  0.321559  0.902956  1
  Pr  Pr9  1  0.001923  0.180165  0.597988  1
  Pr  Pr10  1  0.499580  0.682238  0.403755  1
  Pr  Pr11  1  0.003947  0.819365  0.095509  1
  Pr  Pr12  1  0.501029  0.679982  0.095124  1
  Pr  Pr13  1  0.002004  0.819241  0.404015  1
  Pr  Pr14  1  0.500963  0.320607  0.598438  1
  Pr  Pr15  1  0.998416  0.179462  0.902850  1
  Y  Y16  1  0.336870  0.832270  0.873134  1
  Y  Y17  1  0.173540  0.498018  0.749439  1
  Y  Y18  1  0.671669  0.002343  0.749620  1
  Y  Y19  1  0.828247  0.503580  0.251372  1
  Sn  Sn20  1  0.321587  0.033308  0.034950  1
  Sn  Sn21  1  0.814591  0.465417  0.457060  1
  Sn  Sn22  1  0.686689  0.963734  0.542627  1
  Sn  Sn23  1  0.184391  0.538467  0.955587  1
  Sn  Sn24  1  0.668110  0.962321  0.956270  1
  Sn  Sn25  1  0.186864  0.535115  0.543110  1
  Sn  Sn26  1  0.312213  0.038253  0.462570  1
  Sn  Sn27  1  0.822504  0.466752  0.043532  1
  Sn  Sn28  1  0.534494  0.615405  0.752916  1
  Sn  Sn29  1  0.037208  0.889500  0.752299  1
  Sn  Sn30  1  0.463041  0.395065  0.249294  1
  Sn  Sn31  1  0.959012  0.111174  0.249291  1
  Sn  Sn32  1  0.304588  0.146368  0.752352  1
  Sn  Sn33  1  0.803988  0.351937  0.751356  1
  Sn  Sn34  1  0.704892  0.852216  0.249126  1
  Sn  Sn35  1  0.193678  0.639167  0.248561  1
