# generated using pymatgen
data_SrPr2B10O19
_symmetry_space_group_name_H-M   'P 1'
_cell_length_a   6.50175251
_cell_length_b   6.50175296
_cell_length_c   9.26622176
_cell_angle_alpha   88.25958345
_cell_angle_beta   91.74041611
_cell_angle_gamma   118.95596633
_symmetry_Int_Tables_number   1
_chemical_formula_structural   SrPr2B10O19
_chemical_formula_sum   'Sr1 Pr2 B10 O19'
_cell_volume   342.52920027
_cell_formula_units_Z   1
loop_
 _symmetry_equiv_pos_site_id
 _symmetry_equiv_pos_as_xyz
  1  'x, y, z'
loop_
 _atom_site_type_symbol
 _atom_site_label
 _atom_site_symmetry_multiplicity
 _atom_site_fract_x
 _atom_site_fract_y
 _atom_site_fract_z
 _atom_site_occupancy
  Sr  Sr0  1  0.811759  0.811759  0.500000  1
  Pr  Pr1  1  0.158255  0.833403  0.147820  1
  Pr  Pr2  1  0.833404  0.158254  0.852180  1
  B  B3  1  0.281331  0.365102  0.154879  1
  B  B4  1  0.365102  0.281331  0.845121  1
  B  B5  1  0.839905  0.190460  0.203475  1
  B  B6  1  0.190460  0.839905  0.796526  1
  B  B7  1  0.669358  0.441727  0.263274  1
  B  B8  1  0.441727  0.669358  0.736726  1
  B  B9  1  0.254827  0.786097  0.534599  1
  B  B10  1  0.786097  0.254827  0.465401  1
  B  B11  1  0.625966  0.761786  0.123271  1
  B  B12  1  0.761787  0.625965  0.876729  1
  O  O13  1  0.155479  0.860107  0.640828  1
  O  O14  1  0.860107  0.155479  0.359173  1
  O  O15  1  0.365193  0.594931  0.112108  1
  O  O16  1  0.594930  0.365194  0.887893  1
  O  O17  1  0.394610  0.688967  0.581558  1
  O  O18  1  0.688967  0.394610  0.418443  1
  O  O19  1  0.200345  0.805527  0.394261  1
  O  O20  1  0.805528  0.200344  0.605739  1
  O  O21  1  0.724050  0.690397  0.247999  1
  O  O22  1  0.690396  0.724051  0.752001  1
  O  O23  1  0.421608  0.279796  0.211729  1
  O  O24  1  0.279796  0.421608  0.788271  1
  O  O25  1  0.838684  0.411974  0.176441  1
  O  O26  1  0.411974  0.838685  0.823558  1
  O  O27  1  0.048866  0.199830  0.127991  1
  O  O28  1  0.199829  0.048866  0.872009  1
  O  O29  1  0.634466  0.991531  0.134142  1
  O  O30  1  0.991532  0.634465  0.865857  1
  O  O31  1  0.768560  0.768560  0.000000  1
