# generated using pymatgen
data_La2Y2LuRu2
_symmetry_space_group_name_H-M   'P 1'
_cell_length_a   6.53071698
_cell_length_b   7.20644009
_cell_length_c   8.79110642
_cell_angle_alpha   96.20934084
_cell_angle_beta   111.80437757
_cell_angle_gamma   90.00000595
_symmetry_Int_Tables_number   1
_chemical_formula_structural   La2Y2LuRu2
_chemical_formula_sum   'La4 Y4 Lu2 Ru4'
_cell_volume   381.52239751
_cell_formula_units_Z   2
loop_
 _symmetry_equiv_pos_site_id
 _symmetry_equiv_pos_as_xyz
  1  'x, y, z'
loop_
 _atom_site_type_symbol
 _atom_site_label
 _atom_site_symmetry_multiplicity
 _atom_site_fract_x
 _atom_site_fract_y
 _atom_site_fract_z
 _atom_site_occupancy
  La  La0  1  0.523289  0.091414  0.808174  1
  La  La1  1  0.476711  0.908586  0.191826  1
  La  La2  1  0.715116  0.408586  0.191826  1
  La  La3  1  0.284884  0.591414  0.808174  1
  Y  Y4  1  0.296030  0.313069  0.428342  1
  Y  Y5  1  0.703970  0.686931  0.571658  1
  Y  Y6  1  0.867690  0.186931  0.571658  1
  Y  Y7  1  0.132310  0.813069  0.428342  1
  Lu  Lu8  1  0.071435  0.250000  0.000000  1
  Lu  Lu9  1  0.928565  0.750000  0.000000  1
  Ru  Ru10  1  0.322366  0.580701  0.218831  1
  Ru  Ru11  1  0.677634  0.419299  0.781169  1
  Ru  Ru12  1  0.103537  0.919299  0.781169  1
  Ru  Ru13  1  0.896463  0.080701  0.218831  1
