# generated using pymatgen
data_K2Ti2Se9
_symmetry_space_group_name_H-M   'P 1'
_cell_length_a   15.23769500
_cell_length_b   13.11534872
_cell_length_c   14.02294200
_cell_angle_alpha   85.58910662
_cell_angle_beta   90.00000000
_cell_angle_gamma   90.00000000
_symmetry_Int_Tables_number   1
_chemical_formula_structural   K2Ti2Se9
_chemical_formula_sum   'K16 Ti16 Se72'
_cell_volume   2794.15202707
_cell_formula_units_Z   8
loop_
 _symmetry_equiv_pos_site_id
 _symmetry_equiv_pos_as_xyz
  1  'x, y, z'
loop_
 _atom_site_type_symbol
 _atom_site_label
 _atom_site_symmetry_multiplicity
 _atom_site_fract_x
 _atom_site_fract_y
 _atom_site_fract_z
 _atom_site_occupancy
  K  K0  1  0.959001  0.185371  0.415259  1
  K  K1  1  0.730277  0.308693  0.563807  1
  K  K2  1  0.480280  0.153522  0.317802  1
  K  K3  1  0.264291  0.363455  0.604582  1
  K  K4  1  0.764291  0.636545  0.395418  1
  K  K5  1  0.490955  0.868298  0.179215  1
  K  K6  1  0.488504  0.173315  0.957568  1
  K  K7  1  0.230277  0.691307  0.436193  1
  K  K8  1  0.980280  0.846478  0.682198  1
  K  K9  1  0.459001  0.814629  0.584741  1
  K  K10  1  0.990955  0.131702  0.820785  1
  K  K11  1  0.254036  0.354887  0.113527  1
  K  K12  1  0.754036  0.645113  0.886473  1
  K  K13  1  0.688790  0.322572  0.162291  1
  K  K14  1  0.188790  0.677428  0.837709  1
  K  K15  1  0.988504  0.826685  0.042432  1
  Ti  Ti16  1  0.247303  0.991173  0.507354  1
  Ti  Ti17  1  0.747303  0.008827  0.492646  1
  Ti  Ti18  1  0.966561  0.513793  0.740305  1
  Ti  Ti19  1  0.709808  0.008927  0.991629  1
  Ti  Ti20  1  0.736640  0.026541  0.748131  1
  Ti  Ti21  1  0.965275  0.484329  0.499671  1
  Ti  Ti22  1  0.973191  0.511735  0.997743  1
  Ti  Ti23  1  0.466561  0.486207  0.259695  1
  Ti  Ti24  1  0.473191  0.488265  0.002257  1
  Ti  Ti25  1  0.209808  0.991073  0.008371  1
  Ti  Ti26  1  0.221621  0.988057  0.749898  1
  Ti  Ti27  1  0.236640  0.973459  0.251869  1
  Ti  Ti28  1  0.458254  0.511203  0.759504  1
  Ti  Ti29  1  0.958254  0.488797  0.240496  1
  Ti  Ti30  1  0.465275  0.515671  0.500329  1
  Ti  Ti31  1  0.721621  0.011943  0.250102  1
  Se  Se32  1  0.905677  0.674772  0.222534  1
  Se  Se33  1  0.568957  0.661477  0.475228  1
  Se  Se34  1  0.567652  0.448908  0.636411  1
  Se  Se35  1  0.068957  0.338523  0.524772  1
  Se  Se36  1  0.315852  0.064302  0.876069  1
  Se  Se37  1  0.338788  0.057468  0.125895  1
  Se  Se38  1  0.636338  0.493412  0.000837  1
  Se  Se39  1  0.961588  0.647971  0.859108  1
  Se  Se40  1  0.364867  0.915610  0.976496  1
  Se  Se41  1  0.461588  0.352029  0.140892  1
  Se  Se42  1  0.078546  0.583893  0.618717  1
  Se  Se43  1  0.864867  0.084390  0.023504  1
  Se  Se44  1  0.119617  0.914746  0.877239  1
  Se  Se45  1  0.066310  0.602923  0.115264  1
  Se  Se46  1  0.597213  0.962259  0.870658  1
  Se  Se47  1  0.450392  0.654869  0.364196  1
  Se  Se48  1  0.080861  0.356095  0.255595  1
  Se  Se49  1  0.628351  0.534883  0.249363  1
  Se  Se50  1  0.223991  0.836940  0.636830  1
  Se  Se51  1  0.986435  0.677071  0.446705  1
  Se  Se52  1  0.227494  0.828646  0.133436  1
  Se  Se53  1  0.305158  0.539574  0.263019  1
  Se  Se54  1  0.832141  0.156751  0.236997  1
  Se  Se55  1  0.590419  0.077703  0.518970  1
  Se  Se56  1  0.580861  0.643905  0.744405  1
  Se  Se57  1  0.838788  0.942532  0.874105  1
  Se  Se58  1  0.777961  0.838736  0.750285  1
  Se  Se59  1  0.836570  0.093508  0.616341  1
  Se  Se60  1  0.136338  0.506588  0.999163  1
  Se  Se61  1  0.618497  0.163030  0.744290  1
  Se  Se62  1  0.353378  0.419508  0.389492  1
  Se  Se63  1  0.346185  0.612733  0.032031  1
  Se  Se64  1  0.861326  0.422064  0.378216  1
  Se  Se65  1  0.361326  0.577936  0.621784  1
  Se  Se66  1  0.140835  0.163802  0.006900  1
  Se  Se67  1  0.332141  0.843249  0.763003  1
  Se  Se68  1  0.566310  0.397077  0.884736  1
  Se  Se69  1  0.825070  0.840078  0.502119  1
  Se  Se70  1  0.277961  0.161264  0.249715  1
  Se  Se71  1  0.971324  0.346125  0.131602  1
  Se  Se72  1  0.845153  0.563899  0.111233  1
  Se  Se73  1  0.362307  0.039205  0.627538  1
  Se  Se74  1  0.980885  0.373287  0.878670  1
  Se  Se75  1  0.471324  0.653875  0.868398  1
  Se  Se76  1  0.950392  0.345131  0.635804  1
  Se  Se77  1  0.619617  0.085254  0.122761  1
  Se  Se78  1  0.727494  0.171354  0.866564  1
  Se  Se79  1  0.486435  0.322929  0.553295  1
  Se  Se80  1  0.578546  0.416107  0.381283  1
  Se  Se81  1  0.687853  0.821929  0.257555  1
  Se  Se82  1  0.622208  0.926747  0.375968  1
  Se  Se83  1  0.853378  0.580492  0.610508  1
  Se  Se84  1  0.128351  0.465117  0.750637  1
  Se  Se85  1  0.067652  0.551092  0.363589  1
  Se  Se86  1  0.405677  0.325228  0.777466  1
  Se  Se87  1  0.815852  0.935698  0.123931  1
  Se  Se88  1  0.345153  0.436101  0.888767  1
  Se  Se89  1  0.122208  0.073253  0.624032  1
  Se  Se90  1  0.187853  0.178071  0.742445  1
  Se  Se91  1  0.118497  0.836970  0.255710  1
  Se  Se92  1  0.640835  0.836198  0.993100  1
  Se  Se93  1  0.480885  0.626713  0.121330  1
  Se  Se94  1  0.805158  0.460426  0.736981  1
  Se  Se95  1  0.325070  0.159922  0.497881  1
  Se  Se96  1  0.336570  0.906492  0.383659  1
  Se  Se97  1  0.144549  0.062700  0.372794  1
  Se  Se98  1  0.644549  0.937300  0.627206  1
  Se  Se99  1  0.090419  0.922297  0.481030  1
  Se  Se100  1  0.097213  0.037741  0.129342  1
  Se  Se101  1  0.723991  0.163060  0.363170  1
  Se  Se102  1  0.862307  0.960795  0.372462  1
  Se  Se103  1  0.846185  0.387267  0.967969  1
