# generated using pymatgen
data_Y3Lu5(AlCo)2
_symmetry_space_group_name_H-M   'P 1'
_cell_length_a   9.32045902
_cell_length_b   9.32045858
_cell_length_c   9.32045900
_cell_angle_alpha   59.99999496
_cell_angle_beta   59.99999651
_cell_angle_gamma   59.99999408
_symmetry_Int_Tables_number   1
_chemical_formula_structural   Y3Lu5(AlCo)2
_chemical_formula_sum   'Y6 Lu10 Al4 Co4'
_cell_volume   572.52813972
_cell_formula_units_Z   2
loop_
 _symmetry_equiv_pos_site_id
 _symmetry_equiv_pos_as_xyz
  1  'x, y, z'
loop_
 _atom_site_type_symbol
 _atom_site_label
 _atom_site_symmetry_multiplicity
 _atom_site_fract_x
 _atom_site_fract_y
 _atom_site_fract_z
 _atom_site_occupancy
  Y  Y0  1  0.189835  0.810165  0.810165  1
  Y  Y1  1  0.810165  0.189835  0.189835  1
  Y  Y2  1  0.810165  0.189835  0.810165  1
  Y  Y3  1  0.189835  0.810165  0.189835  1
  Y  Y4  1  0.810165  0.810165  0.189835  1
  Y  Y5  1  0.189835  0.189835  0.810165  1
  Lu  Lu6  1  0.599450  0.599450  0.599450  1
  Lu  Lu7  1  0.599450  0.599450  0.201651  1
  Lu  Lu8  1  0.599450  0.201651  0.599450  1
  Lu  Lu9  1  0.201651  0.599450  0.599450  1
  Lu  Lu10  1  0.058921  0.441079  0.441079  1
  Lu  Lu11  1  0.441079  0.058921  0.058921  1
  Lu  Lu12  1  0.441079  0.058921  0.441079  1
  Lu  Lu13  1  0.058921  0.441079  0.058921  1
  Lu  Lu14  1  0.441079  0.441079  0.058921  1
  Lu  Lu15  1  0.058921  0.058921  0.441079  1
  Al  Al16  1  0.827529  0.827529  0.827529  1
  Al  Al17  1  0.827529  0.827529  0.517412  1
  Al  Al18  1  0.827529  0.517412  0.827529  1
  Al  Al19  1  0.517412  0.827529  0.827529  1
  Co  Co20  1  0.391116  0.391116  0.391116  1
  Co  Co21  1  0.391116  0.391116  0.826654  1
  Co  Co22  1  0.391116  0.826654  0.391116  1
  Co  Co23  1  0.826654  0.391116  0.391116  1
