# generated using pymatgen
data_GdTh7Se12
_symmetry_space_group_name_H-M   'P 1'
_cell_length_a   11.36106608
_cell_length_b   4.06654400
_cell_length_c   11.38882279
_cell_angle_alpha   90.00000000
_cell_angle_beta   89.60542195
_cell_angle_gamma   90.00000000
_symmetry_Int_Tables_number   1
_chemical_formula_structural   GdTh7Se12
_chemical_formula_sum   'Gd1 Th7 Se12'
_cell_volume   526.15426893
_cell_formula_units_Z   1
loop_
 _symmetry_equiv_pos_site_id
 _symmetry_equiv_pos_as_xyz
  1  'x, y, z'
loop_
 _atom_site_type_symbol
 _atom_site_label
 _atom_site_symmetry_multiplicity
 _atom_site_fract_x
 _atom_site_fract_y
 _atom_site_fract_z
 _atom_site_occupancy
  Gd  Gd0  1  0.480234  0.250000  0.186310  1
  Th  Th1  1  0.980174  0.250000  0.315201  1
  Th  Th2  1  0.519873  0.750000  0.815212  1
  Th  Th3  1  0.019732  0.750000  0.684778  1
  Th  Th4  1  0.697728  0.750000  0.483084  1
  Th  Th5  1  0.196192  0.750000  0.012422  1
  Th  Th6  1  0.303791  0.250000  0.510713  1
  Th  Th7  1  0.800029  0.250000  0.990622  1
  Se  Se8  1  0.552783  0.250000  0.621580  1
  Se  Se9  1  0.051624  0.250000  0.877953  1
  Se  Se10  1  0.449944  0.750000  0.374885  1
  Se  Se11  1  0.947772  0.750000  0.122945  1
  Se  Se12  1  0.619297  0.750000  0.057147  1
  Se  Se13  1  0.123146  0.750000  0.443715  1
  Se  Se14  1  0.378707  0.250000  0.947430  1
  Se  Se15  1  0.876478  0.250000  0.556496  1
  Se  Se16  1  0.720354  0.250000  0.292432  1
  Se  Se17  1  0.220980  0.250000  0.204458  1
  Se  Se18  1  0.280527  0.750000  0.704616  1
  Se  Se19  1  0.780634  0.750000  0.798000  1
