# generated using pymatgen
data_Sr3Os4PbO16
_symmetry_space_group_name_H-M   'P 1'
_cell_length_a   5.09063563
_cell_length_b   5.56607944
_cell_length_c   13.90111405
_cell_angle_alpha   69.36450660
_cell_angle_beta   89.99346167
_cell_angle_gamma   90.32943202
_symmetry_Int_Tables_number   1
_chemical_formula_structural   Sr3Os4PbO16
_chemical_formula_sum   'Sr3 Os4 Pb1 O16'
_cell_volume   368.60817115
_cell_formula_units_Z   1
loop_
 _symmetry_equiv_pos_site_id
 _symmetry_equiv_pos_as_xyz
  1  'x, y, z'
loop_
 _atom_site_type_symbol
 _atom_site_label
 _atom_site_symmetry_multiplicity
 _atom_site_fract_x
 _atom_site_fract_y
 _atom_site_fract_z
 _atom_site_occupancy
  Sr  Sr0  1  0.717622  0.146290  0.341140  1
  Sr  Sr1  1  0.220725  0.855092  0.156335  1
  Sr  Sr2  1  0.284135  0.844356  0.659101  1
  Os  Os3  1  0.251080  0.581241  0.424578  1
  Os  Os4  1  0.752846  0.420495  0.075186  1
  Os  Os5  1  0.750993  0.412971  0.573860  1
  Os  Os6  1  0.252424  0.582081  0.926560  1
  Pb  Pb7  1  0.771263  0.157224  0.839006  1
  O  O8  1  0.541759  0.727538  0.471198  1
  O  O9  1  0.048909  0.275715  0.031698  1
  O  O10  1  0.447871  0.274374  0.529822  1
  O  O11  1  0.959756  0.726945  0.971056  1
  O  O12  1  0.942820  0.370900  0.450722  1
  O  O13  1  0.449915  0.633714  0.047457  1
  O  O14  1  0.047832  0.633811  0.547449  1
  O  O15  1  0.556735  0.368622  0.952626  1
  O  O16  1  0.131365  0.896054  0.332906  1
  O  O17  1  0.630353  0.105963  0.167601  1
  O  O18  1  0.868030  0.101608  0.666052  1
  O  O19  1  0.375396  0.893421  0.831639  1
  O  O20  1  0.377940  0.492912  0.318239  1
  O  O21  1  0.877549  0.510612  0.182165  1
  O  O22  1  0.621651  0.497363  0.683266  1
  O  O23  1  0.121032  0.490698  0.820336  1
