# generated using pymatgen
data_Zr18VCu2Re7
_symmetry_space_group_name_H-M   'P 1'
_cell_length_a   8.72689700
_cell_length_b   8.72689718
_cell_length_c   8.53432100
_cell_angle_alpha   90.00000000
_cell_angle_beta   90.00000000
_cell_angle_gamma   119.99999551
_symmetry_Int_Tables_number   1
_chemical_formula_structural   Zr18VCu2Re7
_chemical_formula_sum   'Zr18 V1 Cu2 Re7'
_cell_volume   562.88455836
_cell_formula_units_Z   1
loop_
 _symmetry_equiv_pos_site_id
 _symmetry_equiv_pos_as_xyz
  1  'x, y, z'
loop_
 _atom_site_type_symbol
 _atom_site_label
 _atom_site_symmetry_multiplicity
 _atom_site_fract_x
 _atom_site_fract_y
 _atom_site_fract_z
 _atom_site_occupancy
  Zr  Zr0  1  0.194236  0.805764  0.446145  1
  Zr  Zr1  1  0.194236  0.388472  0.446145  1
  Zr  Zr2  1  0.611528  0.805764  0.446145  1
  Zr  Zr3  1  0.805764  0.194236  0.553855  1
  Zr  Zr4  1  0.805764  0.611528  0.553855  1
  Zr  Zr5  1  0.388472  0.194236  0.553855  1
  Zr  Zr6  1  0.805172  0.194828  0.944325  1
  Zr  Zr7  1  0.805172  0.610345  0.944325  1
  Zr  Zr8  1  0.389655  0.194828  0.944325  1
  Zr  Zr9  1  0.194828  0.805172  0.055675  1
  Zr  Zr10  1  0.194828  0.389655  0.055675  1
  Zr  Zr11  1  0.610345  0.805172  0.055675  1
  Zr  Zr12  1  0.542164  0.457836  0.249511  1
  Zr  Zr13  1  0.542164  0.084328  0.249511  1
  Zr  Zr14  1  0.915672  0.457836  0.249511  1
  Zr  Zr15  1  0.457836  0.542164  0.750489  1
  Zr  Zr16  1  0.457836  0.915672  0.750489  1
  Zr  Zr17  1  0.084328  0.542164  0.750489  1
  V  V18  1  0.000000  0.000000  0.500000  1
  Cu  Cu19  1  0.333333  0.666667  0.251255  1
  Cu  Cu20  1  0.666667  0.333333  0.748745  1
  Re  Re21  1  0.892091  0.107909  0.253052  1
  Re  Re22  1  0.892091  0.784181  0.253052  1
  Re  Re23  1  0.215819  0.107909  0.253052  1
  Re  Re24  1  0.107909  0.892091  0.746948  1
  Re  Re25  1  0.107909  0.215819  0.746948  1
  Re  Re26  1  0.784181  0.892091  0.746948  1
  Re  Re27  1  0.000000  0.000000  0.000000  1
