# generated using pymatgen
data_NbHgF7
_symmetry_space_group_name_H-M   'P 1'
_cell_length_a   10.53291300
_cell_length_b   7.48277136
_cell_length_c   8.23446515
_cell_angle_alpha   77.83505616
_cell_angle_beta   90.00000000
_cell_angle_gamma   90.00000000
_symmetry_Int_Tables_number   1
_chemical_formula_structural   NbHgF7
_chemical_formula_sum   'Nb4 Hg4 F28'
_cell_volume   634.42915278
_cell_formula_units_Z   4
loop_
 _symmetry_equiv_pos_site_id
 _symmetry_equiv_pos_as_xyz
  1  'x, y, z'
loop_
 _atom_site_type_symbol
 _atom_site_label
 _atom_site_symmetry_multiplicity
 _atom_site_fract_x
 _atom_site_fract_y
 _atom_site_fract_z
 _atom_site_occupancy
  Nb  Nb0  1  0.564863  0.194913  0.202822  1
  Nb  Nb1  1  0.064863  0.805087  0.297178  1
  Nb  Nb2  1  0.435137  0.805087  0.797178  1
  Nb  Nb3  1  0.935137  0.194913  0.702822  1
  Hg  Hg4  1  0.249389  0.279506  0.908614  1
  Hg  Hg5  1  0.749389  0.720494  0.591386  1
  Hg  Hg6  1  0.750611  0.720494  0.091386  1
  Hg  Hg7  1  0.250611  0.279506  0.408614  1
  F  F8  1  0.703475  0.368070  0.146214  1
  F  F9  1  0.203475  0.631930  0.353786  1
  F  F10  1  0.296525  0.631930  0.853786  1
  F  F11  1  0.796525  0.368070  0.646214  1
  F  F12  1  0.645191  0.066256  0.401472  1
  F  F13  1  0.145191  0.933744  0.098528  1
  F  F14  1  0.354809  0.933744  0.598528  1
  F  F15  1  0.854809  0.066256  0.901472  1
  F  F16  1  0.479641  0.308857  0.994454  1
  F  F17  1  0.979641  0.691143  0.505546  1
  F  F18  1  0.520359  0.691143  0.005546  1
  F  F19  1  0.020359  0.308857  0.494454  1
  F  F20  1  0.410902  0.053887  0.256122  1
  F  F21  1  0.910902  0.946113  0.243878  1
  F  F22  1  0.589098  0.946113  0.743878  1
  F  F23  1  0.089098  0.053887  0.756122  1
  F  F24  1  0.635509  0.015508  0.089202  1
  F  F25  1  0.135509  0.984492  0.410798  1
  F  F26  1  0.364491  0.984492  0.910798  1
  F  F27  1  0.864491  0.015508  0.589202  1
  F  F28  1  0.480760  0.364367  0.320024  1
  F  F29  1  0.980760  0.635633  0.179976  1
  F  F30  1  0.519240  0.635633  0.679976  1
  F  F31  1  0.019240  0.364367  0.820024  1
  F  F32  1  0.196614  0.316689  0.150412  1
  F  F33  1  0.696614  0.683311  0.349588  1
  F  F34  1  0.803386  0.683311  0.849588  1
  F  F35  1  0.303386  0.316689  0.650412  1
