# generated using pymatgen
data_NdNb8AgSe16
_symmetry_space_group_name_H-M   'P 1'
_cell_length_a   7.01907400
_cell_length_b   7.01907589
_cell_length_c   14.35568900
_cell_angle_alpha   90.00000000
_cell_angle_beta   90.00000000
_cell_angle_gamma   120.00000052
_symmetry_Int_Tables_number   1
_chemical_formula_structural   NdNb8AgSe16
_chemical_formula_sum   'Nd1 Nb8 Ag1 Se16'
_cell_volume   612.51175768
_cell_formula_units_Z   1
loop_
 _symmetry_equiv_pos_site_id
 _symmetry_equiv_pos_as_xyz
  1  'x, y, z'
loop_
 _atom_site_type_symbol
 _atom_site_label
 _atom_site_symmetry_multiplicity
 _atom_site_fract_x
 _atom_site_fract_y
 _atom_site_fract_z
 _atom_site_occupancy
  Nd  Nd0  1  0.000000  0.000000  0.000000  1
  Nb  Nb1  1  0.000000  0.000000  0.257580  1
  Nb  Nb2  1  0.000000  0.000000  0.742420  1
  Nb  Nb3  1  0.509729  0.019456  0.259263  1
  Nb  Nb4  1  0.490271  0.980544  0.740737  1
  Nb  Nb5  1  0.980544  0.490271  0.259263  1
  Nb  Nb6  1  0.019456  0.509729  0.740737  1
  Nb  Nb7  1  0.509729  0.490271  0.259263  1
  Nb  Nb8  1  0.490271  0.509729  0.740737  1
  Ag  Ag9  1  0.000000  0.000000  0.500000  1
  Se  Se10  1  0.333333  0.666667  0.619189  1
  Se  Se11  1  0.666667  0.333333  0.380811  1
  Se  Se12  1  0.666667  0.333333  0.135268  1
  Se  Se13  1  0.333333  0.666667  0.864732  1
  Se  Se14  1  0.170511  0.341022  0.143773  1
  Se  Se15  1  0.829489  0.658978  0.856227  1
  Se  Se16  1  0.658978  0.829489  0.143773  1
  Se  Se17  1  0.829754  0.659507  0.627376  1
  Se  Se18  1  0.341022  0.170511  0.856227  1
  Se  Se19  1  0.170246  0.340493  0.372624  1
  Se  Se20  1  0.170511  0.829489  0.143773  1
  Se  Se21  1  0.340493  0.170246  0.627376  1
  Se  Se22  1  0.829489  0.170511  0.856227  1
  Se  Se23  1  0.659507  0.829754  0.372624  1
  Se  Se24  1  0.829754  0.170246  0.627376  1
  Se  Se25  1  0.170246  0.829754  0.372624  1
