# generated using pymatgen
data_Fe4SnPbBr16
_symmetry_space_group_name_H-M   'P 1'
_cell_length_a   10.88538859
_cell_length_b   10.88538916
_cell_length_c   13.05150300
_cell_angle_alpha   55.04908800
_cell_angle_beta   55.04908588
_cell_angle_gamma   49.34745535
_symmetry_Int_Tables_number   1
_chemical_formula_structural   Fe4SnPbBr16
_chemical_formula_sum   'Fe4 Sn1 Pb1 Br16'
_cell_volume   910.75531989
_cell_formula_units_Z   1
loop_
 _symmetry_equiv_pos_site_id
 _symmetry_equiv_pos_as_xyz
  1  'x, y, z'
loop_
 _atom_site_type_symbol
 _atom_site_label
 _atom_site_symmetry_multiplicity
 _atom_site_fract_x
 _atom_site_fract_y
 _atom_site_fract_z
 _atom_site_occupancy
  Fe  Fe0  1  0.345506  0.837338  0.461623  1
  Fe  Fe1  1  0.162662  0.654494  0.038377  1
  Fe  Fe2  1  0.659002  0.163990  0.541921  1
  Fe  Fe3  1  0.836010  0.340998  0.958079  1
  Sn  Sn4  1  0.000562  0.999438  0.750000  1
  Pb  Pb5  1  0.004605  0.995395  0.250000  1
  Br  Br6  1  0.618639  0.694620  0.463643  1
  Br  Br7  1  0.305380  0.381361  0.036357  1
  Br  Br8  1  0.379258  0.308670  0.552825  1
  Br  Br9  1  0.691330  0.620742  0.947175  1
  Br  Br10  1  0.194788  0.119997  0.468947  1
  Br  Br11  1  0.880003  0.805212  0.031053  1
  Br  Br12  1  0.800583  0.881453  0.538861  1
  Br  Br13  1  0.118547  0.199417  0.961139  1
  Br  Br14  1  0.352486  0.843562  0.272934  1
  Br  Br15  1  0.156438  0.647514  0.227066  1
  Br  Br16  1  0.657426  0.154390  0.729319  1
  Br  Br17  1  0.845610  0.342574  0.770681  1
  Br  Br18  1  0.176252  0.711143  0.661340  1
  Br  Br19  1  0.288857  0.823748  0.838660  1
  Br  Br20  1  0.821192  0.295136  0.340085  1
  Br  Br21  1  0.704864  0.178808  0.159915  1
