# generated using pymatgen
data_Tb9Y(GaCo5)2
_symmetry_space_group_name_H-M   'P 1'
_cell_length_a   5.50448043
_cell_length_b   5.50447965
_cell_length_c   20.58075805
_cell_angle_alpha   90.00608018
_cell_angle_beta   89.99392026
_cell_angle_gamma   137.07988592
_symmetry_Int_Tables_number   1
_chemical_formula_structural   Tb9Y(GaCo5)2
_chemical_formula_sum   'Tb9 Y1 Ga2 Co10'
_cell_volume   424.64600499
_cell_formula_units_Z   1
loop_
 _symmetry_equiv_pos_site_id
 _symmetry_equiv_pos_as_xyz
  1  'x, y, z'
loop_
 _atom_site_type_symbol
 _atom_site_label
 _atom_site_symmetry_multiplicity
 _atom_site_fract_x
 _atom_site_fract_y
 _atom_site_fract_z
 _atom_site_occupancy
  Tb  Tb0  1  0.289056  0.710944  0.249843  1
  Tb  Tb1  1  0.291789  0.708211  0.065699  1
  Tb  Tb2  1  0.996781  0.003219  0.843312  1
  Tb  Tb3  1  0.710650  0.289350  0.750217  1
  Tb  Tb4  1  0.708502  0.291498  0.565766  1
  Tb  Tb5  1  0.003096  0.996904  0.343065  1
  Tb  Tb6  1  0.997129  0.002871  0.657045  1
  Tb  Tb7  1  0.708312  0.291688  0.934284  1
  Tb  Tb8  1  0.003020  0.996980  0.156815  1
  Y  Y9  1  0.292069  0.707931  0.434311  1
  Ga  Ga10  1  0.000057  0.999943  0.499902  1
  Ga  Ga11  1  0.999920  0.000080  0.999970  1
  Co  Co12  1  0.294745  0.705255  0.654353  1
  Co  Co13  1  0.582309  0.417691  0.441359  1
  Co  Co14  1  0.412434  0.587566  0.750178  1
  Co  Co15  1  0.418139  0.581861  0.941680  1
  Co  Co16  1  0.586727  0.413273  0.249633  1
  Co  Co17  1  0.418578  0.581422  0.558866  1
  Co  Co18  1  0.704747  0.295253  0.345391  1
  Co  Co19  1  0.705851  0.294149  0.154061  1
  Co  Co20  1  0.581942  0.418058  0.058298  1
  Co  Co21  1  0.294150  0.705850  0.845953  1
