# generated using pymatgen
data_SrZn10Ni
_symmetry_space_group_name_H-M   'P 1'
_cell_length_a   6.82214612
_cell_length_b   8.32636539
_cell_length_c   8.33714481
_cell_angle_alpha   99.69232156
_cell_angle_beta   65.84907595
_cell_angle_gamma   114.29840968
_symmetry_Int_Tables_number   1
_chemical_formula_structural   SrZn10Ni
_chemical_formula_sum   'Sr2 Zn20 Ni2'
_cell_volume   393.84821071
_cell_formula_units_Z   2
loop_
 _symmetry_equiv_pos_site_id
 _symmetry_equiv_pos_as_xyz
  1  'x, y, z'
loop_
 _atom_site_type_symbol
 _atom_site_label
 _atom_site_symmetry_multiplicity
 _atom_site_fract_x
 _atom_site_fract_y
 _atom_site_fract_z
 _atom_site_occupancy
  Sr  Sr0  1  0.123159  0.749991  0.253724  1
  Sr  Sr1  1  0.876884  0.249991  0.746276  1
  Zn  Zn2  1  0.356123  0.169311  0.075995  1
  Zn  Zn3  1  0.068022  0.330799  0.075961  1
  Zn  Zn4  1  0.691219  0.418095  0.157513  1
  Zn  Zn5  1  0.651335  0.081837  0.157446  1
  Zn  Zn6  1  0.635998  0.750034  0.228012  1
  Zn  Zn7  1  0.239630  0.428085  0.322426  1
  Zn  Zn8  1  0.937810  0.071801  0.322348  1
  Zn  Zn9  1  0.777099  0.336062  0.416129  1
  Zn  Zn10  1  0.306613  0.163814  0.416105  1
  Zn  Zn11  1  0.499919  0.999916  0.499975  1
  Zn  Zn12  1  0.499895  0.499916  0.500025  1
  Zn  Zn13  1  0.222719  0.663814  0.583895  1
  Zn  Zn14  1  0.693228  0.836062  0.583872  1
  Zn  Zn15  1  0.760158  0.571801  0.677652  1
  Zn  Zn16  1  0.062055  0.928084  0.677574  1
  Zn  Zn17  1  0.364010  0.250034  0.771988  1
  Zn  Zn18  1  0.308781  0.581838  0.842554  1
  Zn  Zn19  1  0.348732  0.918095  0.842487  1
  Zn  Zn20  1  0.932118  0.669311  0.924004  1
  Zn  Zn21  1  0.643981  0.830799  0.924039  1
  Ni  Ni22  1  0.000351  0.000255  0.999806  1
  Ni  Ni23  1  0.500157  0.500255  0.000194  1
