# generated using pymatgen
data_Ho4Al18CuRuRh4
_symmetry_space_group_name_H-M   'P 1'
_cell_length_a   7.56491203
_cell_length_b   7.56491156
_cell_length_c   9.45733264
_cell_angle_alpha   90.13445780
_cell_angle_beta   90.13447006
_cell_angle_gamma   119.60277055
_symmetry_Int_Tables_number   1
_chemical_formula_structural   Ho4Al18CuRuRh4
_chemical_formula_sum   'Ho4 Al18 Cu1 Ru1 Rh4'
_cell_volume   470.57277575
_cell_formula_units_Z   1
loop_
 _symmetry_equiv_pos_site_id
 _symmetry_equiv_pos_as_xyz
  1  'x, y, z'
loop_
 _atom_site_type_symbol
 _atom_site_label
 _atom_site_symmetry_multiplicity
 _atom_site_fract_x
 _atom_site_fract_y
 _atom_site_fract_z
 _atom_site_occupancy
  Ho  Ho0  1  0.996120  0.671502  0.249843  1
  Ho  Ho1  1  0.004796  0.329008  0.749821  1
  Ho  Ho2  1  0.670992  0.995204  0.250179  1
  Ho  Ho3  1  0.328498  0.003880  0.750157  1
  Al  Al4  1  0.127766  0.128440  0.250870  1
  Al  Al5  1  0.871560  0.872234  0.749130  1
  Al  Al6  1  0.999586  0.338212  0.075798  1
  Al  Al7  1  0.997493  0.659548  0.924427  1
  Al  Al8  1  0.999366  0.665871  0.574466  1
  Al  Al9  1  0.334129  0.000634  0.425534  1
  Al  Al10  1  0.999998  0.335047  0.425665  1
  Al  Al11  1  0.664953  0.000002  0.574335  1
  Al  Al12  1  0.661788  0.000414  0.924202  1
  Al  Al13  1  0.340452  0.002507  0.075573  1
  Al  Al14  1  0.333441  0.333849  0.550892  1
  Al  Al15  1  0.666151  0.666559  0.449108  1
  Al  Al16  1  0.664429  0.662187  0.051660  1
  Al  Al17  1  0.337813  0.335571  0.948340  1
  Al  Al18  1  0.337729  0.548435  0.249889  1
  Al  Al19  1  0.661546  0.449461  0.751120  1
  Al  Al20  1  0.550539  0.338454  0.248880  1
  Al  Al21  1  0.451565  0.662271  0.750111  1
  Cu  Cu22  1  0.999946  0.000054  0.000000  1
  Ru  Ru23  1  0.672313  0.327687  0.000000  1
  Rh  Rh24  1  0.328048  0.671952  0.000000  1
  Rh  Rh25  1  0.327742  0.672258  0.500000  1
  Rh  Rh26  1  0.671678  0.328322  0.500000  1
  Rh  Rh27  1  0.999563  0.000437  0.500000  1
