# generated using pymatgen
data_Cs15Rb(TiSe4)4
_symmetry_space_group_name_H-M   'P 1'
_cell_length_a   9.21647560
_cell_length_b   10.77572000
_cell_length_c   15.93082052
_cell_angle_alpha   90.00000000
_cell_angle_beta   90.08622784
_cell_angle_gamma   90.00000000
_symmetry_Int_Tables_number   1
_chemical_formula_structural   Cs15Rb(TiSe4)4
_chemical_formula_sum   'Cs15 Rb1 Ti4 Se16'
_cell_volume   1582.15427418
_cell_formula_units_Z   1
loop_
 _symmetry_equiv_pos_site_id
 _symmetry_equiv_pos_as_xyz
  1  'x, y, z'
loop_
 _atom_site_type_symbol
 _atom_site_label
 _atom_site_symmetry_multiplicity
 _atom_site_fract_x
 _atom_site_fract_y
 _atom_site_fract_z
 _atom_site_occupancy
  Cs  Cs0  1  0.000060  0.999693  0.999787  1
  Cs  Cs1  1  0.499997  0.999908  0.500078  1
  Cs  Cs2  1  0.000060  0.500307  0.999787  1
  Cs  Cs3  1  0.499997  0.500092  0.500078  1
  Cs  Cs4  1  0.987753  0.750000  0.424955  1
  Cs  Cs5  1  0.487891  0.250000  0.075046  1
  Cs  Cs6  1  0.011977  0.250000  0.575257  1
  Cs  Cs7  1  0.837732  0.055468  0.279476  1
  Cs  Cs8  1  0.337912  0.944109  0.219778  1
  Cs  Cs9  1  0.162027  0.556145  0.720329  1
  Cs  Cs10  1  0.662096  0.444250  0.780280  1
  Cs  Cs11  1  0.162027  0.943855  0.720329  1
  Cs  Cs12  1  0.662096  0.055750  0.780280  1
  Cs  Cs13  1  0.837732  0.444532  0.279476  1
  Cs  Cs14  1  0.337912  0.555891  0.219778  1
  Rb  Rb15  1  0.520869  0.750000  0.927579  1
  Ti  Ti16  1  0.758626  0.750000  0.667095  1
  Ti  Ti17  1  0.240255  0.250000  0.333721  1
  Ti  Ti18  1  0.739091  0.750000  0.164837  1
  Ti  Ti19  1  0.260869  0.250000  0.834271  1
  Se  Se20  1  0.997682  0.250000  0.824902  1
  Se  Se21  1  0.503410  0.250000  0.324779  1
  Se  Se22  1  0.495690  0.750000  0.676199  1
  Se  Se23  1  0.002121  0.750000  0.174971  1
  Se  Se24  1  0.657874  0.567350  0.091140  1
  Se  Se25  1  0.159700  0.433359  0.406682  1
  Se  Se26  1  0.341256  0.065379  0.906618  1
  Se  Se27  1  0.839701  0.932858  0.593711  1
  Se  Se28  1  0.341256  0.434621  0.906618  1
  Se  Se29  1  0.839701  0.567142  0.593711  1
  Se  Se30  1  0.657874  0.932650  0.091140  1
  Se  Se31  1  0.159700  0.066641  0.406682  1
  Se  Se32  1  0.637377  0.750000  0.306030  1
  Se  Se33  1  0.137289  0.250000  0.192884  1
  Se  Se34  1  0.362268  0.250000  0.693217  1
  Se  Se35  1  0.860117  0.750000  0.808499  1
