# generated using pymatgen
data_Ho3Er7(Cd2Ni)4
_symmetry_space_group_name_H-M   'P 1'
_cell_length_a   7.79553804
_cell_length_b   18.12810709
_cell_length_c   3.52883700
_cell_angle_alpha   90.00000000
_cell_angle_beta   90.00000000
_cell_angle_gamma   89.98829295
_symmetry_Int_Tables_number   1
_chemical_formula_structural   Ho3Er7(Cd2Ni)4
_chemical_formula_sum   'Ho3 Er7 Cd8 Ni4'
_cell_volume   498.68940642
_cell_formula_units_Z   1
loop_
 _symmetry_equiv_pos_site_id
 _symmetry_equiv_pos_as_xyz
  1  'x, y, z'
loop_
 _atom_site_type_symbol
 _atom_site_label
 _atom_site_symmetry_multiplicity
 _atom_site_fract_x
 _atom_site_fract_y
 _atom_site_fract_z
 _atom_site_occupancy
  Ho  Ho0  1  0.500012  0.500018  0.000000  1
  Ho  Ho1  1  0.000026  0.000000  0.000000  1
  Ho  Ho2  1  0.121430  0.411604  0.000000  1
  Er  Er3  1  0.759168  0.278852  0.000000  1
  Er  Er4  1  0.240705  0.721126  0.000000  1
  Er  Er5  1  0.740628  0.778909  0.000000  1
  Er  Er6  1  0.259414  0.220975  0.000000  1
  Er  Er7  1  0.621160  0.088570  0.000000  1
  Er  Er8  1  0.378847  0.911356  0.000000  1
  Er  Er9  1  0.878852  0.588726  0.000000  1
  Cd  Cd10  1  0.706007  0.931017  0.500000  1
  Cd  Cd11  1  0.293978  0.069012  0.500000  1
  Cd  Cd12  1  0.793477  0.431019  0.500000  1
  Cd  Cd13  1  0.206063  0.569160  0.500000  1
  Cd  Cd14  1  0.560924  0.651576  0.500000  1
  Cd  Cd15  1  0.439512  0.348339  0.500000  1
  Cd  Cd16  1  0.939104  0.151524  0.500000  1
  Cd  Cd17  1  0.060867  0.848403  0.500000  1
  Ni  Ni18  1  0.540047  0.196388  0.500000  1
  Ni  Ni19  1  0.459941  0.803614  0.500000  1
  Ni  Ni20  1  0.959957  0.696422  0.500000  1
  Ni  Ni21  1  0.039880  0.303391  0.500000  1
