# generated using pymatgen
data_Y7Er3AlSb5
_symmetry_space_group_name_H-M   'P 1'
_cell_length_a   6.38879707
_cell_length_b   8.90835282
_cell_length_c   8.90901085
_cell_angle_alpha   119.99685694
_cell_angle_beta   90.00796556
_cell_angle_gamma   90.00849793
_symmetry_Int_Tables_number   1
_chemical_formula_structural   Y7Er3AlSb5
_chemical_formula_sum   'Y7 Er3 Al1 Sb5'
_cell_volume   439.12722010
_cell_formula_units_Z   1
loop_
 _symmetry_equiv_pos_site_id
 _symmetry_equiv_pos_as_xyz
  1  'x, y, z'
loop_
 _atom_site_type_symbol
 _atom_site_label
 _atom_site_symmetry_multiplicity
 _atom_site_fract_x
 _atom_site_fract_y
 _atom_site_fract_z
 _atom_site_occupancy
  Y  Y0  1  0.999077  0.337979  0.672627  1
  Y  Y1  1  0.749928  0.247918  0.000060  1
  Y  Y2  1  0.749892  0.752933  0.761904  1
  Y  Y3  1  0.749848  0.990951  0.238206  1
  Y  Y4  1  0.250233  0.756710  0.000067  1
  Y  Y5  1  0.250085  0.246191  0.245301  1
  Y  Y6  1  0.250025  0.001064  0.754814  1
  Er  Er7  1  0.501123  0.338513  0.673136  1
  Er  Er8  1  0.501148  0.665467  0.327037  1
  Er  Er9  1  0.998721  0.665324  0.326689  1
  Al  Al10  1  0.749137  0.604016  0.000693  1
  Sb  Sb11  1  0.749265  0.388908  0.390001  1
  Sb  Sb12  1  0.749332  0.997500  0.609441  1
  Sb  Sb13  1  0.250868  0.393280  0.000690  1
  Sb  Sb14  1  0.250574  0.611218  0.607800  1
  Sb  Sb15  1  0.250746  0.002032  0.391534  1
