# generated using pymatgen
data_Sc6Co16Si5Tc2P7
_symmetry_space_group_name_H-M   'P 1'
_cell_length_a   11.97822800
_cell_length_b   11.99059719
_cell_length_c   3.65297100
_cell_angle_alpha   90.00000000
_cell_angle_beta   90.00000000
_cell_angle_gamma   119.93675744
_symmetry_Int_Tables_number   1
_chemical_formula_structural   Sc6Co16Si5Tc2P7
_chemical_formula_sum   'Sc6 Co16 Si5 Tc2 P7'
_cell_volume   454.65990525
_cell_formula_units_Z   1
loop_
 _symmetry_equiv_pos_site_id
 _symmetry_equiv_pos_as_xyz
  1  'x, y, z'
loop_
 _atom_site_type_symbol
 _atom_site_label
 _atom_site_symmetry_multiplicity
 _atom_site_fract_x
 _atom_site_fract_y
 _atom_site_fract_z
 _atom_site_occupancy
  Sc  Sc0  1  0.812317  0.814695  0.500000  1
  Sc  Sc1  1  0.998769  0.177664  0.500000  1
  Sc  Sc2  1  0.337449  0.664557  0.000000  1
  Sc  Sc3  1  0.662234  0.329311  0.000000  1
  Sc  Sc4  1  0.000919  0.556051  0.000000  1
  Sc  Sc5  1  0.186699  0.003154  0.500000  1
  Co  Co6  1  0.626764  0.820745  0.000000  1
  Co  Co7  1  0.370858  0.195376  0.000000  1
  Co  Co8  1  0.000090  0.724961  0.500000  1
  Co  Co9  1  0.276132  0.277759  0.500000  1
  Co  Co10  1  0.878671  0.351107  0.500000  1
  Co  Co11  1  0.723876  0.996677  0.500000  1
  Co  Co12  1  0.818532  0.629238  0.000000  1
  Co  Co13  1  0.181543  0.811996  0.000000  1
  Co  Co14  1  0.357122  0.886700  0.500000  1
  Co  Co15  1  0.129571  0.476983  0.500000  1
  Co  Co16  1  0.642424  0.528865  0.500000  1
  Co  Co17  1  0.000437  0.996926  0.000000  1
  Co  Co18  1  0.514188  0.644446  0.500000  1
  Co  Co19  1  0.479229  0.128580  0.500000  1
  Co  Co20  1  0.195386  0.368894  0.000000  1
  Co  Co21  1  0.807755  0.172574  0.000000  1
  Si  Si22  1  0.821903  0.513849  0.500000  1
  Si  Si23  1  0.685272  0.165074  0.500000  1
  Si  Si24  1  0.516056  0.836460  0.500000  1
  Si  Si25  1  0.179128  0.693609  0.500000  1
  Si  Si26  1  0.483316  0.320298  0.500000  1
  Tc  Tc27  1  0.444117  0.447588  0.000000  1
  Tc  Tc28  1  0.555835  0.002378  0.000000  1
  P  P29  1  0.000367  0.347126  0.000000  1
  P  P30  1  0.176863  0.174855  0.000000  1
  P  P31  1  0.637400  0.641379  0.000000  1
  P  P32  1  0.821694  0.995294  0.000000  1
  P  P33  1  0.363149  0.005173  0.000000  1
  P  P34  1  0.999551  0.820024  0.000000  1
  P  P35  1  0.314385  0.479638  0.500000  1
