# generated using pymatgen
data_Yb3SmPt2(RhO7)2
_symmetry_space_group_name_H-M   'P 1'
_cell_length_a   7.26010102
_cell_length_b   7.24497713
_cell_length_c   7.25085952
_cell_angle_alpha   60.02682141
_cell_angle_beta   60.02762599
_cell_angle_gamma   60.06886169
_symmetry_Int_Tables_number   1
_chemical_formula_structural   Yb3SmPt2(RhO7)2
_chemical_formula_sum   'Yb3 Sm1 Pt2 Rh2 O14'
_cell_volume   269.93453584
_cell_formula_units_Z   1
loop_
 _symmetry_equiv_pos_site_id
 _symmetry_equiv_pos_as_xyz
  1  'x, y, z'
loop_
 _atom_site_type_symbol
 _atom_site_label
 _atom_site_symmetry_multiplicity
 _atom_site_fract_x
 _atom_site_fract_y
 _atom_site_fract_z
 _atom_site_occupancy
  Yb  Yb0  1  0.125000  0.125000  0.125000  1
  Yb  Yb1  1  0.625000  0.125000  0.125000  1
  Yb  Yb2  1  0.125000  0.625000  0.125000  1
  Sm  Sm3  1  0.125000  0.125000  0.625000  1
  Pt  Pt4  1  0.625000  0.625000  0.625000  1
  Pt  Pt5  1  0.625000  0.125000  0.625000  1
  Rh  Rh6  1  0.625000  0.625000  0.125000  1
  Rh  Rh7  1  0.125000  0.625000  0.625000  1
  O  O8  1  0.706092  0.295781  0.294573  1
  O  O9  1  0.709347  0.289599  0.711454  1
  O  O10  1  0.000617  0.999522  0.000338  1
  O  O11  1  0.299368  0.700279  0.300074  1
  O  O12  1  0.706092  0.703553  0.294573  1
  O  O13  1  0.957112  0.544075  0.542557  1
  O  O14  1  0.292888  0.705925  0.707443  1
  O  O15  1  0.249383  0.250478  0.249662  1
  O  O16  1  0.950632  0.549721  0.949926  1
  O  O17  1  0.540653  0.960401  0.538546  1
  O  O18  1  0.543908  0.546447  0.955427  1
  O  O19  1  0.957112  0.956257  0.542557  1
  O  O20  1  0.543908  0.954219  0.955427  1
  O  O21  1  0.292888  0.293743  0.707443  1
