# generated using pymatgen
data_Zr4In2CoNi3
_symmetry_space_group_name_H-M   'P 1'
_cell_length_a   7.24848632
_cell_length_b   7.24848632
_cell_length_c   6.63723300
_cell_angle_alpha   90.00000000
_cell_angle_beta   90.00000000
_cell_angle_gamma   90.13883496
_symmetry_Int_Tables_number   1
_chemical_formula_structural   Zr4In2CoNi3
_chemical_formula_sum   'Zr8 In4 Co2 Ni6'
_cell_volume   348.72287461
_cell_formula_units_Z   2
loop_
 _symmetry_equiv_pos_site_id
 _symmetry_equiv_pos_as_xyz
  1  'x, y, z'
loop_
 _atom_site_type_symbol
 _atom_site_label
 _atom_site_symmetry_multiplicity
 _atom_site_fract_x
 _atom_site_fract_y
 _atom_site_fract_z
 _atom_site_occupancy
  Zr  Zr0  1  0.660290  0.339710  0.004694  1
  Zr  Zr1  1  0.339710  0.660290  0.004694  1
  Zr  Zr2  1  0.835099  0.835099  0.497810  1
  Zr  Zr3  1  0.164901  0.164901  0.497810  1
  Zr  Zr4  1  0.177977  0.177977  0.002561  1
  Zr  Zr5  1  0.822023  0.822023  0.002561  1
  Zr  Zr6  1  0.328489  0.671511  0.496179  1
  Zr  Zr7  1  0.671511  0.328489  0.496179  1
  In  In8  1  0.500000  0.000000  0.250283  1
  In  In9  1  0.000000  0.500000  0.250283  1
  In  In10  1  0.000000  0.500000  0.750437  1
  In  In11  1  0.500000  0.000000  0.750437  1
  Co  Co12  1  0.372957  0.372957  0.264291  1
  Co  Co13  1  0.627043  0.627043  0.264291  1
  Ni  Ni14  1  0.123644  0.876356  0.232309  1
  Ni  Ni15  1  0.876356  0.123644  0.232309  1
  Ni  Ni16  1  0.624517  0.624517  0.734065  1
  Ni  Ni17  1  0.375483  0.375483  0.734065  1
  Ni  Ni18  1  0.124578  0.875422  0.767369  1
  Ni  Ni19  1  0.875422  0.124578  0.767369  1
