# generated using pymatgen
data_Nd5In4PdAu
_symmetry_space_group_name_H-M   'P 1'
_cell_length_a   3.80980800
_cell_length_b   8.34118271
_cell_length_c   18.84030465
_cell_angle_alpha   89.80004701
_cell_angle_beta   90.00000000
_cell_angle_gamma   90.00000000
_symmetry_Int_Tables_number   1
_chemical_formula_structural   Nd5In4PdAu
_chemical_formula_sum   'Nd10 In8 Pd2 Au2'
_cell_volume   598.70929460
_cell_formula_units_Z   2
loop_
 _symmetry_equiv_pos_site_id
 _symmetry_equiv_pos_as_xyz
  1  'x, y, z'
loop_
 _atom_site_type_symbol
 _atom_site_label
 _atom_site_symmetry_multiplicity
 _atom_site_fract_x
 _atom_site_fract_y
 _atom_site_fract_z
 _atom_site_occupancy
  Nd  Nd0  1  0.000000  0.500000  0.500000  1
  Nd  Nd1  1  0.000000  0.000000  0.000000  1
  Nd  Nd2  1  0.000000  0.746230  0.283576  1
  Nd  Nd3  1  0.000000  0.253770  0.716424  1
  Nd  Nd4  1  0.000000  0.769065  0.780435  1
  Nd  Nd5  1  0.000000  0.230935  0.219565  1
  Nd  Nd6  1  0.000000  0.623594  0.079482  1
  Nd  Nd7  1  0.000000  0.376406  0.920518  1
  Nd  Nd8  1  0.000000  0.880383  0.582121  1
  Nd  Nd9  1  0.000000  0.119617  0.417879  1
  In  In10  1  0.500000  0.710094  0.930844  1
  In  In11  1  0.500000  0.289906  0.069156  1
  In  In12  1  0.500000  0.791464  0.431210  1
  In  In13  1  0.500000  0.208536  0.568790  1
  In  In14  1  0.500000  0.577575  0.648688  1
  In  In15  1  0.500000  0.422425  0.351312  1
  In  In16  1  0.500000  0.926109  0.150137  1
  In  In17  1  0.500000  0.073891  0.849863  1
  Pd  Pd18  1  0.500000  0.974407  0.696129  1
  Pd  Pd19  1  0.500000  0.025593  0.303871  1
  Au  Au20  1  0.500000  0.527010  0.197086  1
  Au  Au21  1  0.500000  0.472990  0.802914  1
