# generated using pymatgen
data_FeCo3(SiMo)4
_symmetry_space_group_name_H-M   'P 1'
_cell_length_a   3.60414700
_cell_length_b   6.06275843
_cell_length_c   6.92114239
_cell_angle_alpha   90.16231034
_cell_angle_beta   90.00000000
_cell_angle_gamma   90.00000000
_symmetry_Int_Tables_number   1
_chemical_formula_structural   FeCo3(SiMo)4
_chemical_formula_sum   'Fe1 Co3 Si4 Mo4'
_cell_volume   151.23377792
_cell_formula_units_Z   1
loop_
 _symmetry_equiv_pos_site_id
 _symmetry_equiv_pos_as_xyz
  1  'x, y, z'
loop_
 _atom_site_type_symbol
 _atom_site_label
 _atom_site_symmetry_multiplicity
 _atom_site_fract_x
 _atom_site_fract_y
 _atom_site_fract_z
 _atom_site_occupancy
  Fe  Fe0  1  0.250000  0.143575  0.941223  1
  Co  Co1  1  0.250000  0.644285  0.558806  1
  Co  Co2  1  0.750000  0.356796  0.440351  1
  Co  Co3  1  0.750000  0.854012  0.059842  1
  Si  Si4  1  0.250000  0.772838  0.876073  1
  Si  Si5  1  0.750000  0.226013  0.124455  1
  Si  Si6  1  0.750000  0.728687  0.377219  1
  Si  Si7  1  0.250000  0.272827  0.621832  1
  Mo  Mo8  1  0.250000  0.526458  0.171385  1
  Mo  Mo9  1  0.750000  0.471430  0.828921  1
  Mo  Mo10  1  0.750000  0.977251  0.676055  1
  Mo  Mo11  1  0.250000  0.025829  0.323838  1
