# generated using pymatgen
data_LiHoH6Ru
_symmetry_space_group_name_H-M   'P 1'
_cell_length_a   4.82987300
_cell_length_b   4.82987232
_cell_length_c   4.82987300
_cell_angle_alpha   60.00000222
_cell_angle_beta   60.00000683
_cell_angle_gamma   59.99999204
_symmetry_Int_Tables_number   1
_chemical_formula_structural   LiHoH6Ru
_chemical_formula_sum   'Li1 Ho1 H6 Ru1'
_cell_volume   79.66949759
_cell_formula_units_Z   1
loop_
 _symmetry_equiv_pos_site_id
 _symmetry_equiv_pos_as_xyz
  1  'x, y, z'
loop_
 _atom_site_type_symbol
 _atom_site_label
 _atom_site_symmetry_multiplicity
 _atom_site_fract_x
 _atom_site_fract_y
 _atom_site_fract_z
 _atom_site_occupancy
  Li  Li0  1  0.750000  0.750000  0.750000  1
  Ho  Ho1  1  0.250000  0.250000  0.250000  1
  H  H2  1  0.751426  0.751426  0.248574  1
  H  H3  1  0.248574  0.751426  0.248574  1
  H  H4  1  0.751426  0.248574  0.248574  1
  H  H5  1  0.248574  0.248574  0.751426  1
  H  H6  1  0.751426  0.248574  0.751426  1
  H  H7  1  0.248574  0.751426  0.751426  1
  Ru  Ru8  1  0.000000  0.000000  0.000000  1
