# generated using pymatgen
data_Dy16Sc4Ir11Rh
_symmetry_space_group_name_H-M   'P 1'
_cell_length_a   10.78141000
_cell_length_b   10.78141000
_cell_length_c   6.28890500
_cell_angle_alpha   90.00000000
_cell_angle_beta   90.00000000
_cell_angle_gamma   90.00000000
_symmetry_Int_Tables_number   1
_chemical_formula_structural   Dy16Sc4Ir11Rh
_chemical_formula_sum   'Dy16 Sc4 Ir11 Rh1'
_cell_volume   731.01478050
_cell_formula_units_Z   1
loop_
 _symmetry_equiv_pos_site_id
 _symmetry_equiv_pos_as_xyz
  1  'x, y, z'
loop_
 _atom_site_type_symbol
 _atom_site_label
 _atom_site_symmetry_multiplicity
 _atom_site_fract_x
 _atom_site_fract_y
 _atom_site_fract_z
 _atom_site_occupancy
  Dy  Dy0  1  0.287757  0.086101  0.379263  1
  Dy  Dy1  1  0.287454  0.913739  0.877288  1
  Dy  Dy2  1  0.712546  0.086261  0.877288  1
  Dy  Dy3  1  0.712243  0.913899  0.379263  1
  Dy  Dy4  1  0.586261  0.787454  0.877288  1
  Dy  Dy5  1  0.586101  0.212243  0.379263  1
  Dy  Dy6  1  0.413899  0.787757  0.379263  1
  Dy  Dy7  1  0.413739  0.212546  0.877288  1
  Dy  Dy8  1  0.211980  0.413936  0.621672  1
  Dy  Dy9  1  0.211973  0.586171  0.121841  1
  Dy  Dy10  1  0.788027  0.413829  0.121841  1
  Dy  Dy11  1  0.788020  0.586064  0.621672  1
  Dy  Dy12  1  0.913829  0.711973  0.121841  1
  Dy  Dy13  1  0.913936  0.288020  0.621672  1
  Dy  Dy14  1  0.086064  0.711980  0.621672  1
  Dy  Dy15  1  0.086171  0.288027  0.121841  1
  Sc  Sc16  1  0.000000  0.000000  0.499916  1
  Sc  Sc17  1  0.000000  0.000000  0.000345  1
  Sc  Sc18  1  0.500000  0.500000  0.000345  1
  Sc  Sc19  1  0.500000  0.500000  0.499916  1
  Ir  Ir20  1  0.852045  0.146996  0.249790  1
  Ir  Ir21  1  0.852390  0.852652  0.749901  1
  Ir  Ir22  1  0.147610  0.147348  0.749901  1
  Ir  Ir23  1  0.147955  0.853004  0.249790  1
  Ir  Ir24  1  0.647348  0.352390  0.749901  1
  Ir  Ir25  1  0.646996  0.647955  0.249790  1
  Ir  Ir26  1  0.353004  0.352045  0.249790  1
  Ir  Ir27  1  0.352652  0.647610  0.749901  1
  Ir  Ir28  1  0.500000  0.000000  0.623573  1
  Ir  Ir29  1  0.000000  0.500000  0.877184  1
  Ir  Ir30  1  0.000000  0.500000  0.376848  1
  Rh  Rh31  1  0.500000  0.000000  0.122851  1
