# generated using pymatgen
data_Dy8Tm2Ir5Os
_symmetry_space_group_name_H-M   'P 1'
_cell_length_a   10.84807300
_cell_length_b   10.84807300
_cell_length_c   6.38143100
_cell_angle_alpha   90.00000000
_cell_angle_beta   90.00000000
_cell_angle_gamma   90.00000000
_symmetry_Int_Tables_number   1
_chemical_formula_structural   Dy8Tm2Ir5Os
_chemical_formula_sum   'Dy16 Tm4 Ir10 Os2'
_cell_volume   750.97118931
_cell_formula_units_Z   2
loop_
 _symmetry_equiv_pos_site_id
 _symmetry_equiv_pos_as_xyz
  1  'x, y, z'
loop_
 _atom_site_type_symbol
 _atom_site_label
 _atom_site_symmetry_multiplicity
 _atom_site_fract_x
 _atom_site_fract_y
 _atom_site_fract_z
 _atom_site_occupancy
  Dy  Dy0  1  0.293524  0.085805  0.377312  1
  Dy  Dy1  1  0.293524  0.914195  0.877312  1
  Dy  Dy2  1  0.706476  0.085805  0.877312  1
  Dy  Dy3  1  0.706476  0.914195  0.377312  1
  Dy  Dy4  1  0.585805  0.793524  0.877312  1
  Dy  Dy5  1  0.585805  0.206476  0.377312  1
  Dy  Dy6  1  0.414195  0.793524  0.377312  1
  Dy  Dy7  1  0.414195  0.206476  0.877312  1
  Dy  Dy8  1  0.210026  0.412478  0.621848  1
  Dy  Dy9  1  0.210026  0.587522  0.121848  1
  Dy  Dy10  1  0.789974  0.412478  0.121848  1
  Dy  Dy11  1  0.789974  0.587522  0.621848  1
  Dy  Dy12  1  0.912478  0.710026  0.121848  1
  Dy  Dy13  1  0.912478  0.289974  0.621848  1
  Dy  Dy14  1  0.087522  0.710026  0.621848  1
  Dy  Dy15  1  0.087522  0.289974  0.121848  1
  Tm  Tm16  1  0.000000  0.000000  0.499394  1
  Tm  Tm17  1  0.000000  0.000000  0.999394  1
  Tm  Tm18  1  0.500000  0.500000  0.999394  1
  Tm  Tm19  1  0.500000  0.500000  0.499394  1
  Ir  Ir20  1  0.849859  0.152432  0.250181  1
  Ir  Ir21  1  0.849859  0.847568  0.750181  1
  Ir  Ir22  1  0.150141  0.152432  0.750181  1
  Ir  Ir23  1  0.150141  0.847568  0.250181  1
  Ir  Ir24  1  0.652432  0.349859  0.750181  1
  Ir  Ir25  1  0.652432  0.650141  0.250181  1
  Ir  Ir26  1  0.347568  0.349859  0.250181  1
  Ir  Ir27  1  0.347568  0.650141  0.750181  1
  Ir  Ir28  1  0.000000  0.500000  0.879651  1
  Ir  Ir29  1  0.000000  0.500000  0.379651  1
  Os  Os30  1  0.500000  0.000000  0.124195  1
  Os  Os31  1  0.500000  0.000000  0.624195  1
