# generated using pymatgen
data_Mg4Zn2Pd9Au
_symmetry_space_group_name_H-M   'P 1'
_cell_length_a   4.20536200
_cell_length_b   5.50473138
_cell_length_c   10.78678701
_cell_angle_alpha   89.20645186
_cell_angle_beta   90.00000000
_cell_angle_gamma   90.00000000
_symmetry_Int_Tables_number   1
_chemical_formula_structural   Mg4Zn2Pd9Au
_chemical_formula_sum   'Mg4 Zn2 Pd9 Au1'
_cell_volume   249.68356996
_cell_formula_units_Z   1
loop_
 _symmetry_equiv_pos_site_id
 _symmetry_equiv_pos_as_xyz
  1  'x, y, z'
loop_
 _atom_site_type_symbol
 _atom_site_label
 _atom_site_symmetry_multiplicity
 _atom_site_fract_x
 _atom_site_fract_y
 _atom_site_fract_z
 _atom_site_occupancy
  Mg  Mg0  1  0.500000  0.157780  0.133886  1
  Mg  Mg1  1  0.500000  0.829228  0.861099  1
  Mg  Mg2  1  0.500000  0.330883  0.638969  1
  Mg  Mg3  1  0.500000  0.681540  0.367075  1
  Zn  Zn4  1  0.000000  0.998484  0.502140  1
  Zn  Zn5  1  0.000000  0.496549  0.995117  1
  Pd  Pd6  1  0.500000  0.184833  0.390940  1
  Pd  Pd7  1  0.500000  0.821271  0.609970  1
  Pd  Pd8  1  0.500000  0.318025  0.889961  1
  Pd  Pd9  1  0.500000  0.672174  0.109611  1
  Pd  Pd10  1  0.000000  0.592640  0.757488  1
  Pd  Pd11  1  0.000000  0.093157  0.740895  1
  Pd  Pd12  1  0.000000  0.915715  0.259139  1
  Pd  Pd13  1  0.000000  0.992874  0.997616  1
  Pd  Pd14  1  0.000000  0.498195  0.502262  1
  Au  Au15  1  0.000000  0.416651  0.243830  1
