# generated using pymatgen
data_HoPa3Ge4(IrPt)2
_symmetry_space_group_name_H-M   'P 1'
_cell_length_a   4.36547500
_cell_length_b   7.01318185
_cell_length_c   7.65666938
_cell_angle_alpha   89.65281128
_cell_angle_beta   90.00000000
_cell_angle_gamma   90.00000000
_symmetry_Int_Tables_number   1
_chemical_formula_structural   HoPa3Ge4(IrPt)2
_chemical_formula_sum   'Ho1 Pa3 Ge4 Ir2 Pt2'
_cell_volume   234.41129107
_cell_formula_units_Z   1
loop_
 _symmetry_equiv_pos_site_id
 _symmetry_equiv_pos_as_xyz
  1  'x, y, z'
loop_
 _atom_site_type_symbol
 _atom_site_label
 _atom_site_symmetry_multiplicity
 _atom_site_fract_x
 _atom_site_fract_y
 _atom_site_fract_z
 _atom_site_occupancy
  Ho  Ho0  1  0.750000  0.506540  0.794205  1
  Pa  Pa1  1  0.250000  0.998168  0.301115  1
  Pa  Pa2  1  0.250000  0.493652  0.210577  1
  Pa  Pa3  1  0.750000  0.002011  0.699542  1
  Ge  Ge4  1  0.250000  0.317127  0.590074  1
  Ge  Ge5  1  0.250000  0.804271  0.908807  1
  Ge  Ge6  1  0.750000  0.677300  0.416680  1
  Ge  Ge7  1  0.750000  0.190978  0.084944  1
  Ir  Ir8  1  0.250000  0.733232  0.576419  1
  Ir  Ir9  1  0.750000  0.270080  0.412471  1
  Pt  Pt10  1  0.250000  0.217562  0.916082  1
  Pt  Pt11  1  0.750000  0.789078  0.089082  1
