# generated using pymatgen
data_HoTm2GeSe2
_symmetry_space_group_name_H-M   'P 1'
_cell_length_a   7.07228729
_cell_length_b   7.07228804
_cell_length_c   7.07228715
_cell_angle_alpha   146.42491195
_cell_angle_beta   132.27751517
_cell_angle_gamma   59.60995322
_symmetry_Int_Tables_number   1
_chemical_formula_structural   HoTm2GeSe2
_chemical_formula_sum   'Ho1 Tm2 Ge1 Se2'
_cell_volume   143.44866750
_cell_formula_units_Z   1
loop_
 _symmetry_equiv_pos_site_id
 _symmetry_equiv_pos_as_xyz
  1  'x, y, z'
loop_
 _atom_site_type_symbol
 _atom_site_label
 _atom_site_symmetry_multiplicity
 _atom_site_fract_x
 _atom_site_fract_y
 _atom_site_fract_z
 _atom_site_occupancy
  Ho  Ho0  1  0.000000  0.000000  0.000000  1
  Tm  Tm1  1  0.343082  0.343082  0.000000  1
  Tm  Tm2  1  0.656918  0.656918  0.000000  1
  Ge  Ge3  1  0.500000  0.000000  0.500000  1
  Se  Se4  1  0.170335  0.670335  0.500000  1
  Se  Se5  1  0.829665  0.329665  0.500000  1
