# generated using pymatgen
data_Dy3Ho8Th5(MgRu)4
_symmetry_space_group_name_H-M   'P 1'
_cell_length_a   9.71062887
_cell_length_b   9.77163967
_cell_length_c   9.77119483
_cell_angle_alpha   59.86105747
_cell_angle_beta   60.16350347
_cell_angle_gamma   60.15765342
_symmetry_Int_Tables_number   1
_chemical_formula_structural   Dy3Ho8Th5(MgRu)4
_chemical_formula_sum   'Dy3 Ho8 Th5 Mg4 Ru4'
_cell_volume   656.50344712
_cell_formula_units_Z   1
loop_
 _symmetry_equiv_pos_site_id
 _symmetry_equiv_pos_as_xyz
  1  'x, y, z'
loop_
 _atom_site_type_symbol
 _atom_site_label
 _atom_site_symmetry_multiplicity
 _atom_site_fract_x
 _atom_site_fract_y
 _atom_site_fract_z
 _atom_site_occupancy
  Dy  Dy0  1  0.936808  0.564059  0.935875  1
  Dy  Dy1  1  0.563088  0.564557  0.935819  1
  Dy  Dy2  1  0.936649  0.935894  0.564028  1
  Ho  Ho3  1  0.186306  0.813686  0.813624  1
  Ho  Ho4  1  0.191020  0.809757  0.185209  1
  Ho  Ho5  1  0.813894  0.184846  0.810211  1
  Ho  Ho6  1  0.191151  0.185125  0.809695  1
  Ho  Ho7  1  0.813843  0.810206  0.184946  1
  Ho  Ho8  1  0.933044  0.567332  0.567182  1
  Ho  Ho9  1  0.564739  0.935213  0.935041  1
  Ho  Ho10  1  0.563051  0.935999  0.564445  1
  Th  Th11  1  0.342188  0.348707  0.348817  1
  Th  Th12  1  0.346664  0.347084  0.959851  1
  Th  Th13  1  0.346728  0.959804  0.347150  1
  Th  Th14  1  0.959641  0.349164  0.349209  1
  Th  Th15  1  0.815880  0.183735  0.183915  1
  Mg  Mg16  1  0.580983  0.579742  0.579647  1
  Mg  Mg17  1  0.579229  0.582203  0.258840  1
  Mg  Mg18  1  0.579207  0.258773  0.582194  1
  Mg  Mg19  1  0.259728  0.579413  0.579445  1
  Ru  Ru20  1  0.128719  0.147396  0.147384  1
  Ru  Ru21  1  0.145436  0.141835  0.567853  1
  Ru  Ru22  1  0.145307  0.567895  0.141879  1
  Ru  Ru23  1  0.576702  0.147572  0.147741  1
