# generated using pymatgen
data_Li4La8Sc8Si15Ge
_symmetry_space_group_name_H-M   'P 1'
_cell_length_a   7.10719759
_cell_length_b   7.71859631
_cell_length_c   14.45731904
_cell_angle_alpha   90.01388555
_cell_angle_beta   89.95579156
_cell_angle_gamma   90.03861730
_symmetry_Int_Tables_number   1
_chemical_formula_structural   Li4La8Sc8Si15Ge
_chemical_formula_sum   'Li4 La8 Sc8 Si15 Ge1'
_cell_volume   793.09322767
_cell_formula_units_Z   1
loop_
 _symmetry_equiv_pos_site_id
 _symmetry_equiv_pos_as_xyz
  1  'x, y, z'
loop_
 _atom_site_type_symbol
 _atom_site_label
 _atom_site_symmetry_multiplicity
 _atom_site_fract_x
 _atom_site_fract_y
 _atom_site_fract_z
 _atom_site_occupancy
  Li  Li0  1  0.154656  0.478587  0.750854  1
  Li  Li1  1  0.845578  0.521734  0.249732  1
  Li  Li2  1  0.345933  0.978615  0.249535  1
  Li  Li3  1  0.654347  0.021966  0.751332  1
  La  La4  1  0.014103  0.180848  0.104157  1
  La  La5  1  0.985373  0.819131  0.895796  1
  La  La6  1  0.485658  0.680805  0.895683  1
  La  La7  1  0.985190  0.820179  0.604438  1
  La  La8  1  0.513944  0.319042  0.104252  1
  La  La9  1  0.013651  0.180334  0.395164  1
  La  La10  1  0.514666  0.318362  0.394664  1
  La  La11  1  0.488271  0.682590  0.604884  1
  Sc  Sc12  1  0.334826  0.180746  0.624449  1
  Sc  Sc13  1  0.666886  0.816851  0.375904  1
  Sc  Sc14  1  0.166916  0.683827  0.375905  1
  Sc  Sc15  1  0.667359  0.816344  0.123364  1
  Sc  Sc16  1  0.830655  0.316569  0.623757  1
  Sc  Sc17  1  0.332024  0.183059  0.876376  1
  Sc  Sc18  1  0.832583  0.316845  0.876450  1
  Sc  Sc19  1  0.167646  0.683017  0.123509  1
  Si  Si20  1  0.038569  0.121512  0.750044  1
  Si  Si21  1  0.961333  0.879131  0.249582  1
  Si  Si22  1  0.461050  0.621040  0.249758  1
  Si  Si23  1  0.538323  0.379346  0.750325  1
  Si  Si24  1  0.287121  0.911227  0.750300  1
  Si  Si25  1  0.712134  0.087863  0.249570  1
  Si  Si26  1  0.211570  0.412093  0.249945  1
  Si  Si27  1  0.788770  0.587623  0.750266  1
  Si  Si28  1  0.843058  0.539252  0.465653  1
  Si  Si29  1  0.346684  0.961732  0.466178  1
  Si  Si30  1  0.846834  0.538022  0.033810  1
  Si  Si31  1  0.653275  0.038887  0.533087  1
  Si  Si32  1  0.152989  0.461951  0.966219  1
  Si  Si33  1  0.652779  0.038312  0.966140  1
  Si  Si34  1  0.346760  0.961899  0.033716  1
  Ge  Ge35  1  0.158487  0.460659  0.535203  1
