# generated using pymatgen
data_Tb5AlCo5
_symmetry_space_group_name_H-M   'P 1'
_cell_length_a   5.53673255
_cell_length_b   5.53673271
_cell_length_c   20.69330400
_cell_angle_alpha   90.00000000
_cell_angle_beta   90.00000000
_cell_angle_gamma   137.51243410
_symmetry_Int_Tables_number   1
_chemical_formula_structural   Tb5AlCo5
_chemical_formula_sum   'Tb10 Al2 Co10'
_cell_volume   428.46703143
_cell_formula_units_Z   2
loop_
 _symmetry_equiv_pos_site_id
 _symmetry_equiv_pos_as_xyz
  1  'x, y, z'
loop_
 _atom_site_type_symbol
 _atom_site_label
 _atom_site_symmetry_multiplicity
 _atom_site_fract_x
 _atom_site_fract_y
 _atom_site_fract_z
 _atom_site_occupancy
  Tb  Tb0  1  0.287600  0.712400  0.250000  1
  Tb  Tb1  1  0.290806  0.709194  0.066192  1
  Tb  Tb2  1  0.997281  0.002719  0.842625  1
  Tb  Tb3  1  0.712400  0.287600  0.750000  1
  Tb  Tb4  1  0.709194  0.290806  0.566192  1
  Tb  Tb5  1  0.002719  0.997281  0.342625  1
  Tb  Tb6  1  0.997281  0.002719  0.657375  1
  Tb  Tb7  1  0.709194  0.290806  0.933808  1
  Tb  Tb8  1  0.002719  0.997281  0.157375  1
  Tb  Tb9  1  0.290806  0.709194  0.433808  1
  Al  Al10  1  0.000000  0.000000  0.500000  1
  Al  Al11  1  0.000000  0.000000  0.000000  1
  Co  Co12  1  0.295710  0.704290  0.654098  1
  Co  Co13  1  0.580527  0.419473  0.441732  1
  Co  Co14  1  0.413432  0.586568  0.750000  1
  Co  Co15  1  0.419473  0.580527  0.941732  1
  Co  Co16  1  0.586568  0.413432  0.250000  1
  Co  Co17  1  0.419473  0.580527  0.558268  1
  Co  Co18  1  0.704290  0.295710  0.345902  1
  Co  Co19  1  0.704290  0.295710  0.154098  1
  Co  Co20  1  0.580527  0.419473  0.058268  1
  Co  Co21  1  0.295710  0.704290  0.845902  1
