# generated using pymatgen
data_Ca5Pr3(Si3Pd)4
_symmetry_space_group_name_H-M   'P 1'
_cell_length_a   8.28342000
_cell_length_b   8.28093154
_cell_length_c   8.48234700
_cell_angle_alpha   90.00000000
_cell_angle_beta   90.00000000
_cell_angle_gamma   120.00994912
_symmetry_Int_Tables_number   1
_chemical_formula_structural   Ca5Pr3(Si3Pd)4
_chemical_formula_sum   'Ca5 Pr3 Si12 Pd4'
_cell_volume   503.83924727
_cell_formula_units_Z   1
loop_
 _symmetry_equiv_pos_site_id
 _symmetry_equiv_pos_as_xyz
  1  'x, y, z'
loop_
 _atom_site_type_symbol
 _atom_site_label
 _atom_site_symmetry_multiplicity
 _atom_site_fract_x
 _atom_site_fract_y
 _atom_site_fract_z
 _atom_site_occupancy
  Ca  Ca0  1  0.498624  0.501366  0.750000  1
  Ca  Ca1  1  0.501504  0.498887  0.250000  1
  Ca  Ca2  1  0.002741  0.501366  0.750000  1
  Ca  Ca3  1  0.997382  0.498887  0.250000  1
  Ca  Ca4  1  0.498536  0.997073  0.750000  1
  Pr  Pr5  1  0.501482  0.002964  0.250000  1
  Pr  Pr6  1  0.000018  0.000036  0.750000  1
  Pr  Pr7  1  0.999970  0.999940  0.250000  1
  Si  Si8  1  0.835359  0.165778  0.001075  1
  Si  Si9  1  0.164652  0.834228  0.999521  1
  Si  Si10  1  0.330420  0.165778  0.001075  1
  Si  Si11  1  0.164652  0.834228  0.500479  1
  Si  Si12  1  0.669577  0.834228  0.999521  1
  Si  Si13  1  0.835359  0.165778  0.498925  1
  Si  Si14  1  0.834269  0.668539  0.001143  1
  Si  Si15  1  0.669577  0.834228  0.500479  1
  Si  Si16  1  0.165671  0.331342  0.999522  1
  Si  Si17  1  0.330420  0.165778  0.498925  1
  Si  Si18  1  0.165671  0.331342  0.500478  1
  Si  Si19  1  0.834269  0.668539  0.498857  1
  Pd  Pd20  1  0.666686  0.333371  0.994284  1
  Pd  Pd21  1  0.333238  0.666477  0.003772  1
  Pd  Pd22  1  0.333238  0.666477  0.496228  1
  Pd  Pd23  1  0.666686  0.333371  0.505716  1
