# generated using pymatgen
data_YEr7(TmBi)12
_symmetry_space_group_name_H-M   'P 1'
_cell_length_a   8.18143230
_cell_length_b   9.45694900
_cell_length_c   11.93519744
_cell_angle_alpha   90.00000000
_cell_angle_beta   89.96878733
_cell_angle_gamma   90.00000000
_symmetry_Int_Tables_number   1
_chemical_formula_structural   YEr7(TmBi)12
_chemical_formula_sum   'Y1 Er7 Tm12 Bi12'
_cell_volume   923.44265567
_cell_formula_units_Z   1
loop_
 _symmetry_equiv_pos_site_id
 _symmetry_equiv_pos_as_xyz
  1  'x, y, z'
loop_
 _atom_site_type_symbol
 _atom_site_label
 _atom_site_symmetry_multiplicity
 _atom_site_fract_x
 _atom_site_fract_y
 _atom_site_fract_z
 _atom_site_occupancy
  Y  Y0  1  0.145934  0.250000  0.716035  1
  Er  Er1  1  0.186673  0.750000  0.718261  1
  Er  Er2  1  0.686871  0.750000  0.781935  1
  Er  Er3  1  0.813116  0.250000  0.281660  1
  Er  Er4  1  0.313224  0.250000  0.218150  1
  Er  Er5  1  0.354198  0.750000  0.216668  1
  Er  Er6  1  0.854075  0.750000  0.283403  1
  Er  Er7  1  0.646078  0.250000  0.783477  1
  Tm  Tm8  1  0.024568  0.750000  0.988982  1
  Tm  Tm9  1  0.524723  0.750000  0.510997  1
  Tm  Tm10  1  0.975141  0.250000  0.011455  1
  Tm  Tm11  1  0.475349  0.250000  0.488821  1
  Tm  Tm12  1  0.307249  0.434705  0.940825  1
  Tm  Tm13  1  0.806896  0.065476  0.559547  1
  Tm  Tm14  1  0.692923  0.934466  0.059660  1
  Tm  Tm15  1  0.192940  0.565556  0.440306  1
  Tm  Tm16  1  0.692923  0.565534  0.059660  1
  Tm  Tm17  1  0.192940  0.934444  0.440306  1
  Tm  Tm18  1  0.307249  0.065295  0.940825  1
  Tm  Tm19  1  0.806896  0.434524  0.559547  1
  Bi  Bi20  1  0.433981  0.003465  0.673422  1
  Bi  Bi21  1  0.932799  0.496773  0.826880  1
  Bi  Bi22  1  0.566695  0.503906  0.326506  1
  Bi  Bi23  1  0.066664  0.996180  0.173462  1
  Bi  Bi24  1  0.566695  0.996094  0.326506  1
  Bi  Bi25  1  0.066664  0.503820  0.173462  1
  Bi  Bi26  1  0.433981  0.496535  0.673422  1
  Bi  Bi27  1  0.932799  0.003227  0.826880  1
  Bi  Bi28  1  0.406162  0.750000  0.957403  1
  Bi  Bi29  1  0.906113  0.750000  0.542648  1
  Bi  Bi30  1  0.593965  0.250000  0.042539  1
  Bi  Bi31  1  0.093516  0.250000  0.456353  1
