# generated using pymatgen
data_Ho2Al5Cu4Ni
_symmetry_space_group_name_H-M   'P 1'
_cell_length_a   4.08066600
_cell_length_b   5.25040900
_cell_length_c   8.97640900
_cell_angle_alpha   90.00000000
_cell_angle_beta   90.00000000
_cell_angle_gamma   90.00000000
_symmetry_Int_Tables_number   1
_chemical_formula_structural   Ho2Al5Cu4Ni
_chemical_formula_sum   'Ho2 Al5 Cu4 Ni1'
_cell_volume   192.32104835
_cell_formula_units_Z   1
loop_
 _symmetry_equiv_pos_site_id
 _symmetry_equiv_pos_as_xyz
  1  'x, y, z'
loop_
 _atom_site_type_symbol
 _atom_site_label
 _atom_site_symmetry_multiplicity
 _atom_site_fract_x
 _atom_site_fract_y
 _atom_site_fract_z
 _atom_site_occupancy
  Ho  Ho0  1  0.000000  0.500000  0.997321  1
  Ho  Ho1  1  0.000000  0.000000  0.502839  1
  Al  Al2  1  0.500000  0.000000  0.996953  1
  Al  Al3  1  0.500000  0.749127  0.259867  1
  Al  Al4  1  0.500000  0.248815  0.741406  1
  Al  Al5  1  0.500000  0.250873  0.259867  1
  Al  Al6  1  0.500000  0.751185  0.741406  1
  Cu  Cu7  1  0.000000  0.500000  0.337218  1
  Cu  Cu8  1  0.000000  0.000000  0.164320  1
  Cu  Cu9  1  0.000000  0.500000  0.666102  1
  Cu  Cu10  1  0.500000  0.500000  0.500080  1
  Ni  Ni11  1  0.000000  0.000000  0.832620  1
