# generated using pymatgen
data_LuHf6(ZrSn2)3
_symmetry_space_group_name_H-M   'P 1'
_cell_length_a   8.54966409
_cell_length_b   8.54966544
_cell_length_c   5.79132600
_cell_angle_alpha   90.00000000
_cell_angle_beta   90.00000000
_cell_angle_gamma   120.66528565
_symmetry_Int_Tables_number   1
_chemical_formula_structural   LuHf6(ZrSn2)3
_chemical_formula_sum   'Lu1 Hf6 Zr3 Sn6'
_cell_volume   364.12974392
_cell_formula_units_Z   1
loop_
 _symmetry_equiv_pos_site_id
 _symmetry_equiv_pos_as_xyz
  1  'x, y, z'
loop_
 _atom_site_type_symbol
 _atom_site_label
 _atom_site_symmetry_multiplicity
 _atom_site_fract_x
 _atom_site_fract_y
 _atom_site_fract_z
 _atom_site_occupancy
  Lu  Lu0  1  0.765653  0.765653  0.750000  1
  Hf  Hf1  1  0.249373  0.001540  0.750000  1
  Hf  Hf2  1  0.001540  0.249373  0.750000  1
  Hf  Hf3  1  0.665190  0.332680  0.000153  1
  Hf  Hf4  1  0.332680  0.665190  0.000153  1
  Hf  Hf5  1  0.332680  0.665190  0.499847  1
  Hf  Hf6  1  0.665190  0.332680  0.499847  1
  Zr  Zr7  1  0.237595  0.237595  0.250000  1
  Zr  Zr8  1  0.752330  0.000375  0.250000  1
  Zr  Zr9  1  0.000375  0.752330  0.250000  1
  Sn  Sn10  1  0.392026  0.392026  0.750000  1
  Sn  Sn11  1  0.605948  0.001848  0.750000  1
  Sn  Sn12  1  0.001848  0.605948  0.750000  1
  Sn  Sn13  1  0.605778  0.605778  0.250000  1
  Sn  Sn14  1  0.392270  0.999527  0.250000  1
  Sn  Sn15  1  0.999527  0.392270  0.250000  1
