# generated using pymatgen
data_Na2Ca(MnN2)2
_symmetry_space_group_name_H-M   'P 1'
_cell_length_a   5.56915600
_cell_length_b   9.49900900
_cell_length_c   9.26869700
_cell_angle_alpha   90.00000000
_cell_angle_beta   90.00000000
_cell_angle_gamma   90.00000000
_symmetry_Int_Tables_number   1
_chemical_formula_structural   Na2Ca(MnN2)2
_chemical_formula_sum   'Na8 Ca4 Mn8 N16'
_cell_volume   490.32763109
_cell_formula_units_Z   4
loop_
 _symmetry_equiv_pos_site_id
 _symmetry_equiv_pos_as_xyz
  1  'x, y, z'
loop_
 _atom_site_type_symbol
 _atom_site_label
 _atom_site_symmetry_multiplicity
 _atom_site_fract_x
 _atom_site_fract_y
 _atom_site_fract_z
 _atom_site_occupancy
  Na  Na0  1  0.363662  0.844990  0.590717  1
  Na  Na1  1  0.136338  0.155010  0.590717  1
  Na  Na2  1  0.363662  0.655010  0.909283  1
  Na  Na3  1  0.136338  0.344990  0.909283  1
  Na  Na4  1  0.750000  0.500000  0.414263  1
  Na  Na5  1  0.750000  0.000000  0.085737  1
  Na  Na6  1  0.250000  0.500000  0.583818  1
  Na  Na7  1  0.250000  0.000000  0.916182  1
  Ca  Ca8  1  0.627888  0.157905  0.413762  1
  Ca  Ca9  1  0.872112  0.842095  0.413762  1
  Ca  Ca10  1  0.627888  0.342095  0.086238  1
  Ca  Ca11  1  0.872112  0.657905  0.086238  1
  Mn  Mn12  1  0.750000  0.500000  0.737723  1
  Mn  Mn13  1  0.750000  0.000000  0.762277  1
  Mn  Mn14  1  0.250000  0.500000  0.261592  1
  Mn  Mn15  1  0.250000  0.000000  0.238408  1
  Mn  Mn16  1  0.699727  0.250000  0.750000  1
  Mn  Mn17  1  0.800273  0.750000  0.750000  1
  Mn  Mn18  1  0.328119  0.750000  0.250000  1
  Mn  Mn19  1  0.171881  0.250000  0.250000  1
  N  N20  1  0.883201  0.356989  0.633896  1
  N  N21  1  0.616799  0.643011  0.633896  1
  N  N22  1  0.883201  0.143011  0.866104  1
  N  N23  1  0.616799  0.856989  0.866104  1
  N  N24  1  0.112612  0.644522  0.358459  1
  N  N25  1  0.387388  0.355478  0.358459  1
  N  N26  1  0.112612  0.855478  0.141541  1
  N  N27  1  0.387388  0.144522  0.141541  1
  N  N28  1  0.541996  0.394528  0.841777  1
  N  N29  1  0.958004  0.605472  0.841777  1
  N  N30  1  0.541996  0.105472  0.658223  1
  N  N31  1  0.958004  0.894528  0.658223  1
  N  N32  1  0.480653  0.595410  0.161594  1
  N  N33  1  0.019347  0.404590  0.161594  1
  N  N34  1  0.480653  0.904590  0.338406  1
  N  N35  1  0.019347  0.095410  0.338406  1
