# generated using pymatgen
data_Y2ThP4Pd7
_symmetry_space_group_name_H-M   'P 1'
_cell_length_a   7.99581515
_cell_length_b   7.99581591
_cell_length_c   9.52494618
_cell_angle_alpha   55.66679070
_cell_angle_beta   55.66678606
_cell_angle_gamma   29.17387158
_symmetry_Int_Tables_number   1
_chemical_formula_structural   Y2ThP4Pd7
_chemical_formula_sum   'Y2 Th1 P4 Pd7'
_cell_volume   241.22225770
_cell_formula_units_Z   1
loop_
 _symmetry_equiv_pos_site_id
 _symmetry_equiv_pos_as_xyz
  1  'x, y, z'
loop_
 _atom_site_type_symbol
 _atom_site_label
 _atom_site_symmetry_multiplicity
 _atom_site_fract_x
 _atom_site_fract_y
 _atom_site_fract_z
 _atom_site_occupancy
  Y  Y0  1  0.679553  0.679553  0.323973  1
  Y  Y1  1  0.320447  0.320447  0.676027  1
  Th  Th2  1  0.000000  0.000000  0.000000  1
  P  P3  1  0.339311  0.339311  0.254006  1
  P  P4  1  0.660689  0.660689  0.745994  1
  P  P5  1  0.893010  0.893010  0.818441  1
  P  P6  1  0.106990  0.106990  0.181559  1
  Pd  Pd7  1  0.306431  0.306431  0.027410  1
  Pd  Pd8  1  0.693569  0.693569  0.972590  1
  Pd  Pd9  1  0.509487  0.509487  0.713413  1
  Pd  Pd10  1  0.832506  0.832506  0.424570  1
  Pd  Pd11  1  0.490513  0.490513  0.286587  1
  Pd  Pd12  1  0.167494  0.167494  0.575430  1
  Pd  Pd13  1  0.000000  0.000000  0.500000  1
