# generated using pymatgen
data_Tb8Tm2Si5Ge
_symmetry_space_group_name_H-M   'P 1'
_cell_length_a   8.48374907
_cell_length_b   8.48373968
_cell_length_c   6.37865500
_cell_angle_alpha   90.00072829
_cell_angle_beta   90.00075538
_cell_angle_gamma   120.01476361
_symmetry_Int_Tables_number   1
_chemical_formula_structural   Tb8Tm2Si5Ge
_chemical_formula_sum   'Tb8 Tm2 Si5 Ge1'
_cell_volume   397.53032608
_cell_formula_units_Z   1
loop_
 _symmetry_equiv_pos_site_id
 _symmetry_equiv_pos_as_xyz
  1  'x, y, z'
loop_
 _atom_site_type_symbol
 _atom_site_label
 _atom_site_symmetry_multiplicity
 _atom_site_fract_x
 _atom_site_fract_y
 _atom_site_fract_z
 _atom_site_occupancy
  Tb  Tb0  1  0.667275  0.333200  0.500603  1
  Tb  Tb1  1  0.333199  0.667274  0.500602  1
  Tb  Tb2  1  0.756212  0.756211  0.248013  1
  Tb  Tb3  1  0.244300  0.999038  0.248011  1
  Tb  Tb4  1  0.999039  0.244299  0.248010  1
  Tb  Tb5  1  0.244237  0.244238  0.751904  1
  Tb  Tb6  1  0.755422  0.999960  0.751987  1
  Tb  Tb7  1  0.999960  0.755422  0.751986  1
  Tm  Tm8  1  0.333205  0.667281  0.999423  1
  Tm  Tm9  1  0.667281  0.333208  0.999420  1
  Si  Si10  1  0.605592  0.999986  0.244408  1
  Si  Si11  1  0.999986  0.605591  0.244409  1
  Si  Si12  1  0.605727  0.605726  0.755502  1
  Si  Si13  1  0.394406  0.000035  0.755590  1
  Si  Si14  1  0.000035  0.394405  0.755590  1
  Ge  Ge15  1  0.394125  0.394124  0.244543  1
