# generated using pymatgen
data_Li3Th2Ni9P7
_symmetry_space_group_name_H-M   'P 1'
_cell_length_a   9.22735000
_cell_length_b   9.22735092
_cell_length_c   3.81473000
_cell_angle_alpha   90.00000000
_cell_angle_beta   90.00000000
_cell_angle_gamma   120.00000385
_symmetry_Int_Tables_number   1
_chemical_formula_structural   Li3Th2Ni9P7
_chemical_formula_sum   'Li3 Th2 Ni9 P7'
_cell_volume   281.28621627
_cell_formula_units_Z   1
loop_
 _symmetry_equiv_pos_site_id
 _symmetry_equiv_pos_as_xyz
  1  'x, y, z'
loop_
 _atom_site_type_symbol
 _atom_site_label
 _atom_site_symmetry_multiplicity
 _atom_site_fract_x
 _atom_site_fract_y
 _atom_site_fract_z
 _atom_site_occupancy
  Li  Li0  1  0.766667  0.225316  0.500000  1
  Li  Li1  1  0.774684  0.541351  0.500000  1
  Li  Li2  1  0.458649  0.233333  0.500000  1
  Th  Th3  1  0.333333  0.666667  0.000000  1
  Th  Th4  1  0.000000  0.000000  0.500000  1
  Ni  Ni5  1  0.033601  0.270865  0.000000  1
  Ni  Ni6  1  0.729135  0.762735  0.000000  1
  Ni  Ni7  1  0.237265  0.966399  0.000000  1
  Ni  Ni8  1  0.540353  0.053306  0.000000  1
  Ni  Ni9  1  0.946694  0.487047  0.000000  1
  Ni  Ni10  1  0.512953  0.459647  0.000000  1
  Ni  Ni11  1  0.622513  0.895482  0.500000  1
  Ni  Ni12  1  0.104518  0.727029  0.500000  1
  Ni  Ni13  1  0.272971  0.377487  0.500000  1
  P  P14  1  0.767110  0.028015  0.000000  1
  P  P15  1  0.971985  0.739096  0.000000  1
  P  P16  1  0.260904  0.232890  0.000000  1
  P  P17  1  0.379711  0.933932  0.500000  1
  P  P18  1  0.066068  0.445779  0.500000  1
  P  P19  1  0.554221  0.620289  0.500000  1
  P  P20  1  0.666667  0.333333  0.000000  1
