# generated using pymatgen
data_Li2CdAsPd4
_symmetry_space_group_name_H-M   'P 1'
_cell_length_a   5.77494701
_cell_length_b   5.77497400
_cell_length_c   7.30704800
_cell_angle_alpha   90.00003553
_cell_angle_beta   89.99999216
_cell_angle_gamma   89.99808516
_symmetry_Int_Tables_number   1
_chemical_formula_structural   Li2CdAsPd4
_chemical_formula_sum   'Li4 Cd2 As2 Pd8'
_cell_volume   243.69128438
_cell_formula_units_Z   2
loop_
 _symmetry_equiv_pos_site_id
 _symmetry_equiv_pos_as_xyz
  1  'x, y, z'
loop_
 _atom_site_type_symbol
 _atom_site_label
 _atom_site_symmetry_multiplicity
 _atom_site_fract_x
 _atom_site_fract_y
 _atom_site_fract_z
 _atom_site_occupancy
  Li  Li0  1  0.750030  0.249980  0.999990  1
  Li  Li1  1  0.249970  0.750021  0.999990  1
  Li  Li2  1  0.250000  0.750010  0.500010  1
  Li  Li3  1  0.750000  0.249991  0.500012  1
  Cd  Cd4  1  0.749970  0.749993  0.500001  1
  Cd  Cd5  1  0.250030  0.250007  0.500001  1
  As  As6  1  0.249997  0.250015  0.000004  1
  As  As7  1  0.750003  0.749985  0.000003  1
  Pd  Pd8  1  0.500001  0.000001  0.225354  1
  Pd  Pd9  1  0.500000  0.500001  0.225344  1
  Pd  Pd10  1  0.000000  0.000000  0.225391  1
  Pd  Pd11  1  0.000000  0.500001  0.225381  1
  Pd  Pd12  1  0.999998  0.000000  0.774607  1
  Pd  Pd13  1  0.000000  0.500000  0.774619  1
  Pd  Pd14  1  0.499999  0.000000  0.774640  1
  Pd  Pd15  1  0.500000  0.499999  0.774653  1
