# generated using pymatgen
data_Nd2Dy3Se7
_symmetry_space_group_name_H-M   'P 1'
_cell_length_a   7.06028048
_cell_length_b   7.06027900
_cell_length_c   12.25575600
_cell_angle_alpha   75.94766325
_cell_angle_beta   75.94766624
_cell_angle_gamma   32.88577911
_symmetry_Int_Tables_number   1
_chemical_formula_structural   Nd2Dy3Se7
_chemical_formula_sum   'Nd2 Dy3 Se7'
_cell_volume   320.90273963
_cell_formula_units_Z   1
loop_
 _symmetry_equiv_pos_site_id
 _symmetry_equiv_pos_as_xyz
  1  'x, y, z'
loop_
 _atom_site_type_symbol
 _atom_site_label
 _atom_site_symmetry_multiplicity
 _atom_site_fract_x
 _atom_site_fract_y
 _atom_site_fract_z
 _atom_site_occupancy
  Nd  Nd0  1  0.299725  0.299725  0.809545  1
  Nd  Nd1  1  0.700275  0.700275  0.190455  1
  Dy  Dy2  1  0.000000  0.000000  0.000000  1
  Dy  Dy3  1  0.112091  0.112091  0.576799  1
  Dy  Dy4  1  0.887909  0.887909  0.423201  1
  Se  Se5  1  0.500000  0.500000  0.500000  1
  Se  Se6  1  0.655647  0.655647  0.950658  1
  Se  Se7  1  0.344353  0.344353  0.049342  1
  Se  Se8  1  0.965216  0.965216  0.783822  1
  Se  Se9  1  0.034784  0.034784  0.216178  1
  Se  Se10  1  0.260902  0.260902  0.356100  1
  Se  Se11  1  0.739098  0.739098  0.643900  1
