# generated using pymatgen
data_La4TbIn3
_symmetry_space_group_name_H-M   'P 1'
_cell_length_a   6.20899005
_cell_length_b   9.59380283
_cell_length_c   9.59380243
_cell_angle_alpha   84.11553322
_cell_angle_beta   71.28541484
_cell_angle_gamma   71.28542381
_symmetry_Int_Tables_number   1
_chemical_formula_structural   La4TbIn3
_chemical_formula_sum   'La8 Tb2 In6'
_cell_volume   512.64937095
_cell_formula_units_Z   2
loop_
 _symmetry_equiv_pos_site_id
 _symmetry_equiv_pos_as_xyz
  1  'x, y, z'
loop_
 _atom_site_type_symbol
 _atom_site_label
 _atom_site_symmetry_multiplicity
 _atom_site_fract_x
 _atom_site_fract_y
 _atom_site_fract_z
 _atom_site_occupancy
  La  La0  1  0.724892  0.863285  0.687397  1
  La  La1  1  0.275108  0.136715  0.312603  1
  La  La2  1  0.775108  0.312603  0.136715  1
  La  La3  1  0.224892  0.687397  0.863285  1
  La  La4  1  0.587656  0.688472  0.136003  1
  La  La5  1  0.412344  0.311528  0.863997  1
  La  La6  1  0.087656  0.136003  0.688472  1
  La  La7  1  0.912344  0.863997  0.311528  1
  Tb  Tb8  1  0.750000  0.499881  0.500119  1
  Tb  Tb9  1  0.250000  0.500119  0.499881  1
  In  In10  1  0.156262  0.499933  0.185587  1
  In  In11  1  0.843738  0.500067  0.814413  1
  In  In12  1  0.343738  0.814413  0.500067  1
  In  In13  1  0.656262  0.185587  0.499933  1
  In  In14  1  0.250000  0.000226  0.999774  1
  In  In15  1  0.750000  0.999774  0.000226  1
