# generated using pymatgen
data_La5Pr11Cd2(HgIr2)2
_symmetry_space_group_name_H-M   'P 1'
_cell_length_a   10.02719961
_cell_length_b   10.06390981
_cell_length_c   10.08664583
_cell_angle_alpha   59.96632810
_cell_angle_beta   60.19110905
_cell_angle_gamma   60.21900900
_symmetry_Int_Tables_number   1
_chemical_formula_structural   La5Pr11Cd2(HgIr2)2
_chemical_formula_sum   'La5 Pr11 Cd2 Hg2 Ir4'
_cell_volume   721.78184029
_cell_formula_units_Z   1
loop_
 _symmetry_equiv_pos_site_id
 _symmetry_equiv_pos_as_xyz
  1  'x, y, z'
loop_
 _atom_site_type_symbol
 _atom_site_label
 _atom_site_symmetry_multiplicity
 _atom_site_fract_x
 _atom_site_fract_y
 _atom_site_fract_z
 _atom_site_occupancy
  La  La0  1  0.346715  0.348072  0.347604  1
  La  La1  1  0.348393  0.347995  0.955946  1
  La  La2  1  0.349110  0.954219  0.348306  1
  La  La3  1  0.953100  0.349811  0.349303  1
  La  La4  1  0.811369  0.188059  0.188864  1
  Pr  Pr5  1  0.188609  0.809735  0.809986  1
  Pr  Pr6  1  0.191020  0.808328  0.190478  1
  Pr  Pr7  1  0.809259  0.189046  0.808071  1
  Pr  Pr8  1  0.190483  0.189064  0.809426  1
  Pr  Pr9  1  0.808347  0.806732  0.190754  1
  Pr  Pr10  1  0.938688  0.561499  0.562507  1
  Pr  Pr11  1  0.560403  0.938051  0.938256  1
  Pr  Pr12  1  0.560770  0.938316  0.562597  1
  Pr  Pr13  1  0.938878  0.560893  0.938404  1
  Pr  Pr14  1  0.560817  0.561779  0.938997  1
  Pr  Pr15  1  0.938573  0.937610  0.561756  1
  Cd  Cd16  1  0.578436  0.260547  0.581540  1
  Cd  Cd17  1  0.260551  0.579213  0.580320  1
  Hg  Hg18  1  0.583017  0.583095  0.585591  1
  Hg  Hg19  1  0.582967  0.584562  0.247554  1
  Ir  Ir20  1  0.137599  0.143677  0.143692  1
  Ir  Ir21  1  0.143647  0.142722  0.572967  1
  Ir  Ir22  1  0.143507  0.572966  0.142766  1
  Ir  Ir23  1  0.575739  0.144006  0.144314  1
