# generated using pymatgen
data_TbNd8LuSn6
_symmetry_space_group_name_H-M   'P 1'
_cell_length_a   9.22134300
_cell_length_b   9.22134299
_cell_length_c   6.76827300
_cell_angle_alpha   90.00000000
_cell_angle_beta   90.00000000
_cell_angle_gamma   120.00000361
_symmetry_Int_Tables_number   1
_chemical_formula_structural   TbNd8LuSn6
_chemical_formula_sum   'Tb1 Nd8 Lu1 Sn6'
_cell_volume   498.42157863
_cell_formula_units_Z   1
loop_
 _symmetry_equiv_pos_site_id
 _symmetry_equiv_pos_as_xyz
  1  'x, y, z'
loop_
 _atom_site_type_symbol
 _atom_site_label
 _atom_site_symmetry_multiplicity
 _atom_site_fract_x
 _atom_site_fract_y
 _atom_site_fract_z
 _atom_site_occupancy
  Tb  Tb0  1  0.333333  0.666667  0.500000  1
  Nd  Nd1  1  0.666667  0.333333  0.000000  1
  Nd  Nd2  1  0.333333  0.666667  0.000000  1
  Nd  Nd3  1  0.758402  0.758193  0.747658  1
  Nd  Nd4  1  0.241807  0.000209  0.747658  1
  Nd  Nd5  1  0.999791  0.241598  0.747658  1
  Nd  Nd6  1  0.241807  0.241598  0.252342  1
  Nd  Nd7  1  0.758402  0.000209  0.252342  1
  Nd  Nd8  1  0.999791  0.758193  0.252342  1
  Lu  Lu9  1  0.666667  0.333333  0.500000  1
  Sn  Sn10  1  0.397547  0.396743  0.741344  1
  Sn  Sn11  1  0.603257  0.000805  0.741344  1
  Sn  Sn12  1  0.999195  0.602453  0.741344  1
  Sn  Sn13  1  0.603257  0.602453  0.258656  1
  Sn  Sn14  1  0.397547  0.000805  0.258656  1
  Sn  Sn15  1  0.999195  0.396743  0.258656  1
