# generated using pymatgen
data_Ac4NdOs2
_symmetry_space_group_name_H-M   'P 1'
_cell_length_a   9.36043150
_cell_length_b   9.36043167
_cell_length_c   7.72274624
_cell_angle_alpha   83.91133620
_cell_angle_beta   83.91133688
_cell_angle_gamma   43.56177815
_symmetry_Int_Tables_number   1
_chemical_formula_structural   Ac4NdOs2
_chemical_formula_sum   'Ac8 Nd2 Os4'
_cell_volume   463.25163800
_cell_formula_units_Z   2
loop_
 _symmetry_equiv_pos_site_id
 _symmetry_equiv_pos_as_xyz
  1  'x, y, z'
loop_
 _atom_site_type_symbol
 _atom_site_label
 _atom_site_symmetry_multiplicity
 _atom_site_fract_x
 _atom_site_fract_y
 _atom_site_fract_z
 _atom_site_occupancy
  Ac  Ac0  1  0.012296  0.804846  0.913658  1
  Ac  Ac1  1  0.195154  0.987704  0.586342  1
  Ac  Ac2  1  0.987704  0.195154  0.086342  1
  Ac  Ac3  1  0.804846  0.012296  0.413658  1
  Ac  Ac4  1  0.361679  0.215460  0.816284  1
  Ac  Ac5  1  0.784540  0.638321  0.683716  1
  Ac  Ac6  1  0.638321  0.784540  0.183716  1
  Ac  Ac7  1  0.215460  0.361679  0.316284  1
  Nd  Nd8  1  0.562951  0.437049  0.750000  1
  Nd  Nd9  1  0.437049  0.562951  0.250000  1
  Os  Os10  1  0.187136  0.603870  0.574757  1
  Os  Os11  1  0.396130  0.812864  0.925243  1
  Os  Os12  1  0.812864  0.396130  0.425243  1
  Os  Os13  1  0.603870  0.187136  0.074757  1
