# generated using pymatgen
data_Hf16Ta3CdNi4
_symmetry_space_group_name_H-M   'P 1'
_cell_length_a   8.78596587
_cell_length_b   8.78596523
_cell_length_c   8.78596700
_cell_angle_alpha   59.98633649
_cell_angle_beta   59.98633891
_cell_angle_gamma   59.98634112
_symmetry_Int_Tables_number   1
_chemical_formula_structural   Hf16Ta3CdNi4
_chemical_formula_sum   'Hf16 Ta3 Cd1 Ni4'
_cell_volume   479.42316463
_cell_formula_units_Z   1
loop_
 _symmetry_equiv_pos_site_id
 _symmetry_equiv_pos_as_xyz
  1  'x, y, z'
loop_
 _atom_site_type_symbol
 _atom_site_label
 _atom_site_symmetry_multiplicity
 _atom_site_fract_x
 _atom_site_fract_y
 _atom_site_fract_z
 _atom_site_occupancy
  Hf  Hf0  1  0.702333  0.097572  0.097572  1
  Hf  Hf1  1  0.097572  0.702333  0.097572  1
  Hf  Hf2  1  0.097572  0.097572  0.702333  1
  Hf  Hf3  1  0.103427  0.103427  0.103427  1
  Hf  Hf4  1  0.316460  0.316460  0.691039  1
  Hf  Hf5  1  0.685824  0.685824  0.315051  1
  Hf  Hf6  1  0.316460  0.691039  0.316460  1
  Hf  Hf7  1  0.685824  0.315051  0.685824  1
  Hf  Hf8  1  0.691039  0.316460  0.316460  1
  Hf  Hf9  1  0.315051  0.685824  0.685824  1
  Hf  Hf10  1  0.952515  0.952515  0.545232  1
  Hf  Hf11  1  0.556017  0.556017  0.940841  1
  Hf  Hf12  1  0.952515  0.545232  0.952515  1
  Hf  Hf13  1  0.556017  0.940841  0.556017  1
  Hf  Hf14  1  0.545232  0.952515  0.952515  1
  Hf  Hf15  1  0.940841  0.556017  0.556017  1
  Ta  Ta16  1  0.994500  0.332145  0.332145  1
  Ta  Ta17  1  0.332145  0.994500  0.332145  1
  Ta  Ta18  1  0.332145  0.332145  0.994500  1
  Cd  Cd19  1  0.332185  0.332185  0.332185  1
  Ni  Ni20  1  0.325234  0.889264  0.889264  1
  Ni  Ni21  1  0.889264  0.325234  0.889264  1
  Ni  Ni22  1  0.889264  0.889264  0.325234  1
  Ni  Ni23  1  0.890557  0.890557  0.890557  1
