# generated using pymatgen
data_Sm2Hf(ZrSn2)2
_symmetry_space_group_name_H-M   'P 1'
_cell_length_a   7.82113500
_cell_length_b   7.85935900
_cell_length_c   14.78641200
_cell_angle_alpha   90.00000000
_cell_angle_beta   90.00000000
_cell_angle_gamma   90.00000000
_symmetry_Int_Tables_number   1
_chemical_formula_structural   Sm2Hf(ZrSn2)2
_chemical_formula_sum   'Sm8 Hf4 Zr8 Sn16'
_cell_volume   908.90755250
_cell_formula_units_Z   4
loop_
 _symmetry_equiv_pos_site_id
 _symmetry_equiv_pos_as_xyz
  1  'x, y, z'
loop_
 _atom_site_type_symbol
 _atom_site_label
 _atom_site_symmetry_multiplicity
 _atom_site_fract_x
 _atom_site_fract_y
 _atom_site_fract_z
 _atom_site_occupancy
  Sm  Sm0  1  0.511099  0.324081  0.907971  1
  Sm  Sm1  1  0.011099  0.175919  0.592029  1
  Sm  Sm2  1  0.488901  0.675919  0.407971  1
  Sm  Sm3  1  0.988901  0.824081  0.092029  1
  Sm  Sm4  1  0.488901  0.675919  0.092029  1
  Sm  Sm5  1  0.988901  0.824081  0.407971  1
  Sm  Sm6  1  0.511099  0.324081  0.592029  1
  Sm  Sm7  1  0.011099  0.175919  0.907971  1
  Hf  Hf8  1  0.167540  0.511887  0.750000  1
  Hf  Hf9  1  0.667540  0.988113  0.750000  1
  Hf  Hf10  1  0.832460  0.488113  0.250000  1
  Hf  Hf11  1  0.332460  0.011887  0.250000  1
  Zr  Zr12  1  0.346332  0.838602  0.869931  1
  Zr  Zr13  1  0.846332  0.661398  0.630069  1
  Zr  Zr14  1  0.653668  0.161398  0.369931  1
  Zr  Zr15  1  0.153668  0.338602  0.130069  1
  Zr  Zr16  1  0.653668  0.161398  0.130069  1
  Zr  Zr17  1  0.153668  0.338602  0.369931  1
  Zr  Zr18  1  0.346332  0.838602  0.630069  1
  Zr  Zr19  1  0.846332  0.661398  0.869931  1
  Sn  Sn20  1  0.315965  0.042454  0.043700  1
  Sn  Sn21  1  0.815965  0.457546  0.456300  1
  Sn  Sn22  1  0.684035  0.957546  0.543700  1
  Sn  Sn23  1  0.184035  0.542454  0.956300  1
  Sn  Sn24  1  0.684035  0.957546  0.956300  1
  Sn  Sn25  1  0.184035  0.542454  0.543700  1
  Sn  Sn26  1  0.315965  0.042454  0.456300  1
  Sn  Sn27  1  0.815965  0.457546  0.043700  1
  Sn  Sn28  1  0.539984  0.616933  0.750000  1
  Sn  Sn29  1  0.039984  0.883067  0.750000  1
  Sn  Sn30  1  0.460016  0.383067  0.250000  1
  Sn  Sn31  1  0.960016  0.116933  0.250000  1
  Sn  Sn32  1  0.315063  0.155457  0.750000  1
  Sn  Sn33  1  0.815063  0.344543  0.750000  1
  Sn  Sn34  1  0.684937  0.844543  0.250000  1
  Sn  Sn35  1  0.184937  0.655457  0.250000  1
