# generated using pymatgen
data_Nd4Cd2Cu3Pd
_symmetry_space_group_name_H-M   'P 1'
_cell_length_a   7.78368235
_cell_length_b   7.78368235
_cell_length_c   3.85273500
_cell_angle_alpha   90.00000000
_cell_angle_beta   90.00000000
_cell_angle_gamma   90.14639585
_symmetry_Int_Tables_number   1
_chemical_formula_structural   Nd4Cd2Cu3Pd
_chemical_formula_sum   'Nd4 Cd2 Cu3 Pd1'
_cell_volume   233.41992716
_cell_formula_units_Z   1
loop_
 _symmetry_equiv_pos_site_id
 _symmetry_equiv_pos_as_xyz
  1  'x, y, z'
loop_
 _atom_site_type_symbol
 _atom_site_label
 _atom_site_symmetry_multiplicity
 _atom_site_fract_x
 _atom_site_fract_y
 _atom_site_fract_z
 _atom_site_occupancy
  Nd  Nd0  1  0.675430  0.175430  0.000000  1
  Nd  Nd1  1  0.325604  0.825604  0.000000  1
  Nd  Nd2  1  0.174561  0.322822  0.000000  1
  Nd  Nd3  1  0.822822  0.674561  0.000000  1
  Cd  Cd4  1  0.498890  0.501108  0.500000  1
  Cd  Cd5  1  0.001108  0.998890  0.500000  1
  Cu  Cu6  1  0.121604  0.621604  0.500000  1
  Cu  Cu7  1  0.382426  0.117120  0.500000  1
  Cu  Cu8  1  0.617120  0.882426  0.500000  1
  Pd  Pd9  1  0.880433  0.380433  0.500000  1
