# generated using pymatgen
data_Sc8V5Re7Si15P
_symmetry_space_group_name_H-M   'P 1'
_cell_length_a   6.64363968
_cell_length_b   6.64930835
_cell_length_c   12.23475975
_cell_angle_alpha   90.10432918
_cell_angle_beta   89.98454162
_cell_angle_gamma   90.01063019
_symmetry_Int_Tables_number   1
_chemical_formula_structural   Sc8V5Re7Si15P
_chemical_formula_sum   'Sc8 V5 Re7 Si15 P1'
_cell_volume   540.47703452
_cell_formula_units_Z   1
loop_
 _symmetry_equiv_pos_site_id
 _symmetry_equiv_pos_as_xyz
  1  'x, y, z'
loop_
 _atom_site_type_symbol
 _atom_site_label
 _atom_site_symmetry_multiplicity
 _atom_site_fract_x
 _atom_site_fract_y
 _atom_site_fract_z
 _atom_site_occupancy
  Sc  Sc0  1  0.003256  0.667201  0.029609  1
  Sc  Sc1  1  0.835996  0.501510  0.279823  1
  Sc  Sc2  1  0.163495  0.498133  0.779122  1
  Sc  Sc3  1  0.502416  0.838603  0.720730  1
  Sc  Sc4  1  0.494124  0.157514  0.218453  1
  Sc  Sc5  1  0.000455  0.334095  0.529664  1
  Sc  Sc6  1  0.658614  0.002144  0.970800  1
  Sc  Sc7  1  0.337258  0.996490  0.471429  1
  V  V8  1  0.501252  0.339195  0.624644  1
  V  V9  1  0.500989  0.668815  0.122117  1
  V  V10  1  0.006917  0.835001  0.624690  1
  V  V11  1  0.165911  0.995200  0.879082  1
  V  V12  1  0.838491  0.002390  0.372683  1
  Re  Re13  1  0.332490  0.326463  0.003165  1
  Re  Re14  1  0.171269  0.831717  0.247578  1
  Re  Re15  1  0.831889  0.166430  0.749110  1
  Re  Re16  1  0.670638  0.667870  0.501208  1
  Re  Re17  1  0.979953  0.170175  0.125367  1
  Re  Re18  1  0.331442  0.481456  0.376009  1
  Re  Re19  1  0.669705  0.515599  0.876402  1
  Si  Si20  1  0.536497  0.787877  0.316328  1
  Si  Si21  1  0.464103  0.212024  0.815713  1
  Si  Si22  1  0.796538  0.539184  0.684166  1
  Si  Si23  1  0.208603  0.462984  0.184491  1
  Si  Si24  1  0.710904  0.036487  0.564948  1
  Si  Si25  1  0.962533  0.292738  0.933788  1
  Si  Si26  1  0.038163  0.710056  0.434703  1
  Si  Si27  1  0.695422  0.379803  0.068384  1
  Si  Si28  1  0.122040  0.197058  0.317825  1
  Si  Si29  1  0.880108  0.803732  0.816629  1
  Si  Si30  1  0.203101  0.126427  0.682568  1
  Si  Si31  1  0.796965  0.869984  0.181788  1
  Si  Si32  1  0.298615  0.626452  0.569857  1
  Si  Si33  1  0.372126  0.698344  0.930947  1
  Si  Si34  1  0.630792  0.296605  0.431604  1
  P  P35  1  0.286934  0.964247  0.064578  1
