# generated using pymatgen
data_Dy2Co8CuP6Os
_symmetry_space_group_name_H-M   'P 1'
_cell_length_a   3.70657900
_cell_length_b   10.35321000
_cell_length_c   11.80806100
_cell_angle_alpha   90.00000000
_cell_angle_beta   90.00000000
_cell_angle_gamma   90.00000000
_symmetry_Int_Tables_number   1
_chemical_formula_structural   Dy2Co8CuP6Os
_chemical_formula_sum   'Dy4 Co16 Cu2 P12 Os2'
_cell_volume   453.13423187
_cell_formula_units_Z   2
loop_
 _symmetry_equiv_pos_site_id
 _symmetry_equiv_pos_as_xyz
  1  'x, y, z'
loop_
 _atom_site_type_symbol
 _atom_site_label
 _atom_site_symmetry_multiplicity
 _atom_site_fract_x
 _atom_site_fract_y
 _atom_site_fract_z
 _atom_site_occupancy
  Dy  Dy0  1  0.250000  0.581794  0.702467  1
  Dy  Dy1  1  0.250000  0.918206  0.202467  1
  Dy  Dy2  1  0.750000  0.416051  0.295927  1
  Dy  Dy3  1  0.750000  0.083949  0.795927  1
  Co  Co4  1  0.250000  0.407617  0.485102  1
  Co  Co5  1  0.250000  0.092383  0.985102  1
  Co  Co6  1  0.750000  0.593857  0.510685  1
  Co  Co7  1  0.750000  0.906143  0.010685  1
  Co  Co8  1  0.250000  0.219931  0.175311  1
  Co  Co9  1  0.250000  0.280069  0.675311  1
  Co  Co10  1  0.750000  0.777209  0.823657  1
  Co  Co11  1  0.750000  0.722791  0.323657  1
  Co  Co12  1  0.250000  0.884718  0.702421  1
  Co  Co13  1  0.250000  0.615282  0.202421  1
  Co  Co14  1  0.750000  0.115619  0.301328  1
  Co  Co15  1  0.750000  0.384381  0.801328  1
  Co  Co16  1  0.250000  0.464087  0.933969  1
  Co  Co17  1  0.250000  0.035913  0.433969  1
  Co  Co18  1  0.750000  0.535384  0.069533  1
  Co  Co19  1  0.750000  0.964616  0.569533  1
  Cu  Cu20  1  0.750000  0.287889  0.009720  1
  Cu  Cu21  1  0.750000  0.212111  0.509720  1
  P  P22  1  0.250000  0.419656  0.115234  1
  P  P23  1  0.250000  0.080344  0.615234  1
  P  P24  1  0.750000  0.578324  0.887516  1
  P  P25  1  0.750000  0.921676  0.387516  1
  P  P26  1  0.250000  0.271536  0.862576  1
  P  P27  1  0.250000  0.228464  0.362576  1
  P  P28  1  0.750000  0.730571  0.133166  1
  P  P29  1  0.750000  0.769429  0.633166  1
  P  P30  1  0.250000  0.595671  0.390960  1
  P  P31  1  0.250000  0.904329  0.890960  1
  P  P32  1  0.750000  0.400008  0.608402  1
  P  P33  1  0.750000  0.099992  0.108402  1
  Os  Os34  1  0.250000  0.712960  0.992024  1
  Os  Os35  1  0.250000  0.787040  0.492024  1
