# generated using pymatgen
data_Rb6LuInBi4
_symmetry_space_group_name_H-M   'P 1'
_cell_length_a   10.26649459
_cell_length_b   10.26649558
_cell_length_c   10.26649703
_cell_angle_alpha   127.58416238
_cell_angle_beta   70.07677365
_cell_angle_gamma   136.95639998
_symmetry_Int_Tables_number   1
_chemical_formula_structural   Rb6LuInBi4
_chemical_formula_sum   'Rb6 Lu1 In1 Bi4'
_cell_volume   574.16991998
_cell_formula_units_Z   1
loop_
 _symmetry_equiv_pos_site_id
 _symmetry_equiv_pos_as_xyz
  1  'x, y, z'
loop_
 _atom_site_type_symbol
 _atom_site_label
 _atom_site_symmetry_multiplicity
 _atom_site_fract_x
 _atom_site_fract_y
 _atom_site_fract_z
 _atom_site_occupancy
  Rb  Rb0  1  0.250000  0.250000  0.000000  1
  Rb  Rb1  1  0.750000  0.750000  0.000000  1
  Rb  Rb2  1  0.828290  0.313928  0.125424  1
  Rb  Rb3  1  0.671709  0.797135  0.485638  1
  Rb  Rb4  1  0.311496  0.186072  0.514362  1
  Rb  Rb5  1  0.188503  0.702866  0.874576  1
  Lu  Lu6  1  0.750000  0.250000  0.500000  1
  In  In7  1  0.250000  0.750000  0.500000  1
  Bi  Bi8  1  0.397658  0.803618  0.206691  1
  Bi  Bi9  1  0.102342  0.309033  0.405962  1
  Bi  Bi10  1  0.903073  0.696382  0.594039  1
  Bi  Bi11  1  0.596927  0.190967  0.793309  1
