# generated using pymatgen
data_PrNd3Th4(Si3Pd)4
_symmetry_space_group_name_H-M   'P 1'
_cell_length_a   8.26600900
_cell_length_b   8.26600944
_cell_length_c   8.52471700
_cell_angle_alpha   90.00000000
_cell_angle_beta   90.00000000
_cell_angle_gamma   120.00000225
_symmetry_Int_Tables_number   1
_chemical_formula_structural   PrNd3Th4(Si3Pd)4
_chemical_formula_sum   'Pr1 Nd3 Th4 Si12 Pd4'
_cell_volume   504.43169046
_cell_formula_units_Z   1
loop_
 _symmetry_equiv_pos_site_id
 _symmetry_equiv_pos_as_xyz
  1  'x, y, z'
loop_
 _atom_site_type_symbol
 _atom_site_label
 _atom_site_symmetry_multiplicity
 _atom_site_fract_x
 _atom_site_fract_y
 _atom_site_fract_z
 _atom_site_occupancy
  Pr  Pr0  1  0.000000  0.000000  0.250000  1
  Nd  Nd1  1  0.500426  0.499574  0.250000  1
  Nd  Nd2  1  0.999147  0.499574  0.250000  1
  Nd  Nd3  1  0.500426  0.000853  0.250000  1
  Th  Th4  1  0.499654  0.500346  0.750000  1
  Th  Th5  1  0.000690  0.500346  0.750000  1
  Th  Th6  1  0.499654  0.999310  0.750000  1
  Th  Th7  1  0.000000  0.000000  0.750000  1
  Si  Si8  1  0.834110  0.165890  0.998383  1
  Si  Si9  1  0.165928  0.834072  0.998751  1
  Si  Si10  1  0.331780  0.165890  0.998383  1
  Si  Si11  1  0.165928  0.834072  0.501249  1
  Si  Si12  1  0.668142  0.834072  0.998751  1
  Si  Si13  1  0.834110  0.165890  0.501617  1
  Si  Si14  1  0.834110  0.668220  0.998383  1
  Si  Si15  1  0.668142  0.834072  0.501249  1
  Si  Si16  1  0.165928  0.331858  0.998751  1
  Si  Si17  1  0.331780  0.165890  0.501617  1
  Si  Si18  1  0.165928  0.331858  0.501249  1
  Si  Si19  1  0.834110  0.668220  0.501617  1
  Pd  Pd20  1  0.666667  0.333333  0.994467  1
  Pd  Pd21  1  0.333333  0.666667  0.996288  1
  Pd  Pd22  1  0.333333  0.666667  0.503712  1
  Pd  Pd23  1  0.666667  0.333333  0.505533  1
