# generated using pymatgen
data_LaPr7Te(IrO8)3
_symmetry_space_group_name_H-M   'P 1'
_cell_length_a   5.50689199
_cell_length_b   9.49575198
_cell_length_c   10.28088054
_cell_angle_alpha   89.93565605
_cell_angle_beta   89.91485616
_cell_angle_gamma   89.99046421
_symmetry_Int_Tables_number   1
_chemical_formula_structural   LaPr7Te(IrO8)3
_chemical_formula_sum   'La1 Pr7 Te1 Ir3 O24'
_cell_volume   537.60769266
_cell_formula_units_Z   1
loop_
 _symmetry_equiv_pos_site_id
 _symmetry_equiv_pos_as_xyz
  1  'x, y, z'
loop_
 _atom_site_type_symbol
 _atom_site_label
 _atom_site_symmetry_multiplicity
 _atom_site_fract_x
 _atom_site_fract_y
 _atom_site_fract_z
 _atom_site_occupancy
  La  La0  1  0.032089  0.219118  0.133919  1
  Pr  Pr1  1  0.468166  0.782303  0.635884  1
  Pr  Pr2  1  0.966100  0.720071  0.365116  1
  Pr  Pr3  1  0.534858  0.284110  0.864597  1
  Pr  Pr4  1  0.025927  0.101108  0.539532  1
  Pr  Pr5  1  0.475375  0.898681  0.037810  1
  Pr  Pr6  1  0.974651  0.604459  0.963363  1
  Pr  Pr7  1  0.525636  0.394927  0.457468  1
  Te  Te8  1  0.042607  0.494820  0.643641  1
  Ir  Ir9  1  0.544098  0.002717  0.357676  1
  Ir  Ir10  1  0.956913  0.997512  0.857488  1
  Ir  Ir11  1  0.456177  0.504265  0.141722  1
  O  O12  1  0.432639  0.147976  0.479171  1
  O  O13  1  0.066761  0.852091  0.979946  1
  O  O14  1  0.564902  0.650691  0.021101  1
  O  O15  1  0.930802  0.350332  0.522172  1
  O  O16  1  0.722541  0.389704  0.064872  1
  O  O17  1  0.779158  0.610058  0.565263  1
  O  O18  1  0.278895  0.885835  0.435262  1
  O  O19  1  0.223890  0.112647  0.932721  1
  O  O20  1  0.251042  0.414053  0.005418  1
  O  O21  1  0.248154  0.584892  0.507672  1
  O  O22  1  0.751979  0.911363  0.493547  1
  O  O23  1  0.748257  0.089040  0.992947  1
  O  O24  1  0.187217  0.632074  0.180113  1
  O  O25  1  0.310088  0.363468  0.675703  1
  O  O26  1  0.811956  0.133348  0.323031  1
  O  O27  1  0.687312  0.867595  0.821983  1
  O  O28  1  0.337568  0.056205  0.216428  1
  O  O29  1  0.163085  0.943197  0.715927  1
  O  O30  1  0.662329  0.557575  0.283807  1
  O  O31  1  0.836453  0.445726  0.787903  1
  O  O32  1  0.324814  0.360810  0.255725  1
  O  O33  1  0.176946  0.637164  0.757332  1
  O  O34  1  0.678857  0.862403  0.241677  1
  O  O35  1  0.821759  0.137663  0.742066  1
