# generated using pymatgen
data_Zr9Ta4Ti7Ge16
_symmetry_space_group_name_H-M   'P 1'
_cell_length_a   6.99134809
_cell_length_b   6.98937583
_cell_length_c   12.88166700
_cell_angle_alpha   90.14626910
_cell_angle_beta   89.85927119
_cell_angle_gamma   90.00723699
_symmetry_Int_Tables_number   1
_chemical_formula_structural   Zr9Ta4Ti7Ge16
_chemical_formula_sum   'Zr9 Ta4 Ti7 Ge16'
_cell_volume   629.46075587
_cell_formula_units_Z   1
loop_
 _symmetry_equiv_pos_site_id
 _symmetry_equiv_pos_as_xyz
  1  'x, y, z'
loop_
 _atom_site_type_symbol
 _atom_site_label
 _atom_site_symmetry_multiplicity
 _atom_site_fract_x
 _atom_site_fract_y
 _atom_site_fract_z
 _atom_site_occupancy
  Zr  Zr0  1  0.156978  0.001046  0.872291  1
  Zr  Zr1  1  0.002006  0.658417  0.030280  1
  Zr  Zr2  1  0.996803  0.342398  0.526917  1
  Zr  Zr3  1  0.657744  0.002564  0.971750  1
  Zr  Zr4  1  0.158364  0.498736  0.778128  1
  Zr  Zr5  1  0.841792  0.502534  0.278571  1
  Zr  Zr6  1  0.499716  0.159371  0.223176  1
  Zr  Zr7  1  0.500969  0.841168  0.719937  1
  Zr  Zr8  1  0.341445  0.998152  0.470783  1
  Ta  Ta9  1  0.667935  0.668988  0.499669  1
  Ta  Ta10  1  0.830178  0.170512  0.748483  1
  Ta  Ta11  1  0.168806  0.830737  0.251267  1
  Ta  Ta12  1  0.333574  0.330383  0.001335  1
  Ti  Ti13  1  0.342088  0.505618  0.377496  1
  Ti  Ti14  1  0.842053  0.994923  0.372444  1
  Ti  Ti15  1  0.006827  0.157673  0.127140  1
  Ti  Ti16  1  0.993930  0.842986  0.627253  1
  Ti  Ti17  1  0.658390  0.493366  0.877404  1
  Ti  Ti18  1  0.505800  0.343550  0.621430  1
  Ti  Ti19  1  0.496535  0.656245  0.124107  1
  Ge  Ge20  1  0.038327  0.706144  0.434369  1
  Ge  Ge21  1  0.958562  0.301399  0.935199  1
  Ge  Ge22  1  0.705220  0.039425  0.564908  1
  Ge  Ge23  1  0.206172  0.460949  0.185049  1
  Ge  Ge24  1  0.794907  0.538382  0.683066  1
  Ge  Ge25  1  0.465628  0.208114  0.814142  1
  Ge  Ge26  1  0.539295  0.794351  0.316073  1
  Ge  Ge27  1  0.299095  0.960153  0.070167  1
  Ge  Ge28  1  0.858186  0.794025  0.824774  1
  Ge  Ge29  1  0.130342  0.202416  0.327211  1
  Ge  Ge30  1  0.798456  0.870227  0.173625  1
  Ge  Ge31  1  0.296636  0.630796  0.576255  1
  Ge  Ge32  1  0.702578  0.368463  0.078030  1
  Ge  Ge33  1  0.630167  0.298292  0.422617  1
  Ge  Ge34  1  0.372113  0.694241  0.925898  1
  Ge  Ge35  1  0.202380  0.133250  0.668759  1
