# generated using pymatgen
data_Ba9Tl4H
_symmetry_space_group_name_H-M   'P 1'
_cell_length_a   6.01486453
_cell_length_b   10.45009247
_cell_length_c   10.45009369
_cell_angle_alpha   94.75085586
_cell_angle_beta   73.27430615
_cell_angle_gamma   106.72569359
_symmetry_Int_Tables_number   1
_chemical_formula_structural   Ba9Tl4H
_chemical_formula_sum   'Ba9 Tl4 H1'
_cell_volume   602.44760035
_cell_formula_units_Z   1
loop_
 _symmetry_equiv_pos_site_id
 _symmetry_equiv_pos_as_xyz
  1  'x, y, z'
loop_
 _atom_site_type_symbol
 _atom_site_label
 _atom_site_symmetry_multiplicity
 _atom_site_fract_x
 _atom_site_fract_y
 _atom_site_fract_z
 _atom_site_occupancy
  Ba  Ba0  1  0.500000  0.000000  0.000000  1
  Ba  Ba1  1  0.817715  0.709523  0.074092  1
  Ba  Ba2  1  0.125759  0.511855  0.260337  1
  Ba  Ba3  1  0.891809  0.074092  0.290477  1
  Ba  Ba4  1  0.386096  0.260337  0.488146  1
  Ba  Ba5  1  0.613904  0.739663  0.511855  1
  Ba  Ba6  1  0.108192  0.925908  0.709523  1
  Ba  Ba7  1  0.874242  0.488145  0.739663  1
  Ba  Ba8  1  0.182285  0.290477  0.925909  1
  Tl  Tl9  1  0.600035  0.338395  0.138325  1
  Tl  Tl10  1  0.261640  0.861675  0.338395  1
  Tl  Tl11  1  0.738361  0.138326  0.661606  1
  Tl  Tl12  1  0.399965  0.661605  0.861675  1
  H  H13  1  0.000000  0.000000  0.000000  1
