# generated using pymatgen
data_Nd12IrPdPt2
_symmetry_space_group_name_H-M   'P 1'
_cell_length_a   6.62803131
_cell_length_b   7.32270203
_cell_length_c   10.02473000
_cell_angle_alpha   90.00000000
_cell_angle_beta   90.00000000
_cell_angle_gamma   90.01239078
_symmetry_Int_Tables_number   1
_chemical_formula_structural   Nd12IrPdPt2
_chemical_formula_sum   'Nd12 Ir1 Pd1 Pt2'
_cell_volume   486.55124461
_cell_formula_units_Z   1
loop_
 _symmetry_equiv_pos_site_id
 _symmetry_equiv_pos_as_xyz
  1  'x, y, z'
loop_
 _atom_site_type_symbol
 _atom_site_label
 _atom_site_symmetry_multiplicity
 _atom_site_fract_x
 _atom_site_fract_y
 _atom_site_fract_z
 _atom_site_occupancy
  Nd  Nd0  1  0.329415  0.677328  0.060356  1
  Nd  Nd1  1  0.170482  0.176668  0.437629  1
  Nd  Nd2  1  0.668587  0.327755  0.564372  1
  Nd  Nd3  1  0.825372  0.819962  0.936412  1
  Nd  Nd4  1  0.668587  0.327755  0.935628  1
  Nd  Nd5  1  0.825372  0.819962  0.563588  1
  Nd  Nd6  1  0.329415  0.677328  0.439644  1
  Nd  Nd7  1  0.170482  0.176668  0.062371  1
  Nd  Nd8  1  0.861231  0.531180  0.250000  1
  Nd  Nd9  1  0.638904  0.031742  0.250000  1
  Nd  Nd10  1  0.144730  0.471700  0.750000  1
  Nd  Nd11  1  0.366545  0.960973  0.750000  1
  Ir  Ir12  1  0.564289  0.617425  0.750000  1
  Pd  Pd13  1  0.937560  0.115699  0.750000  1
  Pt  Pt14  1  0.065263  0.883540  0.250000  1
  Pt  Pt15  1  0.433766  0.384318  0.250000  1
