# generated using pymatgen
data_HoEr3B16OsRu3
_symmetry_space_group_name_H-M   'P 1'
_cell_length_a   3.54966200
_cell_length_b   5.94243316
_cell_length_c   11.49907001
_cell_angle_alpha   89.98477923
_cell_angle_beta   90.00000000
_cell_angle_gamma   90.00000000
_symmetry_Int_Tables_number   1
_chemical_formula_structural   HoEr3B16OsRu3
_chemical_formula_sum   'Ho1 Er3 B16 Os1 Ru3'
_cell_volume   242.55711011
_cell_formula_units_Z   1
loop_
 _symmetry_equiv_pos_site_id
 _symmetry_equiv_pos_as_xyz
  1  'x, y, z'
loop_
 _atom_site_type_symbol
 _atom_site_label
 _atom_site_symmetry_multiplicity
 _atom_site_fract_x
 _atom_site_fract_y
 _atom_site_fract_z
 _atom_site_occupancy
  Ho  Ho0  1  0.000000  0.628996  0.350444  1
  Er  Er1  1  0.000000  0.371009  0.649529  1
  Er  Er2  1  0.000000  0.129194  0.150277  1
  Er  Er3  1  0.000000  0.870618  0.849800  1
  B  B4  1  0.500000  0.790107  0.185922  1
  B  B5  1  0.500000  0.210031  0.813967  1
  B  B6  1  0.500000  0.289600  0.314268  1
  B  B7  1  0.500000  0.709920  0.685628  1
  B  B8  1  0.500000  0.864097  0.029587  1
  B  B9  1  0.500000  0.135812  0.970051  1
  B  B10  1  0.500000  0.364113  0.470141  1
  B  B11  1  0.500000  0.635757  0.530299  1
  B  B12  1  0.500000  0.888102  0.453363  1
  B  B13  1  0.500000  0.112368  0.547051  1
  B  B14  1  0.500000  0.387492  0.047002  1
  B  B15  1  0.500000  0.612387  0.952873  1
  B  B16  1  0.500000  0.977416  0.307923  1
  B  B17  1  0.500000  0.023275  0.692209  1
  B  B18  1  0.500000  0.476079  0.191976  1
  B  B19  1  0.500000  0.523394  0.807732  1
  Os  Os20  1  0.000000  0.641861  0.092880  1
  Ru  Ru21  1  0.000000  0.358202  0.906899  1
  Ru  Ru22  1  0.000000  0.140725  0.407127  1
  Ru  Ru23  1  0.000000  0.859446  0.593053  1
