# generated using pymatgen
data_Li4Dy8Sc8Si15P
_symmetry_space_group_name_H-M   'P 1'
_cell_length_a   6.88752296
_cell_length_b   7.39445715
_cell_length_c   14.02242000
_cell_angle_alpha   90.00000000
_cell_angle_beta   90.00000000
_cell_angle_gamma   89.89401069
_symmetry_Int_Tables_number   1
_chemical_formula_structural   Li4Dy8Sc8Si15P
_chemical_formula_sum   'Li4 Dy8 Sc8 Si15 P1'
_cell_volume   714.15352471
_cell_formula_units_Z   1
loop_
 _symmetry_equiv_pos_site_id
 _symmetry_equiv_pos_as_xyz
  1  'x, y, z'
loop_
 _atom_site_type_symbol
 _atom_site_label
 _atom_site_symmetry_multiplicity
 _atom_site_fract_x
 _atom_site_fract_y
 _atom_site_fract_z
 _atom_site_occupancy
  Li  Li0  1  0.159156  0.508605  0.750000  1
  Li  Li1  1  0.841454  0.494311  0.250000  1
  Li  Li2  1  0.341443  0.005854  0.250000  1
  Li  Li3  1  0.659602  0.995020  0.750000  1
  Dy  Dy4  1  0.013610  0.181814  0.099132  1
  Dy  Dy5  1  0.985860  0.819792  0.899692  1
  Dy  Dy6  1  0.486048  0.681558  0.900876  1
  Dy  Dy7  1  0.985860  0.819792  0.600308  1
  Dy  Dy8  1  0.513644  0.318948  0.098651  1
  Dy  Dy9  1  0.013610  0.181814  0.400868  1
  Dy  Dy10  1  0.513644  0.318948  0.401349  1
  Dy  Dy11  1  0.486048  0.681558  0.599124  1
  Sc  Sc12  1  0.329024  0.179047  0.627750  1
  Sc  Sc13  1  0.669447  0.820060  0.373884  1
  Sc  Sc14  1  0.169339  0.679631  0.373892  1
  Sc  Sc15  1  0.669447  0.820060  0.126116  1
  Sc  Sc16  1  0.832759  0.318559  0.627657  1
  Sc  Sc17  1  0.329024  0.179047  0.872250  1
  Sc  Sc18  1  0.832759  0.318559  0.872343  1
  Sc  Sc19  1  0.169339  0.679631  0.126108  1
  Si  Si20  1  0.969029  0.896171  0.250000  1
  Si  Si21  1  0.468738  0.603886  0.250000  1
  Si  Si22  1  0.530982  0.395596  0.750000  1
  Si  Si23  1  0.282878  0.880266  0.750000  1
  Si  Si24  1  0.717163  0.118001  0.250000  1
  Si  Si25  1  0.217408  0.381985  0.250000  1
  Si  Si26  1  0.782574  0.616652  0.750000  1
  Si  Si27  1  0.158522  0.462710  0.535410  1
  Si  Si28  1  0.841152  0.536484  0.465705  1
  Si  Si29  1  0.340291  0.963944  0.465695  1
  Si  Si30  1  0.841152  0.536484  0.034295  1
  Si  Si31  1  0.658731  0.037235  0.534986  1
  Si  Si32  1  0.158522  0.462710  0.964590  1
  Si  Si33  1  0.658731  0.037235  0.965014  1
  Si  Si34  1  0.340291  0.963944  0.034305  1
  P  P35  1  0.032720  0.104086  0.750000  1
