# generated using pymatgen
data_La4Cd2AgRh3
_symmetry_space_group_name_H-M   'P 1'
_cell_length_a   7.90337333
_cell_length_b   7.90337333
_cell_length_c   3.97603600
_cell_angle_alpha   90.00000000
_cell_angle_beta   90.00000000
_cell_angle_gamma   89.16796359
_symmetry_Int_Tables_number   1
_chemical_formula_structural   La4Cd2AgRh3
_chemical_formula_sum   'La4 Cd2 Ag1 Rh3'
_cell_volume   248.33018298
_cell_formula_units_Z   1
loop_
 _symmetry_equiv_pos_site_id
 _symmetry_equiv_pos_as_xyz
  1  'x, y, z'
loop_
 _atom_site_type_symbol
 _atom_site_label
 _atom_site_symmetry_multiplicity
 _atom_site_fract_x
 _atom_site_fract_y
 _atom_site_fract_z
 _atom_site_occupancy
  La  La0  1  0.836298  0.692051  0.500000  1
  La  La1  1  0.323394  0.823394  0.500000  1
  La  La2  1  0.644944  0.144944  0.500000  1
  La  La3  1  0.192051  0.336298  0.500000  1
  Cd  Cd4  1  0.002359  0.004280  0.000000  1
  Cd  Cd5  1  0.504280  0.502359  0.000000  1
  Ag  Ag6  1  0.868519  0.368519  0.000000  1
  Rh  Rh7  1  0.359833  0.137553  0.000000  1
  Rh  Rh8  1  0.637553  0.859833  0.000000  1
  Rh  Rh9  1  0.130770  0.630770  0.000000  1
