# generated using pymatgen
data_Lu2PaMn(Co4P3)2
_symmetry_space_group_name_H-M   'P 1'
_cell_length_a   3.69912300
_cell_length_b   10.55636200
_cell_length_c   12.16081000
_cell_angle_alpha   90.00000000
_cell_angle_beta   90.00000000
_cell_angle_gamma   90.00000000
_symmetry_Int_Tables_number   1
_chemical_formula_structural   Lu2PaMn(Co4P3)2
_chemical_formula_sum   'Lu4 Pa2 Mn2 Co16 P12'
_cell_volume   474.87089260
_cell_formula_units_Z   2
loop_
 _symmetry_equiv_pos_site_id
 _symmetry_equiv_pos_as_xyz
  1  'x, y, z'
loop_
 _atom_site_type_symbol
 _atom_site_label
 _atom_site_symmetry_multiplicity
 _atom_site_fract_x
 _atom_site_fract_y
 _atom_site_fract_z
 _atom_site_occupancy
  Lu  Lu0  1  0.500000  0.815993  0.204236  1
  Lu  Lu1  1  0.500000  0.184007  0.204236  1
  Lu  Lu2  1  0.000000  0.684007  0.795764  1
  Lu  Lu3  1  0.000000  0.315993  0.795764  1
  Pa  Pa4  1  0.000000  0.500000  0.529901  1
  Pa  Pa5  1  0.500000  0.000000  0.470099  1
  Mn  Mn6  1  0.500000  0.500000  0.153226  1
  Mn  Mn7  1  0.000000  0.000000  0.846774  1
  Co  Co8  1  0.500000  0.500000  0.696556  1
  Co  Co9  1  0.000000  0.000000  0.303444  1
  Co  Co10  1  0.000000  0.500000  0.984003  1
  Co  Co11  1  0.500000  0.000000  0.015997  1
  Co  Co12  1  0.500000  0.333222  0.993171  1
  Co  Co13  1  0.500000  0.666778  0.993171  1
  Co  Co14  1  0.000000  0.166778  0.006829  1
  Co  Co15  1  0.000000  0.833222  0.006829  1
  Co  Co16  1  0.500000  0.300531  0.432243  1
  Co  Co17  1  0.500000  0.699469  0.432243  1
  Co  Co18  1  0.000000  0.199469  0.567757  1
  Co  Co19  1  0.000000  0.800531  0.567757  1
  Co  Co20  1  0.500000  0.878559  0.709821  1
  Co  Co21  1  0.500000  0.121441  0.709821  1
  Co  Co22  1  0.000000  0.621441  0.290179  1
  Co  Co23  1  0.000000  0.378559  0.290179  1
  P  P24  1  0.500000  0.500000  0.878191  1
  P  P25  1  0.000000  0.000000  0.121809  1
  P  P26  1  0.500000  0.500000  0.346169  1
  P  P27  1  0.000000  0.000000  0.653831  1
  P  P28  1  0.500000  0.306694  0.618246  1
  P  P29  1  0.500000  0.693306  0.618246  1
  P  P30  1  0.000000  0.193306  0.381754  1
  P  P31  1  0.000000  0.806694  0.381754  1
  P  P32  1  0.500000  0.845250  0.893750  1
  P  P33  1  0.500000  0.154750  0.893750  1
  P  P34  1  0.000000  0.654750  0.106250  1
  P  P35  1  0.000000  0.345250  0.106250  1
