# generated using pymatgen
data_SmRe4Bi3F28
_symmetry_space_group_name_H-M   'P 1'
_cell_length_a   5.72013363
_cell_length_b   9.21761566
_cell_length_c   12.33229479
_cell_angle_alpha   61.96908264
_cell_angle_beta   89.93179990
_cell_angle_gamma   90.01487075
_symmetry_Int_Tables_number   1
_chemical_formula_structural   SmRe4Bi3F28
_chemical_formula_sum   'Sm1 Re4 Bi3 F28'
_cell_volume   573.95575321
_cell_formula_units_Z   1
loop_
 _symmetry_equiv_pos_site_id
 _symmetry_equiv_pos_as_xyz
  1  'x, y, z'
loop_
 _atom_site_type_symbol
 _atom_site_label
 _atom_site_symmetry_multiplicity
 _atom_site_fract_x
 _atom_site_fract_y
 _atom_site_fract_z
 _atom_site_occupancy
  Sm  Sm0  1  0.757846  0.809859  0.764571  1
  Re  Re1  1  0.743238  0.271775  0.457836  1
  Re  Re2  1  0.243831  0.727013  0.041164  1
  Re  Re3  1  0.257255  0.727606  0.543178  1
  Re  Re4  1  0.755893  0.274390  0.957377  1
  Bi  Bi5  1  0.738807  0.814876  0.262665  1
  Bi  Bi6  1  0.239688  0.184452  0.237507  1
  Bi  Bi7  1  0.260589  0.181278  0.737067  1
  F  F8  1  0.448638  0.709535  0.917783  1
  F  F9  1  0.940165  0.292571  0.581063  1
  F  F10  1  0.557011  0.292958  0.081841  1
  F  F11  1  0.054994  0.707970  0.421012  1
  F  F12  1  0.451146  0.280673  0.543459  1
  F  F13  1  0.958773  0.717994  0.951854  1
  F  F14  1  0.544552  0.718498  0.455061  1
  F  F15  1  0.045706  0.283364  0.044062  1
  F  F16  1  0.764263  0.517700  0.858663  1
  F  F17  1  0.268096  0.487510  0.641759  1
  F  F18  1  0.234859  0.486273  0.140116  1
  F  F19  1  0.731386  0.513229  0.358416  1
  F  F20  1  0.759320  0.030686  0.053141  1
  F  F21  1  0.259684  0.972043  0.446172  1
  F  F22  1  0.239652  0.971455  0.946423  1
  F  F23  1  0.741461  0.028257  0.555950  1
  F  F24  1  0.982362  0.733078  0.639521  1
  F  F25  1  0.475980  0.269101  0.865835  1
  F  F26  1  0.024997  0.268478  0.365587  1
  F  F27  1  0.524064  0.732541  0.133546  1
  F  F28  1  0.049288  0.744684  0.167968  1
  F  F29  1  0.552609  0.252450  0.329990  1
  F  F30  1  0.947747  0.256618  0.830271  1
  F  F31  1  0.457545  0.746643  0.668106  1
  F  F32  1  0.408889  0.968616  0.229708  1
  F  F33  1  0.908861  0.029399  0.270630  1
  F  F34  1  0.583308  0.027304  0.769535  1
  F  F35  1  0.087496  0.969124  0.731165  1
