# generated using pymatgen
data_Be6Al9VIr16
_symmetry_space_group_name_H-M   'P 1'
_cell_length_a   8.85184493
_cell_length_b   8.85180542
_cell_length_c   8.85180549
_cell_angle_alpha   141.26716222
_cell_angle_beta   96.29165891
_cell_angle_gamma   96.33477979
_symmetry_Int_Tables_number   1
_chemical_formula_structural   Be6Al9VIr16
_chemical_formula_sum   'Be6 Al9 V1 Ir16'
_cell_volume   409.41199077
_cell_formula_units_Z   1
loop_
 _symmetry_equiv_pos_site_id
 _symmetry_equiv_pos_as_xyz
  1  'x, y, z'
loop_
 _atom_site_type_symbol
 _atom_site_label
 _atom_site_symmetry_multiplicity
 _atom_site_fract_x
 _atom_site_fract_y
 _atom_site_fract_z
 _atom_site_occupancy
  Be  Be0  1  0.877011  0.001960  0.875050  1
  Be  Be1  1  0.126019  0.998765  0.127253  1
  Be  Be2  1  0.621355  0.998708  0.622647  1
  Be  Be3  1  0.378130  0.003068  0.375062  1
  Be  Be4  1  0.872022  0.746455  0.125566  1
  Be  Be5  1  0.370933  0.746470  0.624463  1
  Al  Al6  1  0.128663  0.253674  0.874989  1
  Al  Al7  1  0.379595  0.253328  0.126267  1
  Al  Al8  1  0.877071  0.253318  0.623753  1
  Al  Al9  1  0.627934  0.252926  0.375008  1
  Al  Al10  1  0.373812  0.498845  0.874967  1
  Al  Al11  1  0.626516  0.500862  0.125655  1
  Al  Al12  1  0.125266  0.500913  0.624353  1
  Al  Al13  1  0.871472  0.496458  0.375013  1
  Al  Al14  1  0.621718  0.746703  0.875013  1
  V  V15  1  0.121622  0.746632  0.374991  1
  Ir  Ir16  1  0.124594  0.368835  0.246216  1
  Ir  Ir17  1  0.124594  0.878377  0.755758  1
  Ir  Ir18  1  0.872606  0.368817  0.994228  1
  Ir  Ir19  1  0.371229  0.877415  0.002694  1
  Ir  Ir20  1  0.872606  0.878378  0.503788  1
  Ir  Ir21  1  0.371229  0.368535  0.493814  1
  Ir  Ir22  1  0.624703  0.877368  0.256153  1
  Ir  Ir23  1  0.624703  0.368552  0.747335  1
  Ir  Ir24  1  0.879300  0.115651  0.240350  1
  Ir  Ir25  1  0.879300  0.638952  0.763649  1
  Ir  Ir26  1  0.625302  0.115623  0.986327  1
  Ir  Ir27  1  0.124981  0.637946  0.010204  1
  Ir  Ir28  1  0.625302  0.638975  0.509679  1
  Ir  Ir29  1  0.124981  0.114778  0.487036  1
  Ir  Ir30  1  0.377716  0.637912  0.262915  1
  Ir  Ir31  1  0.377716  0.114801  0.739802  1
