# generated using pymatgen
data_Tb16In4Co3Pt
_symmetry_space_group_name_H-M   'P 1'
_cell_length_a   9.60478586
_cell_length_b   9.60478554
_cell_length_c   9.60478587
_cell_angle_alpha   60.12187147
_cell_angle_beta   60.12187439
_cell_angle_gamma   60.12186504
_symmetry_Int_Tables_number   1
_chemical_formula_structural   Tb16In4Co3Pt
_chemical_formula_sum   'Tb16 In4 Co3 Pt1'
_cell_volume   628.26876897
_cell_formula_units_Z   1
loop_
 _symmetry_equiv_pos_site_id
 _symmetry_equiv_pos_as_xyz
  1  'x, y, z'
loop_
 _atom_site_type_symbol
 _atom_site_label
 _atom_site_symmetry_multiplicity
 _atom_site_fract_x
 _atom_site_fract_y
 _atom_site_fract_z
 _atom_site_occupancy
  Tb  Tb0  1  0.103163  0.703640  0.103163  1
  Tb  Tb1  1  0.939696  0.939696  0.550987  1
  Tb  Tb2  1  0.939696  0.550987  0.939696  1
  Tb  Tb3  1  0.312550  0.689927  0.312550  1
  Tb  Tb4  1  0.938828  0.560312  0.560312  1
  Tb  Tb5  1  0.312550  0.312550  0.689927  1
  Tb  Tb6  1  0.094684  0.094684  0.094684  1
  Tb  Tb7  1  0.560312  0.560312  0.938828  1
  Tb  Tb8  1  0.103163  0.103163  0.703640  1
  Tb  Tb9  1  0.690651  0.310166  0.690651  1
  Tb  Tb10  1  0.690651  0.690651  0.310166  1
  Tb  Tb11  1  0.689927  0.312550  0.312550  1
  Tb  Tb12  1  0.310166  0.690651  0.690651  1
  Tb  Tb13  1  0.560312  0.938828  0.560312  1
  Tb  Tb14  1  0.703640  0.103163  0.103163  1
  Tb  Tb15  1  0.550987  0.939696  0.939696  1
  In  In16  1  0.332781  0.332781  0.332781  1
  In  In17  1  0.003844  0.331852  0.331852  1
  In  In18  1  0.331852  0.003844  0.331852  1
  In  In19  1  0.331852  0.331852  0.003844  1
  Co  Co20  1  0.890132  0.890132  0.326775  1
  Co  Co21  1  0.326775  0.890132  0.890132  1
  Co  Co22  1  0.890132  0.326775  0.890132  1
  Pt  Pt23  1  0.891653  0.891653  0.891653  1
