# generated using pymatgen
data_Mg4Si4Ru3Rh
_symmetry_space_group_name_H-M   'P 1'
_cell_length_a   4.01666600
_cell_length_b   6.69592003
_cell_length_c   6.96558635
_cell_angle_alpha   89.90493026
_cell_angle_beta   90.00000000
_cell_angle_gamma   90.00000000
_symmetry_Int_Tables_number   1
_chemical_formula_structural   Mg4Si4Ru3Rh
_chemical_formula_sum   'Mg4 Si4 Ru3 Rh1'
_cell_volume   187.34109779
_cell_formula_units_Z   1
loop_
 _symmetry_equiv_pos_site_id
 _symmetry_equiv_pos_as_xyz
  1  'x, y, z'
loop_
 _atom_site_type_symbol
 _atom_site_label
 _atom_site_symmetry_multiplicity
 _atom_site_fract_x
 _atom_site_fract_y
 _atom_site_fract_z
 _atom_site_occupancy
  Mg  Mg0  1  0.250000  0.007845  0.830825  1
  Mg  Mg1  1  0.750000  0.990768  0.166181  1
  Mg  Mg2  1  0.250000  0.511246  0.670308  1
  Mg  Mg3  1  0.750000  0.490238  0.330339  1
  Si  Si4  1  0.250000  0.297361  0.124781  1
  Si  Si5  1  0.750000  0.699912  0.879142  1
  Si  Si6  1  0.250000  0.802143  0.370836  1
  Si  Si7  1  0.750000  0.203653  0.626208  1
  Ru  Ru8  1  0.250000  0.155676  0.446433  1
  Ru  Ru9  1  0.750000  0.343136  0.944674  1
  Ru  Ru10  1  0.250000  0.654069  0.056598  1
  Rh  Rh11  1  0.750000  0.843953  0.553675  1
