# generated using pymatgen
data_La18Yb2Si11Pb
_symmetry_space_group_name_H-M   'P 1'
_cell_length_a   7.88618200
_cell_length_b   7.88618200
_cell_length_c   14.54029600
_cell_angle_alpha   90.00000000
_cell_angle_beta   90.00000000
_cell_angle_gamma   90.00000000
_symmetry_Int_Tables_number   1
_chemical_formula_structural   La18Yb2Si11Pb
_chemical_formula_sum   'La18 Yb2 Si11 Pb1'
_cell_volume   904.28814824
_cell_formula_units_Z   1
loop_
 _symmetry_equiv_pos_site_id
 _symmetry_equiv_pos_as_xyz
  1  'x, y, z'
loop_
 _atom_site_type_symbol
 _atom_site_label
 _atom_site_symmetry_multiplicity
 _atom_site_fract_x
 _atom_site_fract_y
 _atom_site_fract_z
 _atom_site_occupancy
  La  La0  1  0.324743  0.315011  0.104289  1
  La  La1  1  0.824493  0.814537  0.895656  1
  La  La2  1  0.820502  0.171466  0.390845  1
  La  La3  1  0.175507  0.185463  0.895656  1
  La  La4  1  0.675257  0.684989  0.104289  1
  La  La5  1  0.000000  0.500000  0.731849  1
  La  La6  1  0.811045  0.836169  0.608614  1
  La  La7  1  0.328534  0.320502  0.390845  1
  La  La8  1  0.184989  0.824743  0.104289  1
  La  La9  1  0.188955  0.163831  0.608614  1
  La  La10  1  0.815011  0.175257  0.104289  1
  La  La11  1  0.336169  0.688955  0.608614  1
  La  La12  1  0.500000  0.000000  0.270229  1
  La  La13  1  0.685463  0.324493  0.895656  1
  La  La14  1  0.663831  0.311045  0.608614  1
  La  La15  1  0.314537  0.675507  0.895656  1
  La  La16  1  0.179498  0.828534  0.390845  1
  La  La17  1  0.671466  0.679498  0.390845  1
  Yb  Yb18  1  0.500000  0.000000  0.768668  1
  Yb  Yb19  1  0.000000  0.500000  0.239504  1
  Si  Si20  1  0.612053  0.387987  0.246261  1
  Si  Si21  1  0.889409  0.113780  0.753532  1
  Si  Si22  1  0.500000  0.000000  0.494088  1
  Si  Si23  1  0.887987  0.887947  0.246261  1
  Si  Si24  1  0.000000  0.500000  0.007503  1
  Si  Si25  1  0.110591  0.886220  0.753532  1
  Si  Si26  1  0.386220  0.389409  0.753532  1
  Si  Si27  1  0.112013  0.112053  0.246261  1
  Si  Si28  1  0.387947  0.612013  0.246261  1
  Si  Si29  1  0.613780  0.610591  0.753532  1
  Si  Si30  1  0.500000  0.000000  0.992881  1
  Pb  Pb31  1  0.000000  0.500000  0.498487  1
