# generated using pymatgen
data_Y8Zr12Si15P
_symmetry_space_group_name_H-M   'P 1'
_cell_length_a   7.15034178
_cell_length_b   7.30377744
_cell_length_c   13.94003720
_cell_angle_alpha   89.97861715
_cell_angle_beta   90.04245363
_cell_angle_gamma   90.06881910
_symmetry_Int_Tables_number   1
_chemical_formula_structural   Y8Zr12Si15P
_chemical_formula_sum   'Y8 Zr12 Si15 P1'
_cell_volume   728.01076706
_cell_formula_units_Z   1
loop_
 _symmetry_equiv_pos_site_id
 _symmetry_equiv_pos_as_xyz
  1  'x, y, z'
loop_
 _atom_site_type_symbol
 _atom_site_label
 _atom_site_symmetry_multiplicity
 _atom_site_fract_x
 _atom_site_fract_y
 _atom_site_fract_z
 _atom_site_occupancy
  Y  Y0  1  0.521567  0.679597  0.595532  1
  Y  Y1  1  0.020682  0.823241  0.902410  1
  Y  Y2  1  0.479992  0.323089  0.097848  1
  Y  Y3  1  0.978606  0.174636  0.403015  1
  Y  Y4  1  0.479904  0.320592  0.403145  1
  Y  Y5  1  0.978910  0.176854  0.097829  1
  Y  Y6  1  0.520056  0.676747  0.902779  1
  Y  Y7  1  0.021166  0.821407  0.597781  1
  Zr  Zr8  1  0.675856  0.173345  0.622479  1
  Zr  Zr9  1  0.176734  0.323327  0.874962  1
  Zr  Zr10  1  0.324041  0.823053  0.125184  1
  Zr  Zr11  1  0.820714  0.680336  0.377191  1
  Zr  Zr12  1  0.326194  0.825321  0.376764  1
  Zr  Zr13  1  0.823050  0.676873  0.125038  1
  Zr  Zr14  1  0.676533  0.176818  0.875049  1
  Zr  Zr15  1  0.177103  0.323907  0.623691  1
  Zr  Zr16  1  0.851424  0.496974  0.749742  1
  Zr  Zr17  1  0.351703  0.001790  0.748902  1
  Zr  Zr18  1  0.148958  0.502612  0.250100  1
  Zr  Zr19  1  0.649110  0.997381  0.251605  1
  Si  Si20  1  0.150511  0.531526  0.041174  1
  Si  Si21  1  0.349980  0.031902  0.959004  1
  Si  Si22  1  0.849471  0.468518  0.541332  1
  Si  Si23  1  0.342925  0.031639  0.542119  1
  Si  Si24  1  0.849891  0.468741  0.958896  1
  Si  Si25  1  0.649806  0.968359  0.041449  1
  Si  Si26  1  0.150584  0.531552  0.457692  1
  Si  Si27  1  0.475474  0.381282  0.749059  1
  Si  Si28  1  0.974213  0.118185  0.749635  1
  Si  Si29  1  0.525322  0.617742  0.250864  1
  Si  Si30  1  0.026180  0.881094  0.250550  1
  Si  Si31  1  0.725554  0.873846  0.749474  1
  Si  Si32  1  0.225983  0.626038  0.749636  1
  Si  Si33  1  0.274549  0.126521  0.250342  1
  Si  Si34  1  0.775532  0.374688  0.250942  1
  P  P35  1  0.651720  0.970467  0.456786  1
