# generated using pymatgen
data_Ca2MoH9
_symmetry_space_group_name_H-M   'P 1'
_cell_length_a   8.62414200
_cell_length_b   8.62414332
_cell_length_c   4.91929500
_cell_angle_alpha   90.00000000
_cell_angle_beta   90.00000000
_cell_angle_gamma   120.00000262
_symmetry_Int_Tables_number   1
_chemical_formula_structural   Ca2MoH9
_chemical_formula_sum   'Ca6 Mo3 H27'
_cell_volume   316.85849205
_cell_formula_units_Z   3
loop_
 _symmetry_equiv_pos_site_id
 _symmetry_equiv_pos_as_xyz
  1  'x, y, z'
loop_
 _atom_site_type_symbol
 _atom_site_label
 _atom_site_symmetry_multiplicity
 _atom_site_fract_x
 _atom_site_fract_y
 _atom_site_fract_z
 _atom_site_occupancy
  Ca  Ca0  1  0.265388  0.000000  0.500000  1
  Ca  Ca1  1  0.000000  0.265388  0.500000  1
  Ca  Ca2  1  0.734612  0.734612  0.500000  1
  Ca  Ca3  1  0.608345  0.000000  0.000000  1
  Ca  Ca4  1  0.000000  0.608345  0.000000  1
  Ca  Ca5  1  0.391655  0.391655  0.000000  1
  Mo  Mo6  1  0.000000  0.000000  0.000000  1
  Mo  Mo7  1  0.333333  0.666667  0.500000  1
  Mo  Mo8  1  0.666667  0.333333  0.500000  1
  H  H9  1  0.848150  0.000000  0.254144  1
  H  H10  1  0.000000  0.848150  0.254144  1
  H  H11  1  0.848150  0.000000  0.745856  1
  H  H12  1  0.000000  0.848150  0.745856  1
  H  H13  1  0.151850  0.151850  0.254144  1
  H  H14  1  0.151850  0.151850  0.745856  1
  H  H15  1  0.209382  0.000000  0.000000  1
  H  H16  1  0.000000  0.209382  0.000000  1
  H  H17  1  0.790618  0.790618  0.000000  1
  H  H18  1  0.188608  0.521325  0.238459  1
  H  H19  1  0.478675  0.667282  0.238459  1
  H  H20  1  0.188608  0.521325  0.761541  1
  H  H21  1  0.521325  0.188608  0.761541  1
  H  H22  1  0.332718  0.811392  0.238459  1
  H  H23  1  0.478675  0.667282  0.761541  1
  H  H24  1  0.667282  0.478675  0.761541  1
  H  H25  1  0.521325  0.188608  0.238459  1
  H  H26  1  0.332718  0.811392  0.761541  1
  H  H27  1  0.667282  0.478675  0.238459  1
  H  H28  1  0.811392  0.332718  0.761541  1
  H  H29  1  0.811392  0.332718  0.238459  1
  H  H30  1  0.325123  0.457586  0.500000  1
  H  H31  1  0.542414  0.867537  0.500000  1
  H  H32  1  0.457586  0.325123  0.500000  1
  H  H33  1  0.132463  0.674877  0.500000  1
  H  H34  1  0.867537  0.542414  0.500000  1
  H  H35  1  0.674877  0.132463  0.500000  1
