# generated using pymatgen
data_Pm2Au5
_symmetry_space_group_name_H-M   'P 1'
_cell_length_a   4.46052033
_cell_length_b   5.54418877
_cell_length_c   8.47647998
_cell_angle_alpha   90.44223139
_cell_angle_beta   121.74043151
_cell_angle_gamma   113.75559425
_symmetry_Int_Tables_number   1
_chemical_formula_structural   Pm2Au5
_chemical_formula_sum   'Pm2 Au5'
_cell_volume   156.53672519
_cell_formula_units_Z   1
loop_
 _symmetry_equiv_pos_site_id
 _symmetry_equiv_pos_as_xyz
  1  'x, y, z'
loop_
 _atom_site_type_symbol
 _atom_site_label
 _atom_site_symmetry_multiplicity
 _atom_site_fract_x
 _atom_site_fract_y
 _atom_site_fract_z
 _atom_site_occupancy
  Pm  Pm0  1  0.760813  0.690998  0.163043  1
  Pm  Pm1  1  0.527607  0.191976  0.684710  1
  Au  Au2  1  0.141493  0.935718  0.924018  1
  Au  Au3  1  0.019581  0.283468  0.124194  1
  Au  Au4  1  0.265574  0.598081  0.720850  1
  Au  Au5  1  0.691044  0.174550  0.350861  1
  Au  Au6  1  0.595784  0.707732  0.495434  1
