# generated using pymatgen
data_Ho4Er6In8RuPt3
_symmetry_space_group_name_H-M   'P 1'
_cell_length_a   3.61404900
_cell_length_b   8.10678221
_cell_length_c   18.18382643
_cell_angle_alpha   89.97293761
_cell_angle_beta   90.00000000
_cell_angle_gamma   90.00000000
_symmetry_Int_Tables_number   1
_chemical_formula_structural   Ho4Er6In8RuPt3
_chemical_formula_sum   'Ho4 Er6 In8 Ru1 Pt3'
_cell_volume   532.75529013
_cell_formula_units_Z   1
loop_
 _symmetry_equiv_pos_site_id
 _symmetry_equiv_pos_as_xyz
  1  'x, y, z'
loop_
 _atom_site_type_symbol
 _atom_site_label
 _atom_site_symmetry_multiplicity
 _atom_site_fract_x
 _atom_site_fract_y
 _atom_site_fract_z
 _atom_site_occupancy
  Ho  Ho0  1  0.000000  0.257231  0.721467  1
  Ho  Ho1  1  0.000000  0.750699  0.278569  1
  Ho  Ho2  1  0.000000  0.999564  0.000497  1
  Ho  Ho3  1  0.000000  0.500632  0.499223  1
  Er  Er4  1  0.000000  0.115903  0.411800  1
  Er  Er5  1  0.000000  0.883940  0.585511  1
  Er  Er6  1  0.000000  0.383985  0.914544  1
  Er  Er7  1  0.000000  0.618084  0.087138  1
  Er  Er8  1  0.000000  0.233623  0.222855  1
  Er  Er9  1  0.000000  0.757128  0.778597  1
  In  In10  1  0.500000  0.423534  0.350876  1
  In  In11  1  0.500000  0.574572  0.647732  1
  In  In12  1  0.500000  0.074206  0.852255  1
  In  In13  1  0.500000  0.931256  0.149786  1
  In  In14  1  0.500000  0.292710  0.066457  1
  In  In15  1  0.500000  0.708198  0.933605  1
  In  In16  1  0.500000  0.208975  0.566814  1
  In  In17  1  0.500000  0.794486  0.431172  1
  Ru  Ru18  1  0.500000  0.019296  0.304399  1
  Pt  Pt19  1  0.500000  0.976028  0.696142  1
  Pt  Pt20  1  0.500000  0.477980  0.804297  1
  Pt  Pt21  1  0.500000  0.517969  0.196264  1
