# generated using pymatgen
data_Ho4IrRh3O14
_symmetry_space_group_name_H-M   'P 1'
_cell_length_a   7.21245280
_cell_length_b   7.21245360
_cell_length_c   7.21245380
_cell_angle_alpha   59.91071159
_cell_angle_beta   59.91070250
_cell_angle_gamma   59.91071562
_symmetry_Int_Tables_number   1
_chemical_formula_structural   Ho4IrRh3O14
_chemical_formula_sum   'Ho4 Ir1 Rh3 O14'
_cell_volume   264.76067433
_cell_formula_units_Z   1
loop_
 _symmetry_equiv_pos_site_id
 _symmetry_equiv_pos_as_xyz
  1  'x, y, z'
loop_
 _atom_site_type_symbol
 _atom_site_label
 _atom_site_symmetry_multiplicity
 _atom_site_fract_x
 _atom_site_fract_y
 _atom_site_fract_z
 _atom_site_occupancy
  Ho  Ho0  1  0.625000  0.125000  0.125000  1
  Ho  Ho1  1  0.125000  0.625000  0.125000  1
  Ho  Ho2  1  0.125000  0.125000  0.625000  1
  Ho  Ho3  1  0.125000  0.125000  0.125000  1
  Ir  Ir4  1  0.625000  0.625000  0.625000  1
  Rh  Rh5  1  0.125000  0.625000  0.625000  1
  Rh  Rh6  1  0.625000  0.125000  0.625000  1
  Rh  Rh7  1  0.625000  0.625000  0.125000  1
  O  O8  1  0.711532  0.711532  0.290506  1
  O  O9  1  0.285530  0.285530  0.711774  1
  O  O10  1  0.711532  0.290506  0.711532  1
  O  O11  1  0.285530  0.711774  0.285530  1
  O  O12  1  0.290506  0.711532  0.711532  1
  O  O13  1  0.711774  0.285530  0.285530  1
  O  O14  1  0.538468  0.538468  0.959494  1
  O  O15  1  0.964470  0.964470  0.538226  1
  O  O16  1  0.538468  0.959494  0.538468  1
  O  O17  1  0.964470  0.538226  0.964470  1
  O  O18  1  0.959494  0.538468  0.538468  1
  O  O19  1  0.538226  0.964470  0.964470  1
  O  O20  1  0.250586  0.250586  0.250586  1
  O  O21  1  0.999414  0.999414  0.999414  1
