# generated using pymatgen
data_Sc6Al6GaSiGeAu3
_symmetry_space_group_name_H-M   'P 1'
_cell_length_a   6.76137000
_cell_length_b   6.76137071
_cell_length_c   8.22221400
_cell_angle_alpha   90.00000000
_cell_angle_beta   90.00000000
_cell_angle_gamma   119.99999654
_symmetry_Int_Tables_number   1
_chemical_formula_structural   Sc6Al6GaSiGeAu3
_chemical_formula_sum   'Sc6 Al6 Ga1 Si1 Ge1 Au3'
_cell_volume   325.52839192
_cell_formula_units_Z   1
loop_
 _symmetry_equiv_pos_site_id
 _symmetry_equiv_pos_as_xyz
  1  'x, y, z'
loop_
 _atom_site_type_symbol
 _atom_site_label
 _atom_site_symmetry_multiplicity
 _atom_site_fract_x
 _atom_site_fract_y
 _atom_site_fract_z
 _atom_site_occupancy
  Sc  Sc0  1  0.576949  0.997609  0.743083  1
  Sc  Sc1  1  0.002391  0.579339  0.743083  1
  Sc  Sc2  1  0.420661  0.423051  0.743083  1
  Sc  Sc3  1  0.002115  0.579221  0.256945  1
  Sc  Sc4  1  0.577106  0.997885  0.256945  1
  Sc  Sc5  1  0.420779  0.422894  0.256945  1
  Al  Al6  1  0.744143  0.754326  0.999968  1
  Al  Al7  1  0.245674  0.989818  0.999968  1
  Al  Al8  1  0.010182  0.255857  0.999968  1
  Al  Al9  1  0.753869  0.754979  0.499978  1
  Al  Al10  1  0.245021  0.998890  0.499978  1
  Al  Al11  1  0.001110  0.246131  0.499978  1
  Ga  Ga12  1  0.666667  0.333333  0.500085  1
  Si  Si13  1  0.333333  0.666667  0.499941  1
  Ge  Ge14  1  0.666667  0.333333  0.999935  1
  Au  Au15  1  0.000000  0.000000  0.753205  1
  Au  Au16  1  0.000000  0.000000  0.246715  1
  Au  Au17  1  0.333333  0.666667  0.000199  1
