# generated using pymatgen
data_SmCr4AgO14
_symmetry_space_group_name_H-M   'P 1'
_cell_length_a   7.37280065
_cell_length_b   7.37280082
_cell_length_c   7.37280038
_cell_angle_alpha   108.52527582
_cell_angle_beta   108.52527580
_cell_angle_gamma   111.38015390
_symmetry_Int_Tables_number   1
_chemical_formula_structural   SmCr4AgO14
_chemical_formula_sum   'Sm1 Cr4 Ag1 O14'
_cell_volume   308.25664570
_cell_formula_units_Z   1
loop_
 _symmetry_equiv_pos_site_id
 _symmetry_equiv_pos_as_xyz
  1  'x, y, z'
loop_
 _atom_site_type_symbol
 _atom_site_label
 _atom_site_symmetry_multiplicity
 _atom_site_fract_x
 _atom_site_fract_y
 _atom_site_fract_z
 _atom_site_occupancy
  Sm  Sm0  1  0.009932  0.009932  0.000000  1
  Cr  Cr1  1  0.828140  0.372408  0.782363  1
  Cr  Cr2  1  0.045777  0.828140  0.455732  1
  Cr  Cr3  1  0.372408  0.590046  0.544268  1
  Cr  Cr4  1  0.590046  0.045777  0.217637  1
  Ag  Ag5  1  0.425473  0.425473  0.000000  1
  O  O6  1  0.241248  0.741248  0.500000  1
  O  O7  1  0.741248  0.241248  0.500000  1
  O  O8  1  0.965733  0.645750  0.882375  1
  O  O9  1  0.083356  0.965733  0.319983  1
  O  O10  1  0.645750  0.763374  0.680017  1
  O  O11  1  0.763374  0.083356  0.117625  1
  O  O12  1  0.481303  0.794656  0.181624  1
  O  O13  1  0.299679  0.481303  0.686648  1
  O  O14  1  0.794656  0.613031  0.313352  1
  O  O15  1  0.613031  0.299679  0.818376  1
  O  O16  1  0.389422  0.086621  0.095269  1
  O  O17  1  0.294153  0.389422  0.302802  1
  O  O18  1  0.086621  0.991351  0.697198  1
  O  O19  1  0.991351  0.294153  0.904731  1
