# generated using pymatgen
data_La8Si15Ag
_symmetry_space_group_name_H-M   'P 1'
_cell_length_a   8.30886900
_cell_length_b   8.30886907
_cell_length_c   8.74876000
_cell_angle_alpha   90.00000000
_cell_angle_beta   90.00000000
_cell_angle_gamma   119.99999574
_symmetry_Int_Tables_number   1
_chemical_formula_structural   La8Si15Ag
_chemical_formula_sum   'La8 Si15 Ag1'
_cell_volume   523.07140699
_cell_formula_units_Z   1
loop_
 _symmetry_equiv_pos_site_id
 _symmetry_equiv_pos_as_xyz
  1  'x, y, z'
loop_
 _atom_site_type_symbol
 _atom_site_label
 _atom_site_symmetry_multiplicity
 _atom_site_fract_x
 _atom_site_fract_y
 _atom_site_fract_z
 _atom_site_occupancy
  La  La0  1  0.000000  0.000000  0.747269  1
  La  La1  1  0.000000  0.000000  0.252958  1
  La  La2  1  0.496461  0.503539  0.743166  1
  La  La3  1  0.496461  0.992923  0.743166  1
  La  La4  1  0.007077  0.503539  0.743166  1
  La  La5  1  0.497466  0.502534  0.256778  1
  La  La6  1  0.005069  0.502534  0.256778  1
  La  La7  1  0.497466  0.994931  0.256778  1
  Si  Si8  1  0.837105  0.162895  0.000425  1
  Si  Si9  1  0.837105  0.674210  0.000425  1
  Si  Si10  1  0.325790  0.162895  0.000425  1
  Si  Si11  1  0.833901  0.166099  0.500218  1
  Si  Si12  1  0.833901  0.667804  0.500218  1
  Si  Si13  1  0.332196  0.166099  0.500218  1
  Si  Si14  1  0.166738  0.833262  0.499853  1
  Si  Si15  1  0.666526  0.833262  0.499853  1
  Si  Si16  1  0.166738  0.333474  0.499853  1
  Si  Si17  1  0.165917  0.834083  0.999965  1
  Si  Si18  1  0.668167  0.834083  0.999965  1
  Si  Si19  1  0.165917  0.331833  0.999965  1
  Si  Si20  1  0.666667  0.333333  0.501969  1
  Si  Si21  1  0.333333  0.666667  0.498135  1
  Si  Si22  1  0.333333  0.666667  0.001226  1
  Ag  Ag23  1  0.666667  0.333333  0.997229  1
