# generated using pymatgen
data_HoEr5Bi2Mo
_symmetry_space_group_name_H-M   'P 1'
_cell_length_a   8.24744800
_cell_length_b   8.24643608
_cell_length_c   4.34961200
_cell_angle_alpha   90.00000000
_cell_angle_beta   90.00000000
_cell_angle_gamma   120.00405928
_symmetry_Int_Tables_number   1
_chemical_formula_structural   HoEr5Bi2Mo
_chemical_formula_sum   'Ho1 Er5 Bi2 Mo1'
_cell_volume   256.18238659
_cell_formula_units_Z   1
loop_
 _symmetry_equiv_pos_site_id
 _symmetry_equiv_pos_as_xyz
  1  'x, y, z'
loop_
 _atom_site_type_symbol
 _atom_site_label
 _atom_site_symmetry_multiplicity
 _atom_site_fract_x
 _atom_site_fract_y
 _atom_site_fract_z
 _atom_site_occupancy
  Ho  Ho0  1  0.610001  0.000000  0.500000  1
  Er  Er1  1  0.235372  0.000000  0.000000  1
  Er  Er2  1  0.999980  0.610690  0.500000  1
  Er  Er3  1  0.389290  0.389310  0.500000  1
  Er  Er4  1  0.764822  0.764702  0.000000  1
  Er  Er5  1  0.000120  0.235298  0.000000  1
  Bi  Bi6  1  0.333006  0.666190  0.000000  1
  Bi  Bi7  1  0.666818  0.333810  0.000000  1
  Mo  Mo8  1  0.000591  0.000000  0.500000  1
