# generated using pymatgen
data_Tb5CeHo4(SiB4)4
_symmetry_space_group_name_H-M   'P 1'
_cell_length_a   7.24431103
_cell_length_b   7.24474844
_cell_length_c   8.13502000
_cell_angle_alpha   89.99455399
_cell_angle_beta   89.99640132
_cell_angle_gamma   90.06012911
_symmetry_Int_Tables_number   1
_chemical_formula_structural   Tb5CeHo4(SiB4)4
_chemical_formula_sum   'Tb5 Ce1 Ho4 Si4 B16'
_cell_volume   426.95173390
_cell_formula_units_Z   1
loop_
 _symmetry_equiv_pos_site_id
 _symmetry_equiv_pos_as_xyz
  1  'x, y, z'
loop_
 _atom_site_type_symbol
 _atom_site_label
 _atom_site_symmetry_multiplicity
 _atom_site_fract_x
 _atom_site_fract_y
 _atom_site_fract_z
 _atom_site_occupancy
  Tb  Tb0  1  0.318679  0.818761  0.776098  1
  Tb  Tb1  1  0.319529  0.819612  0.223737  1
  Tb  Tb2  1  0.819516  0.680470  0.223395  1
  Tb  Tb3  1  0.819697  0.680724  0.776410  1
  Tb  Tb4  1  0.680750  0.180833  0.775790  1
  Ce  Ce5  1  0.682233  0.182342  0.231373  1
  Ho  Ho6  1  0.180888  0.319551  0.778247  1
  Ho  Ho7  1  0.180626  0.319353  0.221577  1
  Ho  Ho8  1  0.000850  0.999562  0.500379  1
  Ho  Ho9  1  0.498663  0.500232  0.500329  1
  Si  Si10  1  0.116211  0.615256  0.501879  1
  Si  Si11  1  0.886782  0.385688  0.500741  1
  Si  Si12  1  0.384000  0.114946  0.499822  1
  Si  Si13  1  0.614002  0.884839  0.499812  1
  B  B14  1  0.172694  0.039459  0.998891  1
  B  B15  1  0.828005  0.961108  0.999817  1
  B  B16  1  0.961172  0.171961  0.999569  1
  B  B17  1  0.327160  0.539142  0.999050  1
  B  B18  1  0.039801  0.827626  0.999046  1
  B  B19  1  0.671465  0.460488  0.999557  1
  B  B20  1  0.538689  0.672272  0.998887  1
  B  B21  1  0.460366  0.327590  0.999810  1
  B  B22  1  0.090348  0.589811  0.999248  1
  B  B23  1  0.909841  0.409284  0.001037  1
  B  B24  1  0.409632  0.090173  0.999352  1
  B  B25  1  0.590038  0.909720  0.999329  1
  B  B26  1  0.999816  0.999967  0.160993  1
  B  B27  1  0.000519  0.000332  0.837402  1
  B  B28  1  0.499184  0.499795  0.837404  1
  B  B29  1  0.498844  0.499102  0.161021  1
