# generated using pymatgen
data_YbYTh2(Al3Re)2
_symmetry_space_group_name_H-M   'P 1'
_cell_length_a   5.57965200
_cell_length_b   5.57965117
_cell_length_c   8.99784700
_cell_angle_alpha   90.00000000
_cell_angle_beta   90.00000000
_cell_angle_gamma   119.99999304
_symmetry_Int_Tables_number   1
_chemical_formula_structural   YbYTh2(Al3Re)2
_chemical_formula_sum   'Yb1 Y1 Th2 Al6 Re2'
_cell_volume   242.59588399
_cell_formula_units_Z   1
loop_
 _symmetry_equiv_pos_site_id
 _symmetry_equiv_pos_as_xyz
  1  'x, y, z'
loop_
 _atom_site_type_symbol
 _atom_site_label
 _atom_site_symmetry_multiplicity
 _atom_site_fract_x
 _atom_site_fract_y
 _atom_site_fract_z
 _atom_site_occupancy
  Yb  Yb0  1  0.666667  0.333333  0.945085  1
  Y  Y1  1  0.333333  0.666667  0.049219  1
  Th  Th2  1  0.333333  0.666667  0.457099  1
  Th  Th3  1  0.666667  0.333333  0.543327  1
  Al  Al4  1  0.839766  0.160234  0.245468  1
  Al  Al5  1  0.839766  0.679533  0.245468  1
  Al  Al6  1  0.320467  0.160234  0.245468  1
  Al  Al7  1  0.160934  0.839066  0.755677  1
  Al  Al8  1  0.160934  0.321867  0.755677  1
  Al  Al9  1  0.678133  0.839066  0.755677  1
  Re  Re10  1  0.000000  0.000000  0.501614  1
  Re  Re11  1  0.000000  0.000000  0.000220  1
