# generated using pymatgen
data_Tb3Er9Si11Au
_symmetry_space_group_name_H-M   'P 1'
_cell_length_a   3.83912700
_cell_length_b   5.67434567
_cell_length_c   23.61779200
_cell_angle_alpha   82.73106285
_cell_angle_beta   90.00000000
_cell_angle_gamma   90.00000000
_symmetry_Int_Tables_number   1
_chemical_formula_structural   Tb3Er9Si11Au
_chemical_formula_sum   'Tb3 Er9 Si11 Au1'
_cell_volume   510.36762259
_cell_formula_units_Z   1
loop_
 _symmetry_equiv_pos_site_id
 _symmetry_equiv_pos_as_xyz
  1  'x, y, z'
loop_
 _atom_site_type_symbol
 _atom_site_label
 _atom_site_symmetry_multiplicity
 _atom_site_fract_x
 _atom_site_fract_y
 _atom_site_fract_z
 _atom_site_occupancy
  Tb  Tb0  1  0.750000  0.349492  0.558368  1
  Tb  Tb1  1  0.750000  0.991191  0.726431  1
  Tb  Tb2  1  0.750000  0.169726  0.894233  1
  Er  Er3  1  0.750000  0.360938  0.059838  1
  Er  Er4  1  0.250000  0.662287  0.940917  1
  Er  Er5  1  0.750000  0.531970  0.226890  1
  Er  Er6  1  0.250000  0.466703  0.773478  1
  Er  Er7  1  0.750000  0.168860  0.392080  1
  Er  Er8  1  0.250000  0.823907  0.605391  1
  Er  Er9  1  0.250000  0.642777  0.438780  1
  Er  Er10  1  0.250000  0.997132  0.274714  1
  Er  Er11  1  0.250000  0.840502  0.107645  1
  Si  Si12  1  0.750000  0.873912  0.013770  1
  Si  Si13  1  0.250000  0.149597  0.988723  1
  Si  Si14  1  0.750000  0.030925  0.182347  1
  Si  Si15  1  0.250000  0.954066  0.821455  1
  Si  Si16  1  0.750000  0.707577  0.345884  1
  Si  Si17  1  0.250000  0.286214  0.653175  1
  Si  Si18  1  0.750000  0.860202  0.510916  1
  Si  Si19  1  0.250000  0.131111  0.485235  1
  Si  Si20  1  0.750000  0.530757  0.678718  1
  Si  Si21  1  0.250000  0.460800  0.320493  1
  Si  Si22  1  0.750000  0.680471  0.846551  1
  Au  Au23  1  0.250000  0.328884  0.153962  1
