# generated using pymatgen
data_Y3ThCdCo
_symmetry_space_group_name_H-M   'P 1'
_cell_length_a   9.59283629
_cell_length_b   9.59283529
_cell_length_c   9.59283700
_cell_angle_alpha   59.99999754
_cell_angle_beta   60.00000098
_cell_angle_gamma   59.99999920
_symmetry_Int_Tables_number   1
_chemical_formula_structural   Y3ThCdCo
_chemical_formula_sum   'Y12 Th4 Cd4 Co4'
_cell_volume   624.20332820
_cell_formula_units_Z   4
loop_
 _symmetry_equiv_pos_site_id
 _symmetry_equiv_pos_as_xyz
  1  'x, y, z'
loop_
 _atom_site_type_symbol
 _atom_site_label
 _atom_site_symmetry_multiplicity
 _atom_site_fract_x
 _atom_site_fract_y
 _atom_site_fract_z
 _atom_site_occupancy
  Y  Y0  1  0.812359  0.187641  0.187641  1
  Y  Y1  1  0.187641  0.812359  0.812359  1
  Y  Y2  1  0.187641  0.812359  0.187641  1
  Y  Y3  1  0.812359  0.187641  0.812359  1
  Y  Y4  1  0.187641  0.187641  0.812359  1
  Y  Y5  1  0.812359  0.812359  0.187641  1
  Y  Y6  1  0.936686  0.563314  0.563314  1
  Y  Y7  1  0.563314  0.936686  0.936686  1
  Y  Y8  1  0.563314  0.936686  0.563314  1
  Y  Y9  1  0.936686  0.563314  0.936686  1
  Y  Y10  1  0.563314  0.563314  0.936686  1
  Y  Y11  1  0.936686  0.936686  0.563314  1
  Th  Th12  1  0.345646  0.345646  0.345646  1
  Th  Th13  1  0.345646  0.345646  0.963063  1
  Th  Th14  1  0.345646  0.963063  0.345646  1
  Th  Th15  1  0.963063  0.345646  0.345646  1
  Cd  Cd16  1  0.581646  0.581646  0.581646  1
  Cd  Cd17  1  0.581646  0.581646  0.255061  1
  Cd  Cd18  1  0.581646  0.255061  0.581646  1
  Cd  Cd19  1  0.255061  0.581646  0.581646  1
  Co  Co20  1  0.145515  0.145515  0.145515  1
  Co  Co21  1  0.145515  0.145515  0.563455  1
  Co  Co22  1  0.145515  0.563455  0.145515  1
  Co  Co23  1  0.563455  0.145515  0.145515  1
