# generated using pymatgen
data_Ga6Ni5PdO16
_symmetry_space_group_name_H-M   'P 1'
_cell_length_a   5.91876567
_cell_length_b   5.91808510
_cell_length_c   10.38953099
_cell_angle_alpha   90.34600298
_cell_angle_beta   73.18779002
_cell_angle_gamma   120.22172050
_symmetry_Int_Tables_number   1
_chemical_formula_structural   Ga6Ni5PdO16
_chemical_formula_sum   'Ga6 Ni5 Pd1 O16'
_cell_volume   296.70373983
_cell_formula_units_Z   1
loop_
 _symmetry_equiv_pos_site_id
 _symmetry_equiv_pos_as_xyz
  1  'x, y, z'
loop_
 _atom_site_type_symbol
 _atom_site_label
 _atom_site_symmetry_multiplicity
 _atom_site_fract_x
 _atom_site_fract_y
 _atom_site_fract_z
 _atom_site_occupancy
  Ga  Ga0  1  0.014727  0.994057  0.991080  1
  Ga  Ga1  1  0.003278  0.495677  0.501083  1
  Ga  Ga2  1  0.735089  0.880996  0.384113  1
  Ga  Ga3  1  0.746581  0.379346  0.874030  1
  Ga  Ga4  1  0.374830  0.693815  0.931110  1
  Ga  Ga5  1  0.375270  0.181132  0.443646  1
  Ni  Ni6  1  0.374703  0.937141  0.187552  1
  Ni  Ni7  1  0.875296  0.437828  0.187535  1
  Ni  Ni8  1  0.374902  0.937619  0.687559  1
  Ni  Ni9  1  0.374876  0.437288  0.687436  1
  Ni  Ni10  1  0.875260  0.937740  0.687384  1
  Pd  Pd11  1  0.375081  0.437448  0.187503  1
  O  O12  1  0.619446  0.810291  0.570302  1
  O  O13  1  0.617167  0.311306  0.071565  1
  O  O14  1  0.132901  0.563634  0.303592  1
  O  O15  1  0.130523  0.064754  0.804816  1
  O  O16  1  0.135629  0.568161  0.816449  1
  O  O17  1  0.141014  0.075708  0.311863  1
  O  O18  1  0.611232  0.572646  0.816048  1
  O  O19  1  0.613371  0.074158  0.312454  1
  O  O20  1  0.615281  0.047798  0.816519  1
  O  O21  1  0.612365  0.547095  0.311892  1
  O  O22  1  0.137776  0.327984  0.063197  1
  O  O23  1  0.134756  0.827338  0.558413  1
  O  O24  1  0.136656  0.800817  0.062449  1
  O  O25  1  0.138829  0.302356  0.558798  1
  O  O26  1  0.608872  0.799058  0.063178  1
  O  O27  1  0.614286  0.306813  0.558445  1
