# generated using pymatgen
data_MnCr2Ir4Os
_symmetry_space_group_name_H-M   'P 1'
_cell_length_a   5.37138800
_cell_length_b   5.40180319
_cell_length_c   4.25266700
_cell_angle_alpha   90.00000000
_cell_angle_beta   90.00000000
_cell_angle_gamma   119.81391664
_symmetry_Int_Tables_number   1
_chemical_formula_structural   MnCr2Ir4Os
_chemical_formula_sum   'Mn1 Cr2 Ir4 Os1'
_cell_volume   107.06033191
_cell_formula_units_Z   1
loop_
 _symmetry_equiv_pos_site_id
 _symmetry_equiv_pos_as_xyz
  1  'x, y, z'
loop_
 _atom_site_type_symbol
 _atom_site_label
 _atom_site_symmetry_multiplicity
 _atom_site_fract_x
 _atom_site_fract_y
 _atom_site_fract_z
 _atom_site_occupancy
  Mn  Mn0  1  0.170277  0.340552  0.250000  1
  Cr  Cr1  1  0.327785  0.655570  0.750000  1
  Cr  Cr2  1  0.668121  0.336239  0.250000  1
  Ir  Ir3  1  0.658524  0.825409  0.250000  1
  Ir  Ir4  1  0.166886  0.825409  0.250000  1
  Ir  Ir5  1  0.335827  0.177506  0.750000  1
  Ir  Ir6  1  0.841678  0.177506  0.750000  1
  Os  Os7  1  0.830904  0.661809  0.750000  1
