# generated using pymatgen
data_Ho4Lu4Tc(B8Os)3
_symmetry_space_group_name_H-M   'P 1'
_cell_length_a   3.62341400
_cell_length_b   9.07299254
_cell_length_c   11.46130401
_cell_angle_alpha   89.95225330
_cell_angle_beta   90.00000000
_cell_angle_gamma   90.00000000
_symmetry_Int_Tables_number   1
_chemical_formula_structural   Ho4Lu4Tc(B8Os)3
_chemical_formula_sum   'Ho4 Lu4 Tc1 B24 Os3'
_cell_volume   376.79262499
_cell_formula_units_Z   1
loop_
 _symmetry_equiv_pos_site_id
 _symmetry_equiv_pos_as_xyz
  1  'x, y, z'
loop_
 _atom_site_type_symbol
 _atom_site_label
 _atom_site_symmetry_multiplicity
 _atom_site_fract_x
 _atom_site_fract_y
 _atom_site_fract_z
 _atom_site_occupancy
  Ho  Ho0  1  0.000000  0.323166  0.413014  1
  Ho  Ho1  1  0.000000  0.678079  0.583580  1
  Ho  Ho2  1  0.000000  0.819497  0.088008  1
  Ho  Ho3  1  0.000000  0.178408  0.914822  1
  Lu  Lu4  1  0.000000  0.942907  0.372683  1
  Lu  Lu5  1  0.000000  0.056676  0.627245  1
  Lu  Lu6  1  0.000000  0.444771  0.128081  1
  Lu  Lu7  1  0.000000  0.556442  0.872440  1
  Tc  Tc8  1  0.000000  0.638061  0.320569  1
  B  B9  1  0.500000  0.553228  0.432997  1
  B  B10  1  0.500000  0.446194  0.567338  1
  B  B11  1  0.500000  0.053940  0.067066  1
  B  B12  1  0.500000  0.946007  0.933160  1
  B  B13  1  0.500000  0.749531  0.419213  1
  B  B14  1  0.500000  0.250631  0.580658  1
  B  B15  1  0.500000  0.249705  0.080530  1
  B  B16  1  0.500000  0.750393  0.919423  1
  B  B17  1  0.500000  0.792002  0.265999  1
  B  B18  1  0.500000  0.208220  0.734046  1
  B  B19  1  0.500000  0.291674  0.233426  1
  B  B20  1  0.500000  0.708630  0.765939  1
  B  B21  1  0.500000  0.630506  0.185132  1
  B  B22  1  0.500000  0.369263  0.815431  1
  B  B23  1  0.500000  0.130516  0.314731  1
  B  B24  1  0.500000  0.869735  0.684752  1
  B  B25  1  0.500000  0.982155  0.213232  1
  B  B26  1  0.500000  0.017779  0.787061  1
  B  B27  1  0.500000  0.481687  0.286734  1
  B  B28  1  0.500000  0.517568  0.713394  1
  B  B29  1  0.500000  0.603948  0.028313  1
  B  B30  1  0.500000  0.395893  0.971114  1
  B  B31  1  0.500000  0.104513  0.471262  1
  B  B32  1  0.500000  0.896666  0.529013  1
  Os  Os33  1  0.000000  0.361534  0.680139  1
  Os  Os34  1  0.000000  0.137977  0.178906  1
  Os  Os35  1  0.000000  0.862094  0.820547  1
