# generated using pymatgen
data_Pr4Al18Rh5Au
_symmetry_space_group_name_H-M   'P 1'
_cell_length_a   7.66614581
_cell_length_b   7.66617172
_cell_length_c   9.61962601
_cell_angle_alpha   90.00238544
_cell_angle_beta   90.00264593
_cell_angle_gamma   119.55189583
_symmetry_Int_Tables_number   1
_chemical_formula_structural   Pr4Al18Rh5Au
_chemical_formula_sum   'Pr4 Al18 Rh5 Au1'
_cell_volume   491.79916937
_cell_formula_units_Z   1
loop_
 _symmetry_equiv_pos_site_id
 _symmetry_equiv_pos_as_xyz
  1  'x, y, z'
loop_
 _atom_site_type_symbol
 _atom_site_label
 _atom_site_symmetry_multiplicity
 _atom_site_fract_x
 _atom_site_fract_y
 _atom_site_fract_z
 _atom_site_occupancy
  Pr  Pr0  1  0.991657  0.666155  0.749860  1
  Pr  Pr1  1  0.001850  0.329331  0.250982  1
  Pr  Pr2  1  0.670662  0.998146  0.749032  1
  Pr  Pr3  1  0.333847  0.008345  0.250138  1
  Al  Al4  1  0.129558  0.127148  0.751594  1
  Al  Al5  1  0.872853  0.870443  0.248403  1
  Al  Al6  1  0.013801  0.335211  0.577383  1
  Al  Al7  1  0.006637  0.675659  0.423992  1
  Al  Al8  1  0.000463  0.666136  0.071735  1
  Al  Al9  1  0.333861  0.999538  0.928265  1
  Al  Al10  1  0.002883  0.334628  0.927212  1
  Al  Al11  1  0.665376  0.997120  0.072792  1
  Al  Al12  1  0.664786  0.986195  0.422621  1
  Al  Al13  1  0.324345  0.993363  0.576007  1
  Al  Al14  1  0.332213  0.333247  0.044621  1
  Al  Al15  1  0.666752  0.667783  0.955379  1
  Al  Al16  1  0.664291  0.671142  0.551792  1
  Al  Al17  1  0.328861  0.335710  0.448206  1
  Al  Al18  1  0.341886  0.549689  0.751541  1
  Al  Al19  1  0.659528  0.459943  0.239991  1
  Al  Al20  1  0.540060  0.340471  0.760008  1
  Al  Al21  1  0.450309  0.658113  0.248455  1
  Rh  Rh22  1  0.329595  0.670409  0.499995  1
  Rh  Rh23  1  0.329209  0.670792  0.000000  1
  Rh  Rh24  1  0.671882  0.328124  0.999999  1
  Rh  Rh25  1  0.999704  0.000295  0.500000  1
  Rh  Rh26  1  0.000238  0.999760  0.999998  1
  Au  Au27  1  0.672894  0.327104  0.499998  1
