# generated using pymatgen
data_Er2TaBi4SbO14
_symmetry_space_group_name_H-M   'P 1'
_cell_length_a   6.46306573
_cell_length_b   6.79467578
_cell_length_c   7.64239469
_cell_angle_alpha   106.46346821
_cell_angle_beta   89.42691462
_cell_angle_gamma   98.94857430
_symmetry_Int_Tables_number   1
_chemical_formula_structural   Er2TaBi4SbO14
_chemical_formula_sum   'Er2 Ta1 Bi4 Sb1 O14'
_cell_volume   317.72831970
_cell_formula_units_Z   1
loop_
 _symmetry_equiv_pos_site_id
 _symmetry_equiv_pos_as_xyz
  1  'x, y, z'
loop_
 _atom_site_type_symbol
 _atom_site_label
 _atom_site_symmetry_multiplicity
 _atom_site_fract_x
 _atom_site_fract_y
 _atom_site_fract_z
 _atom_site_occupancy
  Er  Er0  1  0.544325  0.995765  0.750949  1
  Er  Er1  1  0.455675  0.004235  0.249051  1
  Ta  Ta2  1  0.000000  0.000000  0.500000  1
  Bi  Bi3  1  0.255583  0.514925  0.878208  1
  Bi  Bi4  1  0.744417  0.485075  0.121792  1
  Bi  Bi5  1  0.729842  0.457297  0.607022  1
  Bi  Bi6  1  0.270158  0.542703  0.392978  1
  Sb  Sb7  1  0.000000  0.000000  0.000000  1
  O  O8  1  0.457914  0.661941  0.182935  1
  O  O9  1  0.542086  0.338059  0.817065  1
  O  O10  1  0.295151  0.952688  0.952879  1
  O  O11  1  0.704849  0.047312  0.047121  1
  O  O12  1  0.287323  0.925300  0.516947  1
  O  O13  1  0.712677  0.074700  0.483053  1
  O  O14  1  0.524310  0.347316  0.347955  1
  O  O15  1  0.475690  0.652684  0.652045  1
  O  O16  1  0.917426  0.687371  0.954099  1
  O  O17  1  0.082574  0.312629  0.045901  1
  O  O18  1  0.101052  0.303477  0.614861  1
  O  O19  1  0.898948  0.696523  0.385139  1
  O  O20  1  0.905209  0.957420  0.738854  1
  O  O21  1  0.094791  0.042580  0.261146  1
