# generated using pymatgen
data_Sm8GeRuBr12
_symmetry_space_group_name_H-M   'P 1'
_cell_length_a   4.16210200
_cell_length_b   13.66291695
_cell_length_c   14.28046980
_cell_angle_alpha   88.25333239
_cell_angle_beta   90.00000000
_cell_angle_gamma   90.00000000
_symmetry_Int_Tables_number   1
_chemical_formula_structural   Sm8GeRuBr12
_chemical_formula_sum   'Sm8 Ge1 Ru1 Br12'
_cell_volume   811.70235803
_cell_formula_units_Z   1
loop_
 _symmetry_equiv_pos_site_id
 _symmetry_equiv_pos_as_xyz
  1  'x, y, z'
loop_
 _atom_site_type_symbol
 _atom_site_label
 _atom_site_symmetry_multiplicity
 _atom_site_fract_x
 _atom_site_fract_y
 _atom_site_fract_z
 _atom_site_occupancy
  Sm  Sm0  1  0.500000  0.111927  0.349717  1
  Sm  Sm1  1  0.500000  0.888073  0.650283  1
  Sm  Sm2  1  0.500000  0.617486  0.159269  1
  Sm  Sm3  1  0.500000  0.382514  0.840731  1
  Sm  Sm4  1  0.000000  0.122145  0.582558  1
  Sm  Sm5  1  0.000000  0.877855  0.417442  1
  Sm  Sm6  1  0.000000  0.620435  0.917695  1
  Sm  Sm7  1  0.000000  0.379565  0.082305  1
  Ge  Ge8  1  0.500000  0.500000  0.000000  1
  Ru  Ru9  1  0.500000  0.000000  0.500000  1
  Br  Br10  1  0.500000  0.244932  0.166784  1
  Br  Br11  1  0.500000  0.755068  0.833216  1
  Br  Br12  1  0.500000  0.737732  0.332450  1
  Br  Br13  1  0.500000  0.262268  0.667550  1
  Br  Br14  1  0.000000  0.252050  0.411065  1
  Br  Br15  1  0.000000  0.747950  0.588935  1
  Br  Br16  1  0.000000  0.752539  0.084535  1
  Br  Br17  1  0.000000  0.247461  0.915465  1
  Br  Br18  1  0.000000  0.004525  0.244087  1
  Br  Br19  1  0.000000  0.995475  0.755913  1
  Br  Br20  1  0.000000  0.498938  0.256790  1
  Br  Br21  1  0.000000  0.501062  0.743210  1
