# generated using pymatgen
data_Er4CrB12Ir
_symmetry_space_group_name_H-M   'P 1'
_cell_length_a   3.58852200
_cell_length_b   9.11193317
_cell_length_c   11.48454904
_cell_angle_alpha   89.82100740
_cell_angle_beta   90.00000000
_cell_angle_gamma   90.00000000
_symmetry_Int_Tables_number   1
_chemical_formula_structural   Er4CrB12Ir
_chemical_formula_sum   'Er8 Cr2 B24 Ir2'
_cell_volume   375.52423172
_cell_formula_units_Z   2
loop_
 _symmetry_equiv_pos_site_id
 _symmetry_equiv_pos_as_xyz
  1  'x, y, z'
loop_
 _atom_site_type_symbol
 _atom_site_label
 _atom_site_symmetry_multiplicity
 _atom_site_fract_x
 _atom_site_fract_y
 _atom_site_fract_z
 _atom_site_occupancy
  Er  Er0  1  0.000000  0.816368  0.089101  1
  Er  Er1  1  0.000000  0.183632  0.910899  1
  Er  Er2  1  0.000000  0.326213  0.417558  1
  Er  Er3  1  0.000000  0.673787  0.582442  1
  Er  Er4  1  0.000000  0.447042  0.129234  1
  Er  Er5  1  0.000000  0.552958  0.870766  1
  Er  Er6  1  0.000000  0.939862  0.373707  1
  Er  Er7  1  0.000000  0.060138  0.626293  1
  Cr  Cr8  1  0.000000  0.638920  0.319251  1
  Cr  Cr9  1  0.000000  0.361080  0.680749  1
  B  B10  1  0.500000  0.053902  0.065794  1
  B  B11  1  0.500000  0.946098  0.934206  1
  B  B12  1  0.500000  0.552814  0.433033  1
  B  B13  1  0.500000  0.447186  0.566967  1
  B  B14  1  0.500000  0.250311  0.079394  1
  B  B15  1  0.500000  0.749689  0.920606  1
  B  B16  1  0.500000  0.746889  0.419047  1
  B  B17  1  0.500000  0.253111  0.580953  1
  B  B18  1  0.500000  0.291988  0.235209  1
  B  B19  1  0.500000  0.708012  0.764791  1
  B  B20  1  0.500000  0.791777  0.265253  1
  B  B21  1  0.500000  0.208223  0.734747  1
  B  B22  1  0.500000  0.131217  0.316381  1
  B  B23  1  0.500000  0.868783  0.683619  1
  B  B24  1  0.500000  0.631793  0.185280  1
  B  B25  1  0.500000  0.368207  0.814720  1
  B  B26  1  0.500000  0.482618  0.288174  1
  B  B27  1  0.500000  0.517382  0.711826  1
  B  B28  1  0.500000  0.981302  0.212806  1
  B  B29  1  0.500000  0.018698  0.787194  1
  B  B30  1  0.500000  0.106665  0.470091  1
  B  B31  1  0.500000  0.893335  0.529909  1
  B  B32  1  0.500000  0.606177  0.028746  1
  B  B33  1  0.500000  0.393823  0.971254  1
  Ir  Ir34  1  0.000000  0.137071  0.177725  1
  Ir  Ir35  1  0.000000  0.862929  0.822275  1
