# generated using pymatgen
data_Tb2YAs4Pd7
_symmetry_space_group_name_H-M   'P 1'
_cell_length_a   8.13613853
_cell_length_b   8.13613920
_cell_length_c   9.64459769
_cell_angle_alpha   55.59912394
_cell_angle_beta   55.59911975
_cell_angle_gamma   29.43695483
_symmetry_Int_Tables_number   1
_chemical_formula_structural   Tb2YAs4Pd7
_chemical_formula_sum   'Tb2 Y1 As4 Pd7'
_cell_volume   254.67200625
_cell_formula_units_Z   1
loop_
 _symmetry_equiv_pos_site_id
 _symmetry_equiv_pos_as_xyz
  1  'x, y, z'
loop_
 _atom_site_type_symbol
 _atom_site_label
 _atom_site_symmetry_multiplicity
 _atom_site_fract_x
 _atom_site_fract_y
 _atom_site_fract_z
 _atom_site_occupancy
  Tb  Tb0  1  0.499948  0.499948  0.500070  1
  Tb  Tb1  1  0.822621  0.822621  0.171542  1
  Y  Y2  1  0.177793  0.177793  0.827521  1
  As  As3  1  0.394170  0.394170  0.323216  1
  As  As4  1  0.605901  0.605901  0.676892  1
  As  As5  1  0.840525  0.840525  0.752009  1
  As  As6  1  0.159037  0.159037  0.248581  1
  Pd  Pd7  1  0.667352  0.667352  0.072825  1
  Pd  Pd8  1  0.012072  0.012072  0.206412  1
  Pd  Pd9  1  0.987891  0.987891  0.793720  1
  Pd  Pd10  1  0.500213  0.500213  0.999775  1
  Pd  Pd11  1  0.194816  0.194816  0.473676  1
  Pd  Pd12  1  0.805324  0.805324  0.526704  1
  Pd  Pd13  1  0.332337  0.332337  0.927056  1
