# generated using pymatgen
data_Tb20Cd3Hg3Os2
_symmetry_space_group_name_H-M   'P 1'
_cell_length_a   9.64380600
_cell_length_b   9.64539052
_cell_length_c   9.84512300
_cell_angle_alpha   90.00000000
_cell_angle_beta   90.00000000
_cell_angle_gamma   120.01674976
_symmetry_Int_Tables_number   1
_chemical_formula_structural   Tb20Cd3Hg3Os2
_chemical_formula_sum   'Tb20 Cd3 Hg3 Os2'
_cell_volume   792.95169794
_cell_formula_units_Z   1
loop_
 _symmetry_equiv_pos_site_id
 _symmetry_equiv_pos_as_xyz
  1  'x, y, z'
loop_
 _atom_site_type_symbol
 _atom_site_label
 _atom_site_symmetry_multiplicity
 _atom_site_fract_x
 _atom_site_fract_y
 _atom_site_fract_z
 _atom_site_occupancy
  Tb  Tb0  1  0.999987  0.999992  0.490717  1
  Tb  Tb1  1  0.999987  0.999992  0.009283  1
  Tb  Tb2  1  0.209308  0.790697  0.439769  1
  Tb  Tb3  1  0.209288  0.418592  0.439750  1
  Tb  Tb4  1  0.581394  0.790708  0.439765  1
  Tb  Tb5  1  0.790434  0.209560  0.559483  1
  Tb  Tb6  1  0.790447  0.580893  0.559500  1
  Tb  Tb7  1  0.419122  0.209559  0.559473  1
  Tb  Tb8  1  0.790434  0.209560  0.940517  1
  Tb  Tb9  1  0.790447  0.580893  0.940500  1
  Tb  Tb10  1  0.419122  0.209559  0.940527  1
  Tb  Tb11  1  0.209308  0.790697  0.060231  1
  Tb  Tb12  1  0.209288  0.418592  0.060250  1
  Tb  Tb13  1  0.581394  0.790708  0.060235  1
  Tb  Tb14  1  0.540456  0.459551  0.250000  1
  Tb  Tb15  1  0.540449  0.080896  0.250000  1
  Tb  Tb16  1  0.919071  0.459539  0.250000  1
  Tb  Tb17  1  0.459564  0.540455  0.750000  1
  Tb  Tb18  1  0.459573  0.919131  0.750000  1
  Tb  Tb19  1  0.080879  0.540439  0.750000  1
  Cd  Cd20  1  0.112933  0.887005  0.750000  1
  Cd  Cd21  1  0.112945  0.225944  0.750000  1
  Cd  Cd22  1  0.774067  0.887029  0.750000  1
  Hg  Hg23  1  0.879961  0.120107  0.250000  1
  Hg  Hg24  1  0.879963  0.759847  0.250000  1
  Hg  Hg25  1  0.240152  0.120070  0.250000  1
  Os  Os26  1  0.333337  0.666675  0.250000  1
  Os  Os27  1  0.666686  0.333318  0.750000  1
