# generated using pymatgen
data_Na3Np2F10
_symmetry_space_group_name_H-M   'P 1'
_cell_length_a   6.67834420
_cell_length_b   6.67834375
_cell_length_c   8.60529900
_cell_angle_alpha   50.42966194
_cell_angle_beta   50.42966511
_cell_angle_gamma   48.51855106
_symmetry_Int_Tables_number   1
_chemical_formula_structural   Na3Np2F10
_chemical_formula_sum   'Na3 Np2 F10'
_cell_volume   205.69644549
_cell_formula_units_Z   1
loop_
 _symmetry_equiv_pos_site_id
 _symmetry_equiv_pos_as_xyz
  1  'x, y, z'
loop_
 _atom_site_type_symbol
 _atom_site_label
 _atom_site_symmetry_multiplicity
 _atom_site_fract_x
 _atom_site_fract_y
 _atom_site_fract_z
 _atom_site_occupancy
  Na  Na0  1  0.113406  0.113406  0.589118  1
  Na  Na1  1  0.500000  0.500000  0.000000  1
  Na  Na2  1  0.886594  0.886594  0.410882  1
  Np  Np3  1  0.294722  0.294722  0.797940  1
  Np  Np4  1  0.705278  0.705278  0.202060  1
  F  F5  1  0.553685  0.045503  0.290726  1
  F  F6  1  0.954497  0.446315  0.709274  1
  F  F7  1  0.045503  0.553685  0.290726  1
  F  F8  1  0.352253  0.859234  0.102983  1
  F  F9  1  0.446315  0.954497  0.709274  1
  F  F10  1  0.736375  0.263625  0.500000  1
  F  F11  1  0.859234  0.352253  0.102983  1
  F  F12  1  0.140766  0.647747  0.897017  1
  F  F13  1  0.263625  0.736375  0.500000  1
  F  F14  1  0.647747  0.140766  0.897017  1
