# generated using pymatgen
data_RbTmTe3O8
_symmetry_space_group_name_H-M   'P 1'
_cell_length_a   6.01418670
_cell_length_b   7.78354293
_cell_length_c   11.50034498
_cell_angle_alpha   100.63465393
_cell_angle_beta   89.35838152
_cell_angle_gamma   108.91054283
_symmetry_Int_Tables_number   1
_chemical_formula_structural   RbTmTe3O8
_chemical_formula_sum   'Rb2 Tm2 Te6 O16'
_cell_volume   499.86114100
_cell_formula_units_Z   2
loop_
 _symmetry_equiv_pos_site_id
 _symmetry_equiv_pos_as_xyz
  1  'x, y, z'
loop_
 _atom_site_type_symbol
 _atom_site_label
 _atom_site_symmetry_multiplicity
 _atom_site_fract_x
 _atom_site_fract_y
 _atom_site_fract_z
 _atom_site_occupancy
  Rb  Rb0  1  0.839882  0.119868  0.168800  1
  Rb  Rb1  1  0.160118  0.880132  0.831200  1
  Tm  Tm2  1  0.500000  0.500000  0.000000  1
  Tm  Tm3  1  0.000000  0.500000  0.500000  1
  Te  Te4  1  0.217211  0.993073  0.419446  1
  Te  Te5  1  0.782789  0.006927  0.580554  1
  Te  Te6  1  0.072330  0.683738  0.150971  1
  Te  Te7  1  0.927670  0.316262  0.849029  1
  Te  Te8  1  0.512956  0.522778  0.335848  1
  Te  Te9  1  0.487044  0.477222  0.664152  1
  O  O10  1  0.180965  0.743454  0.421481  1
  O  O11  1  0.819035  0.256546  0.578519  1
  O  O12  1  0.234479  0.935676  0.232678  1
  O  O13  1  0.765521  0.064324  0.767322  1
  O  O14  1  0.890211  0.966559  0.397210  1
  O  O15  1  0.109789  0.033441  0.602790  1
  O  O16  1  0.269339  0.682845  0.021766  1
  O  O17  1  0.730661  0.317155  0.978234  1
  O  O18  1  0.825227  0.733689  0.079392  1
  O  O19  1  0.174773  0.266311  0.920608  1
  O  O20  1  0.399133  0.433673  0.176080  1
  O  O21  1  0.600867  0.566327  0.823920  1
  O  O22  1  0.253458  0.368915  0.406724  1
  O  O23  1  0.746542  0.631085  0.593276  1
  O  O24  1  0.732325  0.397032  0.344288  1
  O  O25  1  0.267675  0.602968  0.655712  1
