# generated using pymatgen
data_Tm7Hf13Si15Sb
_symmetry_space_group_name_H-M   'P 1'
_cell_length_a   7.26814918
_cell_length_b   7.24125653
_cell_length_c   13.28323192
_cell_angle_alpha   90.01131030
_cell_angle_beta   89.61933539
_cell_angle_gamma   90.11949887
_symmetry_Int_Tables_number   1
_chemical_formula_structural   Tm7Hf13Si15Sb
_chemical_formula_sum   'Tm7 Hf13 Si15 Sb1'
_cell_volume   699.08661074
_cell_formula_units_Z   1
loop_
 _symmetry_equiv_pos_site_id
 _symmetry_equiv_pos_as_xyz
  1  'x, y, z'
loop_
 _atom_site_type_symbol
 _atom_site_label
 _atom_site_symmetry_multiplicity
 _atom_site_fract_x
 _atom_site_fract_y
 _atom_site_fract_z
 _atom_site_occupancy
  Tm  Tm0  1  0.496131  0.153337  0.533548  1
  Tm  Tm1  1  0.499115  0.841785  0.034482  1
  Tm  Tm2  1  0.652123  0.002153  0.287606  1
  Tm  Tm3  1  0.342945  0.992934  0.783153  1
  Tm  Tm4  1  0.846987  0.511644  0.963357  1
  Tm  Tm5  1  0.154051  0.494860  0.466058  1
  Tm  Tm6  1  0.003412  0.655185  0.713836  1
  Hf  Hf7  1  0.675757  0.324628  0.749352  1
  Hf  Hf8  1  0.323618  0.672263  0.251057  1
  Hf  Hf9  1  0.823805  0.824492  0.499290  1
  Hf  Hf10  1  0.180523  0.176664  0.999823  1
  Hf  Hf11  1  0.014188  0.361091  0.221138  1
  Hf  Hf12  1  0.488777  0.358591  0.125085  1
  Hf  Hf13  1  0.502506  0.646863  0.624426  1
  Hf  Hf14  1  0.851252  0.002952  0.872439  1
  Hf  Hf15  1  0.146723  0.996677  0.374097  1
  Hf  Hf16  1  0.648816  0.499644  0.373654  1
  Hf  Hf17  1  0.349828  0.498977  0.874188  1
  Hf  Hf18  1  0.011877  0.839259  0.129165  1
  Hf  Hf19  1  0.997364  0.147275  0.623853  1
  Si  Si20  1  0.204639  0.859841  0.566832  1
  Si  Si21  1  0.639908  0.705074  0.816722  1
  Si  Si22  1  0.357239  0.296425  0.318125  1
  Si  Si23  1  0.860925  0.206046  0.428749  1
  Si  Si24  1  0.138773  0.797304  0.933145  1
  Si  Si25  1  0.708512  0.637163  0.181913  1
  Si  Si26  1  0.295253  0.358511  0.680825  1
  Si  Si27  1  0.539454  0.203905  0.929569  1
  Si  Si28  1  0.449826  0.794082  0.435953  1
  Si  Si29  1  0.702248  0.950922  0.684388  1
  Si  Si30  1  0.295512  0.052167  0.186389  1
  Si  Si31  1  0.796098  0.449966  0.563290  1
  Si  Si32  1  0.199464  0.545913  0.065026  1
  Si  Si33  1  0.951733  0.699589  0.316261  1
  Si  Si34  1  0.048638  0.297439  0.814079  1
  Sb  Sb35  1  0.801982  0.144383  0.079125  1
