# generated using pymatgen
data_Ho3Lu7Ag3Ru
_symmetry_space_group_name_H-M   'P 1'
_cell_length_a   9.35670700
_cell_length_b   9.35670765
_cell_length_c   9.49918000
_cell_angle_alpha   90.00000000
_cell_angle_beta   90.00000000
_cell_angle_gamma   119.99999416
_symmetry_Int_Tables_number   1
_chemical_formula_structural   Ho3Lu7Ag3Ru
_chemical_formula_sum   'Ho6 Lu14 Ag6 Ru2'
_cell_volume   720.21616505
_cell_formula_units_Z   2
loop_
 _symmetry_equiv_pos_site_id
 _symmetry_equiv_pos_as_xyz
  1  'x, y, z'
loop_
 _atom_site_type_symbol
 _atom_site_label
 _atom_site_symmetry_multiplicity
 _atom_site_fract_x
 _atom_site_fract_y
 _atom_site_fract_z
 _atom_site_occupancy
  Ho  Ho0  1  0.540577  0.459423  0.250000  1
  Ho  Ho1  1  0.540577  0.081154  0.250000  1
  Ho  Ho2  1  0.918846  0.459423  0.250000  1
  Ho  Ho3  1  0.459423  0.540577  0.750000  1
  Ho  Ho4  1  0.459423  0.918846  0.750000  1
  Ho  Ho5  1  0.081154  0.540577  0.750000  1
  Lu  Lu6  1  0.000000  0.000000  0.500000  1
  Lu  Lu7  1  0.000000  0.000000  0.000000  1
  Lu  Lu8  1  0.209315  0.790685  0.442019  1
  Lu  Lu9  1  0.209315  0.418630  0.442019  1
  Lu  Lu10  1  0.581370  0.790685  0.442019  1
  Lu  Lu11  1  0.790685  0.209315  0.557981  1
  Lu  Lu12  1  0.790685  0.581370  0.557981  1
  Lu  Lu13  1  0.418630  0.209315  0.557981  1
  Lu  Lu14  1  0.790685  0.209315  0.942019  1
  Lu  Lu15  1  0.790685  0.581370  0.942019  1
  Lu  Lu16  1  0.418630  0.209315  0.942019  1
  Lu  Lu17  1  0.209315  0.790685  0.057981  1
  Lu  Lu18  1  0.209315  0.418630  0.057981  1
  Lu  Lu19  1  0.581370  0.790685  0.057981  1
  Ag  Ag20  1  0.885561  0.114439  0.250000  1
  Ag  Ag21  1  0.885561  0.771123  0.250000  1
  Ag  Ag22  1  0.228877  0.114439  0.250000  1
  Ag  Ag23  1  0.114439  0.885561  0.750000  1
  Ag  Ag24  1  0.114439  0.228877  0.750000  1
  Ag  Ag25  1  0.771123  0.885561  0.750000  1
  Ru  Ru26  1  0.333333  0.666667  0.250000  1
  Ru  Ru27  1  0.666667  0.333333  0.750000  1
