# generated using pymatgen
data_Er3TmFeRu7
_symmetry_space_group_name_H-M   'P 1'
_cell_length_a   5.30751800
_cell_length_b   5.18698454
_cell_length_c   8.86388218
_cell_angle_alpha   90.01973881
_cell_angle_beta   90.00000000
_cell_angle_gamma   120.77171997
_symmetry_Int_Tables_number   1
_chemical_formula_structural   Er3TmFeRu7
_chemical_formula_sum   'Er3 Tm1 Fe1 Ru7'
_cell_volume   209.66742853
_cell_formula_units_Z   1
loop_
 _symmetry_equiv_pos_site_id
 _symmetry_equiv_pos_as_xyz
  1  'x, y, z'
loop_
 _atom_site_type_symbol
 _atom_site_label
 _atom_site_symmetry_multiplicity
 _atom_site_fract_x
 _atom_site_fract_y
 _atom_site_fract_z
 _atom_site_occupancy
  Er  Er0  1  0.668173  0.336345  0.566981  1
  Er  Er1  1  0.668181  0.336362  0.932760  1
  Er  Er2  1  0.331786  0.663573  0.065739  1
  Tm  Tm3  1  0.331686  0.663373  0.434321  1
  Fe  Fe4  1  0.164305  0.328609  0.749749  1
  Ru  Ru5  1  0.174107  0.827416  0.749685  1
  Ru  Ru6  1  0.343723  0.171057  0.250460  1
  Ru  Ru7  1  0.832082  0.664164  0.250371  1
  Ru  Ru8  1  0.653309  0.827416  0.749685  1
  Ru  Ru9  1  0.002616  0.005232  0.998229  1
  Ru  Ru10  1  0.827335  0.171057  0.250460  1
  Ru  Ru11  1  0.002698  0.005396  0.501559  1
