# generated using pymatgen
data_Yb9Pr2SmRu4
_symmetry_space_group_name_H-M   'P 1'
_cell_length_a   6.27087808
_cell_length_b   7.61991221
_cell_length_c   9.30357827
_cell_angle_alpha   89.81986375
_cell_angle_beta   89.85769340
_cell_angle_gamma   89.60872332
_symmetry_Int_Tables_number   1
_chemical_formula_structural   Yb9Pr2SmRu4
_chemical_formula_sum   'Yb9 Pr2 Sm1 Ru4'
_cell_volume   444.54399782
_cell_formula_units_Z   1
loop_
 _symmetry_equiv_pos_site_id
 _symmetry_equiv_pos_as_xyz
  1  'x, y, z'
loop_
 _atom_site_type_symbol
 _atom_site_label
 _atom_site_symmetry_multiplicity
 _atom_site_fract_x
 _atom_site_fract_y
 _atom_site_fract_z
 _atom_site_occupancy
  Yb  Yb0  1  0.154127  0.169062  0.435358  1
  Yb  Yb1  1  0.652762  0.333035  0.565239  1
  Yb  Yb2  1  0.845485  0.826836  0.934392  1
  Yb  Yb3  1  0.655938  0.330400  0.934655  1
  Yb  Yb4  1  0.849861  0.832106  0.567196  1
  Yb  Yb5  1  0.346974  0.670626  0.434503  1
  Yb  Yb6  1  0.869746  0.538998  0.249960  1
  Yb  Yb7  1  0.629939  0.035728  0.249767  1
  Yb  Yb8  1  0.127725  0.459799  0.750246  1
  Pr  Pr9  1  0.154385  0.167039  0.068099  1
  Pr  Pr10  1  0.377809  0.962001  0.750459  1
  Sm  Sm11  1  0.345425  0.665752  0.067685  1
  Ru  Ru12  1  0.054818  0.877007  0.245027  1
  Ru  Ru13  1  0.449578  0.381310  0.244670  1
  Ru  Ru14  1  0.954788  0.120105  0.750725  1
  Ru  Ru15  1  0.530640  0.630194  0.752020  1
