# generated using pymatgen
data_Nd4DyEr11(CdPt)4
_symmetry_space_group_name_H-M   'P 1'
_cell_length_a   9.70204469
_cell_length_b   9.69836716
_cell_length_c   9.69836662
_cell_angle_alpha   60.25904426
_cell_angle_beta   59.98745176
_cell_angle_gamma   59.98745252
_symmetry_Int_Tables_number   1
_chemical_formula_structural   Nd4DyEr11(CdPt)4
_chemical_formula_sum   'Nd4 Dy1 Er11 Cd4 Pt4'
_cell_volume   646.40662021
_cell_formula_units_Z   1
loop_
 _symmetry_equiv_pos_site_id
 _symmetry_equiv_pos_as_xyz
  1  'x, y, z'
loop_
 _atom_site_type_symbol
 _atom_site_label
 _atom_site_symmetry_multiplicity
 _atom_site_fract_x
 _atom_site_fract_y
 _atom_site_fract_z
 _atom_site_occupancy
  Nd  Nd0  1  0.565976  0.934649  0.564490  1
  Nd  Nd1  1  0.934884  0.564490  0.934649  1
  Nd  Nd2  1  0.565976  0.564490  0.934649  1
  Nd  Nd3  1  0.934884  0.934649  0.564490  1
  Dy  Dy4  1  0.556373  0.943627  0.943627  1
  Er  Er5  1  0.351599  0.350191  0.350191  1
  Er  Er6  1  0.350153  0.354816  0.944878  1
  Er  Er7  1  0.350153  0.944878  0.354816  1
  Er  Er8  1  0.948019  0.350191  0.350191  1
  Er  Er9  1  0.812257  0.187743  0.187743  1
  Er  Er10  1  0.187317  0.812683  0.812683  1
  Er  Er11  1  0.188733  0.811716  0.188765  1
  Er  Er12  1  0.810786  0.188765  0.811716  1
  Er  Er13  1  0.188733  0.188765  0.811716  1
  Er  Er14  1  0.810786  0.811716  0.188765  1
  Er  Er15  1  0.943673  0.556327  0.556327  1
  Cd  Cd16  1  0.584273  0.578677  0.578677  1
  Cd  Cd17  1  0.578875  0.582932  0.259319  1
  Cd  Cd18  1  0.578875  0.259319  0.582932  1
  Cd  Cd19  1  0.258373  0.578677  0.578677  1
  Pt  Pt20  1  0.146788  0.141513  0.141513  1
  Pt  Pt21  1  0.141163  0.145606  0.572067  1
  Pt  Pt22  1  0.141163  0.572067  0.145606  1
  Pt  Pt23  1  0.570185  0.141513  0.141513  1
