# generated using pymatgen
data_TiNbAsC
_symmetry_space_group_name_H-M   'P 1'
_cell_length_a   3.27916600
_cell_length_b   3.27916645
_cell_length_c   11.99412200
_cell_angle_alpha   90.00000000
_cell_angle_beta   90.00000000
_cell_angle_gamma   120.00001565
_symmetry_Int_Tables_number   1
_chemical_formula_structural   TiNbAsC
_chemical_formula_sum   'Ti2 Nb2 As2 C2'
_cell_volume   111.69298287
_cell_formula_units_Z   2
loop_
 _symmetry_equiv_pos_site_id
 _symmetry_equiv_pos_as_xyz
  1  'x, y, z'
loop_
 _atom_site_type_symbol
 _atom_site_label
 _atom_site_symmetry_multiplicity
 _atom_site_fract_x
 _atom_site_fract_y
 _atom_site_fract_z
 _atom_site_occupancy
  Ti  Ti0  1  0.333333  0.666667  0.405353  1
  Ti  Ti1  1  0.666667  0.333333  0.905353  1
  Nb  Nb2  1  0.666667  0.333333  0.596136  1
  Nb  Nb3  1  0.333333  0.666667  0.096136  1
  As  As4  1  0.666667  0.333333  0.252668  1
  As  As5  1  0.333333  0.666667  0.752668  1
  C  C6  1  0.000000  0.000000  0.495843  1
  C  C7  1  0.000000  0.000000  0.995843  1
