# generated using pymatgen
data_LiNd16Cd3Ir4
_symmetry_space_group_name_H-M   'P 1'
_cell_length_a   9.98237733
_cell_length_b   9.98237753
_cell_length_c   9.98237793
_cell_angle_alpha   59.91699852
_cell_angle_beta   59.91699581
_cell_angle_gamma   59.91700410
_symmetry_Int_Tables_number   1
_chemical_formula_structural   LiNd16Cd3Ir4
_chemical_formula_sum   'Li1 Nd16 Cd3 Ir4'
_cell_volume   702.05076726
_cell_formula_units_Z   1
loop_
 _symmetry_equiv_pos_site_id
 _symmetry_equiv_pos_as_xyz
  1  'x, y, z'
loop_
 _atom_site_type_symbol
 _atom_site_label
 _atom_site_symmetry_multiplicity
 _atom_site_fract_x
 _atom_site_fract_y
 _atom_site_fract_z
 _atom_site_occupancy
  Li  Li0  1  0.570996  0.570996  0.570996  1
  Nd  Nd1  1  0.348407  0.348407  0.348407  1
  Nd  Nd2  1  0.347735  0.347735  0.957019  1
  Nd  Nd3  1  0.347735  0.957019  0.347735  1
  Nd  Nd4  1  0.957019  0.347735  0.347735  1
  Nd  Nd5  1  0.810156  0.191175  0.191175  1
  Nd  Nd6  1  0.187570  0.811406  0.811406  1
  Nd  Nd7  1  0.191175  0.810156  0.191175  1
  Nd  Nd8  1  0.811406  0.187570  0.811406  1
  Nd  Nd9  1  0.191175  0.191175  0.810156  1
  Nd  Nd10  1  0.811406  0.811406  0.187570  1
  Nd  Nd11  1  0.939139  0.561583  0.561583  1
  Nd  Nd12  1  0.561218  0.938574  0.938574  1
  Nd  Nd13  1  0.561583  0.939139  0.561583  1
  Nd  Nd14  1  0.938574  0.561218  0.938574  1
  Nd  Nd15  1  0.561583  0.561583  0.939139  1
  Nd  Nd16  1  0.938574  0.938574  0.561218  1
  Cd  Cd17  1  0.581250  0.581250  0.258513  1
  Cd  Cd18  1  0.581250  0.258513  0.581250  1
  Cd  Cd19  1  0.258513  0.581250  0.581250  1
  Ir  Ir20  1  0.142107  0.142107  0.142107  1
  Ir  Ir21  1  0.142605  0.142605  0.576220  1
  Ir  Ir22  1  0.142605  0.576220  0.142605  1
  Ir  Ir23  1  0.576220  0.142605  0.142605  1
