# generated using pymatgen
data_ThCdTeO6
_symmetry_space_group_name_H-M   'P 1'
_cell_length_a   5.35186900
_cell_length_b   5.35186900
_cell_length_c   9.31890700
_cell_angle_alpha   90.00000000
_cell_angle_beta   90.00000000
_cell_angle_gamma   90.00000000
_symmetry_Int_Tables_number   1
_chemical_formula_structural   ThCdTeO6
_chemical_formula_sum   'Th2 Cd2 Te2 O12'
_cell_volume   266.91681046
_cell_formula_units_Z   2
loop_
 _symmetry_equiv_pos_site_id
 _symmetry_equiv_pos_as_xyz
  1  'x, y, z'
loop_
 _atom_site_type_symbol
 _atom_site_label
 _atom_site_symmetry_multiplicity
 _atom_site_fract_x
 _atom_site_fract_y
 _atom_site_fract_z
 _atom_site_occupancy
  Th  Th0  1  0.500000  0.000000  0.127804  1
  Th  Th1  1  0.000000  0.500000  0.872196  1
  Cd  Cd2  1  0.000000  0.000000  0.500000  1
  Cd  Cd3  1  0.500000  0.500000  0.500000  1
  Te  Te4  1  0.500000  0.000000  0.751541  1
  Te  Te5  1  0.000000  0.500000  0.248459  1
  O  O6  1  0.824553  0.324553  0.087830  1
  O  O7  1  0.175447  0.675447  0.087830  1
  O  O8  1  0.197230  0.697230  0.380991  1
  O  O9  1  0.802770  0.302770  0.380991  1
  O  O10  1  0.754700  0.254700  0.742833  1
  O  O11  1  0.245300  0.745300  0.742833  1
  O  O12  1  0.697230  0.802770  0.619009  1
  O  O13  1  0.254700  0.245300  0.257167  1
  O  O14  1  0.302770  0.197230  0.619009  1
  O  O15  1  0.675447  0.824553  0.912170  1
  O  O16  1  0.324553  0.175447  0.912170  1
  O  O17  1  0.745300  0.754700  0.257167  1
