# generated using pymatgen
data_YbCoRh2F12
_symmetry_space_group_name_H-M   'P 1'
_cell_length_a   5.15445535
_cell_length_b   5.16558975
_cell_length_c   10.04684000
_cell_angle_alpha   75.18446564
_cell_angle_beta   75.31321528
_cell_angle_gamma   60.00559503
_symmetry_Int_Tables_number   1
_chemical_formula_structural   YbCoRh2F12
_chemical_formula_sum   'Yb1 Co1 Rh2 F12'
_cell_volume   221.43838523
_cell_formula_units_Z   1
loop_
 _symmetry_equiv_pos_site_id
 _symmetry_equiv_pos_as_xyz
  1  'x, y, z'
loop_
 _atom_site_type_symbol
 _atom_site_label
 _atom_site_symmetry_multiplicity
 _atom_site_fract_x
 _atom_site_fract_y
 _atom_site_fract_z
 _atom_site_occupancy
  Yb  Yb0  1  0.500000  0.500000  0.500000  1
  Co  Co1  1  0.000000  0.000000  0.000000  1
  Rh  Rh2  1  0.743455  0.746504  0.764159  1
  Rh  Rh3  1  0.256545  0.253496  0.235841  1
  F  F4  1  0.488637  0.772556  0.642719  1
  F  F5  1  0.511363  0.227444  0.357281  1
  F  F6  1  0.767255  0.097072  0.643709  1
  F  F7  1  0.232745  0.902928  0.356291  1
  F  F8  1  0.728255  0.384240  0.881219  1
  F  F9  1  0.271745  0.615760  0.118781  1
  F  F10  1  0.004648  0.729461  0.881661  1
  F  F11  1  0.995352  0.270539  0.118339  1
  F  F12  1  0.617777  0.993698  0.118554  1
  F  F13  1  0.382223  0.006302  0.881446  1
  F  F14  1  0.907615  0.504159  0.357920  1
  F  F15  1  0.092385  0.495841  0.642080  1
