# generated using pymatgen
data_Er7Tm9Cd4NiRu3
_symmetry_space_group_name_H-M   'P 1'
_cell_length_a   9.47344981
_cell_length_b   9.53260639
_cell_length_c   9.56031700
_cell_angle_alpha   59.90378940
_cell_angle_beta   59.69620411
_cell_angle_gamma   59.60105496
_symmetry_Int_Tables_number   1
_chemical_formula_structural   Er7Tm9Cd4NiRu3
_chemical_formula_sum   'Er7 Tm9 Cd4 Ni1 Ru3'
_cell_volume   606.78673607
_cell_formula_units_Z   1
loop_
 _symmetry_equiv_pos_site_id
 _symmetry_equiv_pos_as_xyz
  1  'x, y, z'
loop_
 _atom_site_type_symbol
 _atom_site_label
 _atom_site_symmetry_multiplicity
 _atom_site_fract_x
 _atom_site_fract_y
 _atom_site_fract_z
 _atom_site_occupancy
  Er  Er0  1  0.809671  0.810620  0.189854  1
  Er  Er1  1  0.940220  0.558626  0.560769  1
  Er  Er2  1  0.558197  0.937951  0.937172  1
  Er  Er3  1  0.558197  0.937951  0.566680  1
  Er  Er4  1  0.940220  0.558626  0.940385  1
  Er  Er5  1  0.557092  0.566525  0.938192  1
  Er  Er6  1  0.939793  0.939310  0.560448  1
  Tm  Tm7  1  0.351439  0.345823  0.344580  1
  Tm  Tm8  1  0.351439  0.345823  0.958158  1
  Tm  Tm9  1  0.350195  0.960812  0.344497  1
  Tm  Tm10  1  0.960362  0.346167  0.346736  1
  Tm  Tm11  1  0.810192  0.188214  0.188985  1
  Tm  Tm12  1  0.185963  0.811494  0.812179  1
  Tm  Tm13  1  0.185963  0.811494  0.190365  1
  Tm  Tm14  1  0.810192  0.188214  0.812609  1
  Tm  Tm15  1  0.187698  0.188252  0.812026  1
  Cd  Cd16  1  0.579138  0.581558  0.580722  1
  Cd  Cd17  1  0.579138  0.581558  0.258581  1
  Cd  Cd18  1  0.580162  0.258551  0.580643  1
  Cd  Cd19  1  0.257386  0.581737  0.580437  1
  Ni  Ni20  1  0.576620  0.140905  0.141238  1
  Ru  Ru21  1  0.143047  0.141321  0.137613  1
  Ru  Ru22  1  0.143047  0.141321  0.578020  1
  Ru  Ru23  1  0.144628  0.577146  0.139113  1
