# generated using pymatgen
data_Hf5Fe6Si12W
_symmetry_space_group_name_H-M   'P 1'
_cell_length_a   9.59357069
_cell_length_b   9.59357072
_cell_length_c   9.59357126
_cell_angle_alpha   132.54665324
_cell_angle_beta   57.72564056
_cell_angle_gamma   149.06863188
_symmetry_Int_Tables_number   1
_chemical_formula_structural   Hf5Fe6Si12W
_chemical_formula_sum   'Hf5 Fe6 Si12 W1'
_cell_volume   331.88268006
_cell_formula_units_Z   1
loop_
 _symmetry_equiv_pos_site_id
 _symmetry_equiv_pos_as_xyz
  1  'x, y, z'
loop_
 _atom_site_type_symbol
 _atom_site_label
 _atom_site_symmetry_multiplicity
 _atom_site_fract_x
 _atom_site_fract_y
 _atom_site_fract_z
 _atom_site_occupancy
  Hf  Hf0  1  0.858681  0.000000  0.858681  1
  Hf  Hf1  1  0.403348  0.261709  0.665058  1
  Hf  Hf2  1  0.597422  0.737778  0.335199  1
  Hf  Hf3  1  0.597421  0.262223  0.859644  1
  Hf  Hf4  1  0.403349  0.738292  0.141639  1
  Fe  Fe5  1  0.500677  0.498706  0.498843  1
  Fe  Fe6  1  0.000137  0.998166  0.498843  1
  Fe  Fe7  1  0.500677  0.001834  0.001972  1
  Fe  Fe8  1  0.000138  0.501294  0.001970  1
  Fe  Fe9  1  0.001521  0.254218  0.255740  1
  Fe  Fe10  1  0.001521  0.745783  0.747304  1
  Si  Si11  1  0.256743  0.757730  0.499013  1
  Si  Si12  1  0.741284  0.242271  0.499013  1
  Si  Si13  1  0.283261  0.500000  0.783261  1
  Si  Si14  1  0.716017  0.500001  0.216016  1
  Si  Si15  1  0.252047  0.249856  0.002191  1
  Si  Si16  1  0.752335  0.750144  0.002191  1
  Si  Si17  1  0.861866  0.349108  0.210973  1
  Si  Si18  1  0.140131  0.657304  0.797435  1
  Si  Si19  1  0.140131  0.342697  0.482827  1
  Si  Si20  1  0.861866  0.650893  0.512758  1
  Si  Si21  1  0.701472  0.000000  0.701472  1
  Si  Si22  1  0.289998  0.000000  0.289998  1
  W  W23  1  0.137963  0.000000  0.137963  1
