# generated using pymatgen
data_Tm4LuIr3
_symmetry_space_group_name_H-M   'P 1'
_cell_length_a   10.72965400
_cell_length_b   10.72965400
_cell_length_c   6.27931800
_cell_angle_alpha   90.00000000
_cell_angle_beta   90.00000000
_cell_angle_gamma   90.00000000
_symmetry_Int_Tables_number   1
_chemical_formula_structural   Tm4LuIr3
_chemical_formula_sum   'Tm16 Lu4 Ir12'
_cell_volume   722.90946717
_cell_formula_units_Z   4
loop_
 _symmetry_equiv_pos_site_id
 _symmetry_equiv_pos_as_xyz
  1  'x, y, z'
loop_
 _atom_site_type_symbol
 _atom_site_label
 _atom_site_symmetry_multiplicity
 _atom_site_fract_x
 _atom_site_fract_y
 _atom_site_fract_z
 _atom_site_occupancy
  Tm  Tm0  1  0.291001  0.087562  0.377171  1
  Tm  Tm1  1  0.291001  0.912438  0.877171  1
  Tm  Tm2  1  0.708999  0.087562  0.877171  1
  Tm  Tm3  1  0.708999  0.912438  0.377171  1
  Tm  Tm4  1  0.587562  0.791001  0.877171  1
  Tm  Tm5  1  0.587562  0.208999  0.377171  1
  Tm  Tm6  1  0.412438  0.791001  0.377171  1
  Tm  Tm7  1  0.412438  0.208999  0.877171  1
  Tm  Tm8  1  0.208999  0.412438  0.622829  1
  Tm  Tm9  1  0.208999  0.587562  0.122829  1
  Tm  Tm10  1  0.791001  0.412438  0.122829  1
  Tm  Tm11  1  0.791001  0.587562  0.622829  1
  Tm  Tm12  1  0.912438  0.708999  0.122829  1
  Tm  Tm13  1  0.912438  0.291001  0.622829  1
  Tm  Tm14  1  0.087562  0.708999  0.622829  1
  Tm  Tm15  1  0.087562  0.291001  0.122829  1
  Lu  Lu16  1  0.000000  0.000000  0.500000  1
  Lu  Lu17  1  0.000000  0.000000  0.000000  1
  Lu  Lu18  1  0.500000  0.500000  0.000000  1
  Lu  Lu19  1  0.500000  0.500000  0.500000  1
  Ir  Ir20  1  0.847128  0.152872  0.250000  1
  Ir  Ir21  1  0.847128  0.847128  0.750000  1
  Ir  Ir22  1  0.152872  0.152872  0.750000  1
  Ir  Ir23  1  0.152872  0.847128  0.250000  1
  Ir  Ir24  1  0.652872  0.347128  0.750000  1
  Ir  Ir25  1  0.652872  0.652872  0.250000  1
  Ir  Ir26  1  0.347128  0.347128  0.250000  1
  Ir  Ir27  1  0.347128  0.652872  0.750000  1
  Ir  Ir28  1  0.500000  0.000000  0.121971  1
  Ir  Ir29  1  0.500000  0.000000  0.621971  1
  Ir  Ir30  1  0.000000  0.500000  0.878029  1
  Ir  Ir31  1  0.000000  0.500000  0.378029  1
