# generated using pymatgen
data_Hf11Zr8Si16Au
_symmetry_space_group_name_H-M   'P 1'
_cell_length_a   7.10718449
_cell_length_b   7.10718395
_cell_length_c   12.85500704
_cell_angle_alpha   89.63546867
_cell_angle_beta   90.36453124
_cell_angle_gamma   90.03891723
_symmetry_Int_Tables_number   1
_chemical_formula_structural   Hf11Zr8Si16Au
_chemical_formula_sum   'Hf11 Zr8 Si16 Au1'
_cell_volume   649.30656745
_cell_formula_units_Z   1
loop_
 _symmetry_equiv_pos_site_id
 _symmetry_equiv_pos_as_xyz
  1  'x, y, z'
loop_
 _atom_site_type_symbol
 _atom_site_label
 _atom_site_symmetry_multiplicity
 _atom_site_fract_x
 _atom_site_fract_y
 _atom_site_fract_z
 _atom_site_occupancy
  Hf  Hf0  1  0.825567  0.825567  0.500000  1
  Hf  Hf1  1  0.322855  0.678292  0.248912  1
  Hf  Hf2  1  0.678292  0.322855  0.751088  1
  Hf  Hf3  1  0.143984  0.001910  0.375872  1
  Hf  Hf4  1  0.858567  0.001276  0.880680  1
  Hf  Hf5  1  0.502155  0.646280  0.628023  1
  Hf  Hf6  1  0.357776  0.492822  0.874870  1
  Hf  Hf7  1  0.492822  0.357776  0.125130  1
  Hf  Hf8  1  0.646280  0.502155  0.371977  1
  Hf  Hf9  1  0.001910  0.143984  0.624128  1
  Hf  Hf10  1  0.001276  0.858567  0.119320  1
  Zr  Zr11  1  0.996633  0.352016  0.212948  1
  Zr  Zr12  1  0.001705  0.652868  0.716830  1
  Zr  Zr13  1  0.149590  0.498092  0.464527  1
  Zr  Zr14  1  0.497312  0.847590  0.032092  1
  Zr  Zr15  1  0.847590  0.497312  0.967908  1
  Zr  Zr16  1  0.498092  0.149590  0.535473  1
  Zr  Zr17  1  0.352016  0.996633  0.787052  1
  Zr  Zr18  1  0.652868  0.001705  0.283170  1
  Si  Si19  1  0.353821  0.295850  0.322290  1
  Si  Si20  1  0.647510  0.703568  0.824392  1
  Si  Si21  1  0.205678  0.853399  0.572949  1
  Si  Si22  1  0.137921  0.775776  0.921403  1
  Si  Si23  1  0.775776  0.137921  0.078597  1
  Si  Si24  1  0.853399  0.205678  0.427051  1
  Si  Si25  1  0.295850  0.353821  0.677710  1
  Si  Si26  1  0.703568  0.647510  0.175608  1
  Si  Si27  1  0.299258  0.053256  0.187735  1
  Si  Si28  1  0.702672  0.949314  0.688622  1
  Si  Si29  1  0.449695  0.800509  0.436497  1
  Si  Si30  1  0.205459  0.562606  0.062190  1
  Si  Si31  1  0.562606  0.205459  0.937810  1
  Si  Si32  1  0.800509  0.449695  0.563503  1
  Si  Si33  1  0.053256  0.299258  0.812265  1
  Si  Si34  1  0.949314  0.702672  0.311378  1
  Au  Au35  1  0.176416  0.176416  0.000000  1
