# generated using pymatgen
data_Y4Ho4Tc3B24Ru
_symmetry_space_group_name_H-M   'P 1'
_cell_length_a   3.67633700
_cell_length_b   9.15024809
_cell_length_c   11.53999101
_cell_angle_alpha   89.92133333
_cell_angle_beta   90.00000000
_cell_angle_gamma   90.00000000
_symmetry_Int_Tables_number   1
_chemical_formula_structural   Y4Ho4Tc3B24Ru
_chemical_formula_sum   'Y4 Ho4 Tc3 B24 Ru1'
_cell_volume   388.19795718
_cell_formula_units_Z   1
loop_
 _symmetry_equiv_pos_site_id
 _symmetry_equiv_pos_as_xyz
  1  'x, y, z'
loop_
 _atom_site_type_symbol
 _atom_site_label
 _atom_site_symmetry_multiplicity
 _atom_site_fract_x
 _atom_site_fract_y
 _atom_site_fract_z
 _atom_site_occupancy
  Y  Y0  1  0.000000  0.323412  0.414009  1
  Y  Y1  1  0.000000  0.675361  0.584135  1
  Y  Y2  1  0.000000  0.822892  0.087293  1
  Y  Y3  1  0.000000  0.178182  0.914443  1
  Ho  Ho4  1  0.000000  0.942483  0.370194  1
  Ho  Ho5  1  0.000000  0.057782  0.630775  1
  Ho  Ho6  1  0.000000  0.442950  0.130130  1
  Ho  Ho7  1  0.000000  0.557933  0.869062  1
  Tc  Tc8  1  0.000000  0.638765  0.320177  1
  Tc  Tc9  1  0.000000  0.361392  0.680265  1
  Tc  Tc10  1  0.000000  0.138273  0.178555  1
  B  B11  1  0.500000  0.553140  0.432567  1
  B  B12  1  0.500000  0.446570  0.566998  1
  B  B13  1  0.500000  0.053166  0.067098  1
  B  B14  1  0.500000  0.945975  0.932541  1
  B  B15  1  0.500000  0.748595  0.418394  1
  B  B16  1  0.500000  0.250626  0.581718  1
  B  B17  1  0.500000  0.249270  0.081517  1
  B  B18  1  0.500000  0.751376  0.918119  1
  B  B19  1  0.500000  0.791716  0.265804  1
  B  B20  1  0.500000  0.208479  0.734931  1
  B  B21  1  0.500000  0.291708  0.234388  1
  B  B22  1  0.500000  0.709298  0.765468  1
  B  B23  1  0.500000  0.630858  0.185679  1
  B  B24  1  0.500000  0.369263  0.814849  1
  B  B25  1  0.500000  0.130280  0.314000  1
  B  B26  1  0.500000  0.869037  0.685856  1
  B  B27  1  0.500000  0.982009  0.212003  1
  B  B28  1  0.500000  0.016467  0.788194  1
  B  B29  1  0.500000  0.482388  0.287752  1
  B  B30  1  0.500000  0.517521  0.711819  1
  B  B31  1  0.500000  0.601856  0.027974  1
  B  B32  1  0.500000  0.399831  0.971683  1
  B  B33  1  0.500000  0.101187  0.472179  1
  B  B34  1  0.500000  0.898511  0.528684  1
  Ru  Ru35  1  0.000000  0.861446  0.820747  1
