# generated using pymatgen
data_Li4Yb4AsP3
_symmetry_space_group_name_H-M   'P 1'
_cell_length_a   4.21643200
_cell_length_b   7.07572379
_cell_length_c   7.67879692
_cell_angle_alpha   89.91865861
_cell_angle_beta   90.00000000
_cell_angle_gamma   90.00000000
_symmetry_Int_Tables_number   1
_chemical_formula_structural   Li4Yb4AsP3
_chemical_formula_sum   'Li4 Yb4 As1 P3'
_cell_volume   229.09136334
_cell_formula_units_Z   1
loop_
 _symmetry_equiv_pos_site_id
 _symmetry_equiv_pos_as_xyz
  1  'x, y, z'
loop_
 _atom_site_type_symbol
 _atom_site_label
 _atom_site_symmetry_multiplicity
 _atom_site_fract_x
 _atom_site_fract_y
 _atom_site_fract_z
 _atom_site_occupancy
  Li  Li0  1  0.250000  0.145350  0.926532  1
  Li  Li1  1  0.250000  0.647184  0.569941  1
  Li  Li2  1  0.750000  0.849460  0.069078  1
  Li  Li3  1  0.750000  0.353502  0.433072  1
  Yb  Yb4  1  0.250000  0.010982  0.306603  1
  Yb  Yb5  1  0.250000  0.518184  0.198472  1
  Yb  Yb6  1  0.750000  0.986688  0.696975  1
  Yb  Yb7  1  0.750000  0.489231  0.799233  1
  As  As8  1  0.750000  0.229808  0.101516  1
  P  P9  1  0.250000  0.269989  0.601487  1
  P  P10  1  0.250000  0.769977  0.897697  1
  P  P11  1  0.750000  0.729645  0.399393  1
