# generated using pymatgen
data_BaCu4Ni5Ge2P3
_symmetry_space_group_name_H-M   'P 1'
_cell_length_a   6.77104322
_cell_length_b   6.76997753
_cell_length_c   11.03885775
_cell_angle_alpha   89.99446765
_cell_angle_beta   89.96631867
_cell_angle_gamma   120.23780948
_symmetry_Int_Tables_number   1
_chemical_formula_structural   BaCu4Ni5Ge2P3
_chemical_formula_sum   'Ba2 Cu8 Ni10 Ge4 P6'
_cell_volume   437.17141270
_cell_formula_units_Z   2
loop_
 _symmetry_equiv_pos_site_id
 _symmetry_equiv_pos_as_xyz
  1  'x, y, z'
loop_
 _atom_site_type_symbol
 _atom_site_label
 _atom_site_symmetry_multiplicity
 _atom_site_fract_x
 _atom_site_fract_y
 _atom_site_fract_z
 _atom_site_occupancy
  Ba  Ba0  1  0.000248  0.000454  0.499582  1
  Ba  Ba1  1  0.000402  0.000752  0.000391  1
  Cu  Cu2  1  0.462919  0.926349  0.891147  1
  Cu  Cu3  1  0.925703  0.459384  0.109126  1
  Cu  Cu4  1  0.539097  0.073403  0.109717  1
  Cu  Cu5  1  0.074706  0.537618  0.608886  1
  Cu  Cu6  1  0.461657  0.924472  0.608843  1
  Cu  Cu7  1  0.539427  0.465403  0.392361  1
  Cu  Cu8  1  0.925066  0.465743  0.390894  1
  Cu  Cu9  1  0.073937  0.536847  0.891080  1
  Ni  Ni10  1  0.198376  0.396338  0.251121  1
  Ni  Ni11  1  0.803064  0.195312  0.750335  1
  Ni  Ni12  1  0.401591  0.198215  0.750140  1
  Ni  Ni13  1  0.597951  0.797466  0.250056  1
  Ni  Ni14  1  0.197021  0.799580  0.248725  1
  Ni  Ni15  1  0.801311  0.597619  0.749448  1
  Ni  Ni16  1  0.458505  0.542730  0.882218  1
  Ni  Ni17  1  0.538332  0.082006  0.383137  1
  Ni  Ni18  1  0.539386  0.456053  0.115467  1
  Ni  Ni19  1  0.459543  0.541547  0.617151  1
  Ge  Ge20  1  0.339476  0.674836  0.432148  1
  Ge  Ge21  1  0.659824  0.343388  0.933074  1
  Ge  Ge22  1  0.660119  0.332147  0.567709  1
  Ge  Ge23  1  0.340299  0.655484  0.067017  1
  P  P24  1  0.174117  0.336921  0.749484  1
  P  P25  1  0.830999  0.162977  0.254817  1
  P  P26  1  0.163819  0.835590  0.750582  1
  P  P27  1  0.830548  0.666716  0.245336  1
  P  P28  1  0.338131  0.168767  0.250543  1
  P  P29  1  0.664425  0.825882  0.749467  1
