# generated using pymatgen
data_Er5Lu(MoO6)2
_symmetry_space_group_name_H-M   'P 1'
_cell_length_a   6.58578507
_cell_length_b   6.58825271
_cell_length_c   6.58636000
_cell_angle_alpha   92.10972061
_cell_angle_beta   92.08212204
_cell_angle_gamma   92.07580508
_symmetry_Int_Tables_number   1
_chemical_formula_structural   Er5Lu(MoO6)2
_chemical_formula_sum   'Er5 Lu1 Mo2 O12'
_cell_volume   285.19019831
_cell_formula_units_Z   1
loop_
 _symmetry_equiv_pos_site_id
 _symmetry_equiv_pos_as_xyz
  1  'x, y, z'
loop_
 _atom_site_type_symbol
 _atom_site_label
 _atom_site_symmetry_multiplicity
 _atom_site_fract_x
 _atom_site_fract_y
 _atom_site_fract_z
 _atom_site_occupancy
  Er  Er0  1  0.746962  0.931645  0.439147  1
  Er  Er1  1  0.930434  0.439556  0.747363  1
  Er  Er2  1  0.440438  0.747003  0.931675  1
  Er  Er3  1  0.253534  0.069377  0.560440  1
  Er  Er4  1  0.068952  0.559331  0.252973  1
  Lu  Lu5  1  0.560069  0.253010  0.069053  1
  Mo  Mo6  1  0.500274  0.499200  0.499939  1
  Mo  Mo7  1  0.000183  0.000909  0.000384  1
  O  O8  1  0.596913  0.464401  0.814089  1
  O  O9  1  0.467037  0.812443  0.597843  1
  O  O10  1  0.812689  0.597752  0.467179  1
  O  O11  1  0.403866  0.529764  0.186326  1
  O  O12  1  0.532821  0.187737  0.398414  1
  O  O13  1  0.187412  0.402108  0.532708  1
  O  O14  1  0.070020  0.908420  0.311800  1
  O  O15  1  0.905060  0.311660  0.070836  1
  O  O16  1  0.687625  0.932967  0.090783  1
  O  O17  1  0.091660  0.688602  0.930108  1
  O  O18  1  0.930206  0.091510  0.688289  1
  O  O19  1  0.313842  0.072608  0.910651  1
