# generated using pymatgen
data_Ca2Mn2C3
_symmetry_space_group_name_H-M   'P 1'
_cell_length_a   5.34259030
_cell_length_b   5.34258985
_cell_length_c   5.53774467
_cell_angle_alpha   75.32300548
_cell_angle_beta   75.32300806
_cell_angle_gamma   39.30927206
_symmetry_Int_Tables_number   1
_chemical_formula_structural   Ca2Mn2C3
_chemical_formula_sum   'Ca2 Mn2 C3'
_cell_volume   96.44312673
_cell_formula_units_Z   1
loop_
 _symmetry_equiv_pos_site_id
 _symmetry_equiv_pos_as_xyz
  1  'x, y, z'
loop_
 _atom_site_type_symbol
 _atom_site_label
 _atom_site_symmetry_multiplicity
 _atom_site_fract_x
 _atom_site_fract_y
 _atom_site_fract_z
 _atom_site_occupancy
  Ca  Ca0  1  0.597308  0.597308  0.186444  1
  Ca  Ca1  1  0.402692  0.402692  0.813556  1
  Mn  Mn2  1  0.840465  0.840465  0.411277  1
  Mn  Mn3  1  0.159535  0.159535  0.588723  1
  C  C4  1  0.000000  0.000000  0.500000  1
  C  C5  1  0.316578  0.316578  0.306044  1
  C  C6  1  0.683422  0.683422  0.693956  1
