# generated using pymatgen
data_Hf18Re6RuW2Se
_symmetry_space_group_name_H-M   'P 1'
_cell_length_a   8.66572400
_cell_length_b   8.66572439
_cell_length_c   8.57873100
_cell_angle_alpha   90.00000000
_cell_angle_beta   90.00000000
_cell_angle_gamma   120.00000614
_symmetry_Int_Tables_number   1
_chemical_formula_structural   Hf18Re6RuW2Se
_chemical_formula_sum   'Hf18 Re6 Ru1 W2 Se1'
_cell_volume   557.90901629
_cell_formula_units_Z   1
loop_
 _symmetry_equiv_pos_site_id
 _symmetry_equiv_pos_as_xyz
  1  'x, y, z'
loop_
 _atom_site_type_symbol
 _atom_site_label
 _atom_site_symmetry_multiplicity
 _atom_site_fract_x
 _atom_site_fract_y
 _atom_site_fract_z
 _atom_site_occupancy
  Hf  Hf0  1  0.197656  0.802344  0.445422  1
  Hf  Hf1  1  0.197656  0.395312  0.445422  1
  Hf  Hf2  1  0.604688  0.802344  0.445422  1
  Hf  Hf3  1  0.807743  0.192257  0.547399  1
  Hf  Hf4  1  0.807743  0.615485  0.547399  1
  Hf  Hf5  1  0.384515  0.192257  0.547399  1
  Hf  Hf6  1  0.807743  0.192257  0.952601  1
  Hf  Hf7  1  0.807743  0.615485  0.952601  1
  Hf  Hf8  1  0.384515  0.192257  0.952601  1
  Hf  Hf9  1  0.197656  0.802344  0.054578  1
  Hf  Hf10  1  0.197656  0.395312  0.054578  1
  Hf  Hf11  1  0.604688  0.802344  0.054578  1
  Hf  Hf12  1  0.542083  0.457917  0.250000  1
  Hf  Hf13  1  0.542083  0.084167  0.250000  1
  Hf  Hf14  1  0.915833  0.457917  0.250000  1
  Hf  Hf15  1  0.455006  0.544994  0.750000  1
  Hf  Hf16  1  0.455006  0.910011  0.750000  1
  Hf  Hf17  1  0.089989  0.544994  0.750000  1
  Re  Re18  1  0.888933  0.111067  0.250000  1
  Re  Re19  1  0.888933  0.777866  0.250000  1
  Re  Re20  1  0.222134  0.111067  0.250000  1
  Re  Re21  1  0.110867  0.889133  0.750000  1
  Re  Re22  1  0.110867  0.221735  0.750000  1
  Re  Re23  1  0.778265  0.889133  0.750000  1
  Ru  Ru24  1  0.333333  0.666667  0.250000  1
  W  W25  1  0.000000  0.000000  0.499134  1
  W  W26  1  0.000000  0.000000  0.000866  1
  Se  Se27  1  0.666667  0.333333  0.750000  1
