# generated using pymatgen
data_PaFe4MoP3
_symmetry_space_group_name_H-M   'P 1'
_cell_length_a   3.71470300
_cell_length_b   10.52424300
_cell_length_c   11.90133500
_cell_angle_alpha   90.00000000
_cell_angle_beta   90.00000000
_cell_angle_gamma   90.00000000
_symmetry_Int_Tables_number   1
_chemical_formula_structural   PaFe4MoP3
_chemical_formula_sum   'Pa4 Fe16 Mo4 P12'
_cell_volume   465.27599191
_cell_formula_units_Z   4
loop_
 _symmetry_equiv_pos_site_id
 _symmetry_equiv_pos_as_xyz
  1  'x, y, z'
loop_
 _atom_site_type_symbol
 _atom_site_label
 _atom_site_symmetry_multiplicity
 _atom_site_fract_x
 _atom_site_fract_y
 _atom_site_fract_z
 _atom_site_occupancy
  Pa  Pa0  1  0.250000  0.578483  0.702396  1
  Pa  Pa1  1  0.250000  0.921517  0.202396  1
  Pa  Pa2  1  0.750000  0.421517  0.297604  1
  Pa  Pa3  1  0.750000  0.078483  0.797604  1
  Fe  Fe4  1  0.250000  0.405042  0.480982  1
  Fe  Fe5  1  0.250000  0.094958  0.980982  1
  Fe  Fe6  1  0.750000  0.594958  0.519018  1
  Fe  Fe7  1  0.750000  0.905042  0.019018  1
  Fe  Fe8  1  0.250000  0.220908  0.171981  1
  Fe  Fe9  1  0.250000  0.279092  0.671981  1
  Fe  Fe10  1  0.750000  0.779092  0.828019  1
  Fe  Fe11  1  0.750000  0.720908  0.328019  1
  Fe  Fe12  1  0.250000  0.888764  0.704423  1
  Fe  Fe13  1  0.250000  0.611236  0.204423  1
  Fe  Fe14  1  0.750000  0.111236  0.295577  1
  Fe  Fe15  1  0.750000  0.388764  0.795577  1
  Fe  Fe16  1  0.250000  0.466376  0.932153  1
  Fe  Fe17  1  0.250000  0.033624  0.432153  1
  Fe  Fe18  1  0.750000  0.533624  0.067847  1
  Fe  Fe19  1  0.750000  0.966376  0.567847  1
  Mo  Mo20  1  0.250000  0.701314  0.994209  1
  Mo  Mo21  1  0.250000  0.798686  0.494209  1
  Mo  Mo22  1  0.750000  0.298686  0.005791  1
  Mo  Mo23  1  0.750000  0.201314  0.505791  1
  P  P24  1  0.250000  0.421395  0.112852  1
  P  P25  1  0.250000  0.078605  0.612852  1
  P  P26  1  0.750000  0.578605  0.887148  1
  P  P27  1  0.750000  0.921395  0.387148  1
  P  P28  1  0.250000  0.275069  0.858243  1
  P  P29  1  0.250000  0.224931  0.358243  1
  P  P30  1  0.750000  0.724931  0.141757  1
  P  P31  1  0.750000  0.775069  0.641757  1
  P  P32  1  0.250000  0.600333  0.395021  1
  P  P33  1  0.250000  0.899667  0.895021  1
  P  P34  1  0.750000  0.399667  0.604979  1
  P  P35  1  0.750000  0.100333  0.104979  1
