# generated using pymatgen
data_Ta3Ti5Co7Si14Ru
_symmetry_space_group_name_H-M   'P 1'
_cell_length_a   9.20661965
_cell_length_b   9.20211486
_cell_length_c   9.19730549
_cell_angle_alpha   94.24487872
_cell_angle_beta   94.20301298
_cell_angle_gamma   148.49200358
_symmetry_Int_Tables_number   1
_chemical_formula_structural   Ta3Ti5Co7Si14Ru
_chemical_formula_sum   'Ta3 Ti5 Co7 Si14 Ru1'
_cell_volume   391.95226995
_cell_formula_units_Z   1
loop_
 _symmetry_equiv_pos_site_id
 _symmetry_equiv_pos_as_xyz
  1  'x, y, z'
loop_
 _atom_site_type_symbol
 _atom_site_label
 _atom_site_symmetry_multiplicity
 _atom_site_fract_x
 _atom_site_fract_y
 _atom_site_fract_z
 _atom_site_occupancy
  Ta  Ta0  1  0.133597  0.133380  0.267279  1
  Ta  Ta1  1  0.866058  0.866089  0.732841  1
  Ta  Ta2  1  0.864857  0.131562  0.000816  1
  Ti  Ti3  1  0.137181  0.868227  0.000154  1
  Ti  Ti4  1  0.503125  0.692250  0.193586  1
  Ti  Ti5  1  0.496800  0.306756  0.805909  1
  Ti  Ti6  1  0.309533  0.499783  0.807914  1
  Ti  Ti7  1  0.690983  0.502318  0.194958  1
  Co  Co8  1  0.101864  0.601683  0.204385  1
  Co  Co9  1  0.099947  0.898544  0.499692  1
  Co  Co10  1  0.399696  0.601464  0.499919  1
  Co  Co11  1  0.597844  0.397898  0.498018  1
  Co  Co12  1  0.900035  0.100008  0.497812  1
  Co  Co13  1  0.899865  0.399710  0.799919  1
  Co  Co14  1  0.599375  0.099086  0.197416  1
  Si  Si15  1  0.293154  0.293408  0.586837  1
  Si  Si16  1  0.706461  0.706630  0.413395  1
  Si  Si17  1  0.720621  0.314899  0.004955  1
  Si  Si18  1  0.285126  0.692021  0.004974  1
  Si  Si19  1  0.999857  0.297008  0.296843  1
  Si  Si20  1  0.989173  0.698247  0.704658  1
  Si  Si21  1  0.713580  0.005688  0.702321  1
  Si  Si22  1  0.295344  0.998938  0.294014  1
  Si  Si23  1  0.503100  0.907971  0.404346  1
  Si  Si24  1  0.507281  0.103064  0.589860  1
  Si  Si25  1  0.082186  0.487107  0.590594  1
  Si  Si26  1  0.901091  0.496847  0.404956  1
  Si  Si27  1  0.749238  0.747742  0.000144  1
  Si  Si28  1  0.252336  0.250609  0.000073  1
  Ru  Ru29  1  0.400693  0.901060  0.801410  1
