# generated using pymatgen
data_DyEr7(CdNi)2
_symmetry_space_group_name_H-M   'P 1'
_cell_length_a   9.46640564
_cell_length_b   9.46640506
_cell_length_c   9.46442600
_cell_angle_alpha   60.00691547
_cell_angle_beta   60.00691748
_cell_angle_gamma   59.98616478
_symmetry_Int_Tables_number   1
_chemical_formula_structural   DyEr7(CdNi)2
_chemical_formula_sum   'Dy2 Er14 Cd4 Ni4'
_cell_volume   599.72124062
_cell_formula_units_Z   2
loop_
 _symmetry_equiv_pos_site_id
 _symmetry_equiv_pos_as_xyz
  1  'x, y, z'
loop_
 _atom_site_type_symbol
 _atom_site_label
 _atom_site_symmetry_multiplicity
 _atom_site_fract_x
 _atom_site_fract_y
 _atom_site_fract_z
 _atom_site_occupancy
  Dy  Dy0  1  0.814104  0.814104  0.185896  1
  Dy  Dy1  1  0.185896  0.185896  0.814104  1
  Er  Er2  1  0.598417  0.598417  0.598685  1
  Er  Er3  1  0.598417  0.598417  0.204481  1
  Er  Er4  1  0.598685  0.204481  0.598417  1
  Er  Er5  1  0.204481  0.598685  0.598417  1
  Er  Er6  1  0.061713  0.438287  0.438287  1
  Er  Er7  1  0.438287  0.061713  0.061713  1
  Er  Er8  1  0.438287  0.061713  0.438287  1
  Er  Er9  1  0.061713  0.438287  0.061713  1
  Er  Er10  1  0.438286  0.438286  0.061714  1
  Er  Er11  1  0.061714  0.061714  0.438286  1
  Er  Er12  1  0.186184  0.813816  0.813816  1
  Er  Er13  1  0.813816  0.186184  0.186184  1
  Er  Er14  1  0.813816  0.186184  0.813816  1
  Er  Er15  1  0.186184  0.813816  0.186184  1
  Cd  Cd16  1  0.831367  0.831367  0.831101  1
  Cd  Cd17  1  0.831367  0.831367  0.506165  1
  Cd  Cd18  1  0.831101  0.506165  0.831367  1
  Cd  Cd19  1  0.506165  0.831101  0.831367  1
  Ni  Ni20  1  0.392263  0.392263  0.392328  1
  Ni  Ni21  1  0.392263  0.392263  0.823146  1
  Ni  Ni22  1  0.392328  0.823146  0.392263  1
  Ni  Ni23  1  0.823146  0.392328  0.392263  1
