# generated using pymatgen
data_Er6Tm2Re3B24Ru
_symmetry_space_group_name_H-M   'P 1'
_cell_length_a   3.64835400
_cell_length_b   9.11508574
_cell_length_c   11.49173802
_cell_angle_alpha   89.90785110
_cell_angle_beta   90.00000000
_cell_angle_gamma   90.00000000
_symmetry_Int_Tables_number   1
_chemical_formula_structural   Er6Tm2Re3B24Ru
_chemical_formula_sum   'Er6 Tm2 Re3 B24 Ru1'
_cell_volume   382.15793786
_cell_formula_units_Z   1
loop_
 _symmetry_equiv_pos_site_id
 _symmetry_equiv_pos_as_xyz
  1  'x, y, z'
loop_
 _atom_site_type_symbol
 _atom_site_label
 _atom_site_symmetry_multiplicity
 _atom_site_fract_x
 _atom_site_fract_y
 _atom_site_fract_z
 _atom_site_occupancy
  Er  Er0  1  0.000000  0.323090  0.413541  1
  Er  Er1  1  0.000000  0.675384  0.584191  1
  Er  Er2  1  0.000000  0.822252  0.087630  1
  Er  Er3  1  0.000000  0.178502  0.914221  1
  Er  Er4  1  0.000000  0.943044  0.371173  1
  Er  Er5  1  0.000000  0.056799  0.630271  1
  Tm  Tm6  1  0.000000  0.443685  0.128918  1
  Tm  Tm7  1  0.000000  0.558176  0.870110  1
  Re  Re8  1  0.000000  0.637949  0.320606  1
  Re  Re9  1  0.000000  0.361928  0.679883  1
  Re  Re10  1  0.000000  0.138186  0.178179  1
  B  B11  1  0.500000  0.552687  0.433140  1
  B  B12  1  0.500000  0.446906  0.566569  1
  B  B13  1  0.500000  0.052796  0.066399  1
  B  B14  1  0.500000  0.946197  0.932972  1
  B  B15  1  0.500000  0.748995  0.419277  1
  B  B16  1  0.500000  0.250267  0.580974  1
  B  B17  1  0.500000  0.250065  0.080613  1
  B  B18  1  0.500000  0.751072  0.918931  1
  B  B19  1  0.500000  0.792322  0.265634  1
  B  B20  1  0.500000  0.207879  0.735322  1
  B  B21  1  0.500000  0.292594  0.234247  1
  B  B22  1  0.500000  0.708625  0.765375  1
  B  B23  1  0.500000  0.630922  0.184980  1
  B  B24  1  0.500000  0.369446  0.815485  1
  B  B25  1  0.500000  0.130563  0.314440  1
  B  B26  1  0.500000  0.868551  0.685460  1
  B  B27  1  0.500000  0.981229  0.212072  1
  B  B28  1  0.500000  0.017076  0.788246  1
  B  B29  1  0.500000  0.481443  0.287350  1
  B  B30  1  0.500000  0.518539  0.712146  1
  B  B31  1  0.500000  0.602170  0.027969  1
  B  B32  1  0.500000  0.400025  0.971611  1
  B  B33  1  0.500000  0.101220  0.472240  1
  B  B34  1  0.500000  0.898072  0.528857  1
  Ru  Ru35  1  0.000000  0.861344  0.820963  1
