# generated using pymatgen
data_Dy11Y5MgHg3Rh4
_symmetry_space_group_name_H-M   'P 1'
_cell_length_a   9.64984291
_cell_length_b   9.63245427
_cell_length_c   9.63245500
_cell_angle_alpha   59.85069481
_cell_angle_beta   59.88139070
_cell_angle_gamma   59.88138923
_symmetry_Int_Tables_number   1
_chemical_formula_structural   Dy11Y5MgHg3Rh4
_chemical_formula_sum   'Dy11 Y5 Mg1 Hg3 Rh4'
_cell_volume   631.25899166
_cell_formula_units_Z   1
loop_
 _symmetry_equiv_pos_site_id
 _symmetry_equiv_pos_as_xyz
  1  'x, y, z'
loop_
 _atom_site_type_symbol
 _atom_site_label
 _atom_site_symmetry_multiplicity
 _atom_site_fract_x
 _atom_site_fract_y
 _atom_site_fract_z
 _atom_site_occupancy
  Dy  Dy0  1  0.599178  0.597540  0.597540  1
  Dy  Dy1  1  0.601652  0.599044  0.203164  1
  Dy  Dy2  1  0.601652  0.203164  0.599044  1
  Dy  Dy3  1  0.191736  0.603418  0.603418  1
  Dy  Dy4  1  0.058095  0.440762  0.440762  1
  Dy  Dy5  1  0.435501  0.062078  0.062078  1
  Dy  Dy6  1  0.436605  0.061300  0.438760  1
  Dy  Dy7  1  0.058127  0.440091  0.059306  1
  Dy  Dy8  1  0.436605  0.438760  0.061300  1
  Dy  Dy9  1  0.058127  0.059306  0.440091  1
  Dy  Dy10  1  0.187280  0.812537  0.812537  1
  Y  Y11  1  0.811279  0.187199  0.187199  1
  Y  Y12  1  0.812461  0.188288  0.814093  1
  Y  Y13  1  0.186234  0.812082  0.188051  1
  Y  Y14  1  0.812461  0.814093  0.188288  1
  Y  Y15  1  0.186234  0.188051  0.812082  1
  Mg  Mg16  1  0.535047  0.820801  0.820801  1
  Hg  Hg17  1  0.832439  0.836363  0.836363  1
  Hg  Hg18  1  0.832656  0.836837  0.492908  1
  Hg  Hg19  1  0.832656  0.492908  0.836837  1
  Rh  Rh20  1  0.389153  0.393890  0.393890  1
  Rh  Rh21  1  0.390392  0.395363  0.822988  1
  Rh  Rh22  1  0.390392  0.822988  0.395363  1
  Rh  Rh23  1  0.824041  0.393140  0.393140  1
