# generated using pymatgen
data_NdErTmTaO7
_symmetry_space_group_name_H-M   'P 1'
_cell_length_a   6.46614715
_cell_length_b   6.46108698
_cell_length_c   7.57200200
_cell_angle_alpha   90.00000000
_cell_angle_beta   90.00000000
_cell_angle_gamma   109.32191799
_symmetry_Int_Tables_number   1
_chemical_formula_structural   NdErTmTaO7
_chemical_formula_sum   'Nd2 Er2 Tm2 Ta2 O14'
_cell_volume   298.52732320
_cell_formula_units_Z   2
loop_
 _symmetry_equiv_pos_site_id
 _symmetry_equiv_pos_as_xyz
  1  'x, y, z'
loop_
 _atom_site_type_symbol
 _atom_site_label
 _atom_site_symmetry_multiplicity
 _atom_site_fract_x
 _atom_site_fract_y
 _atom_site_fract_z
 _atom_site_occupancy
  Nd  Nd0  1  0.500000  0.500000  0.500000  1
  Nd  Nd1  1  0.500000  0.500000  0.000000  1
  Er  Er2  1  0.001615  0.533219  0.250000  1
  Er  Er3  1  0.998385  0.466781  0.750000  1
  Tm  Tm4  1  0.531814  0.001705  0.750000  1
  Tm  Tm5  1  0.468186  0.998295  0.250000  1
  Ta  Ta6  1  0.000000  0.000000  0.500000  1
  Ta  Ta7  1  0.000000  0.000000  0.000000  1
  O  O8  1  0.932913  0.066622  0.750000  1
  O  O9  1  0.067087  0.933378  0.250000  1
  O  O10  1  0.356466  0.645667  0.250000  1
  O  O11  1  0.643534  0.354333  0.750000  1
  O  O12  1  0.362565  0.639341  0.750000  1
  O  O13  1  0.637435  0.360659  0.250000  1
  O  O14  1  0.321151  0.067487  0.965739  1
  O  O15  1  0.678849  0.932513  0.465739  1
  O  O16  1  0.321151  0.067487  0.534261  1
  O  O17  1  0.678849  0.932513  0.034261  1
  O  O18  1  0.071122  0.322147  0.466544  1
  O  O19  1  0.928878  0.677853  0.966544  1
  O  O20  1  0.928878  0.677853  0.533456  1
  O  O21  1  0.071122  0.322147  0.033456  1
