# generated using pymatgen
data_Sc2Ag(H6Ir)2
_symmetry_space_group_name_H-M   'P 1'
_cell_length_a   4.69588000
_cell_length_b   4.69588191
_cell_length_c   7.98767800
_cell_angle_alpha   90.00000000
_cell_angle_beta   90.00000000
_cell_angle_gamma   120.00000064
_symmetry_Int_Tables_number   1
_chemical_formula_structural   Sc2Ag(H6Ir)2
_chemical_formula_sum   'Sc2 Ag1 H12 Ir2'
_cell_volume   152.54055958
_cell_formula_units_Z   1
loop_
 _symmetry_equiv_pos_site_id
 _symmetry_equiv_pos_as_xyz
  1  'x, y, z'
loop_
 _atom_site_type_symbol
 _atom_site_label
 _atom_site_symmetry_multiplicity
 _atom_site_fract_x
 _atom_site_fract_y
 _atom_site_fract_z
 _atom_site_occupancy
  Sc  Sc0  1  0.666667  0.333333  0.360214  1
  Sc  Sc1  1  0.333333  0.666667  0.639786  1
  Ag  Ag2  1  0.000000  0.000000  0.000000  1
  H  H3  1  0.160658  0.839342  0.390614  1
  H  H4  1  0.678685  0.839342  0.390614  1
  H  H5  1  0.160658  0.321315  0.390614  1
  H  H6  1  0.839342  0.160658  0.609386  1
  H  H7  1  0.321315  0.160658  0.609386  1
  H  H8  1  0.839342  0.678685  0.609386  1
  H  H9  1  0.502702  0.005404  0.856957  1
  H  H10  1  0.502702  0.497298  0.856957  1
  H  H11  1  0.994596  0.497298  0.856957  1
  H  H12  1  0.497298  0.994596  0.143043  1
  H  H13  1  0.497298  0.502702  0.143043  1
  H  H14  1  0.005404  0.502702  0.143043  1
  Ir  Ir15  1  0.666667  0.333333  0.728759  1
  Ir  Ir16  1  0.333333  0.666667  0.271241  1
