# generated using pymatgen
data_Nd2Y2CuPt3
_symmetry_space_group_name_H-M   'P 1'
_cell_length_a   4.55975300
_cell_length_b   5.66320888
_cell_length_c   7.23144743
_cell_angle_alpha   88.77711180
_cell_angle_beta   90.00000000
_cell_angle_gamma   90.00000000
_symmetry_Int_Tables_number   1
_chemical_formula_structural   Nd2Y2CuPt3
_chemical_formula_sum   'Nd2 Y2 Cu1 Pt3'
_cell_volume   186.69393278
_cell_formula_units_Z   1
loop_
 _symmetry_equiv_pos_site_id
 _symmetry_equiv_pos_as_xyz
  1  'x, y, z'
loop_
 _atom_site_type_symbol
 _atom_site_label
 _atom_site_symmetry_multiplicity
 _atom_site_fract_x
 _atom_site_fract_y
 _atom_site_fract_z
 _atom_site_occupancy
  Nd  Nd0  1  0.000000  0.639008  0.314875  1
  Nd  Nd1  1  0.500000  0.366238  0.687921  1
  Y  Y2  1  0.000000  0.857857  0.821526  1
  Y  Y3  1  0.500000  0.137524  0.174461  1
  Cu  Cu4  1  0.000000  0.129485  0.461976  1
  Pt  Pt5  1  0.000000  0.335746  0.960016  1
  Pt  Pt6  1  0.500000  0.876023  0.537793  1
  Pt  Pt7  1  0.500000  0.658120  0.041432  1
