# generated using pymatgen
data_Ce9ZrPb8
_symmetry_space_group_name_H-M   'P 1'
_cell_length_a   9.71546300
_cell_length_b   9.71546159
_cell_length_c   6.57867400
_cell_angle_alpha   90.00000000
_cell_angle_beta   90.00000000
_cell_angle_gamma   119.99999460
_symmetry_Int_Tables_number   1
_chemical_formula_structural   Ce9ZrPb8
_chemical_formula_sum   'Ce9 Zr1 Pb8'
_cell_volume   537.76924619
_cell_formula_units_Z   1
loop_
 _symmetry_equiv_pos_site_id
 _symmetry_equiv_pos_as_xyz
  1  'x, y, z'
loop_
 _atom_site_type_symbol
 _atom_site_label
 _atom_site_symmetry_multiplicity
 _atom_site_fract_x
 _atom_site_fract_y
 _atom_site_fract_z
 _atom_site_occupancy
  Ce  Ce0  1  0.333333  0.666667  0.000000  1
  Ce  Ce1  1  0.666667  0.333333  0.500000  1
  Ce  Ce2  1  0.666667  0.333333  0.000000  1
  Ce  Ce3  1  0.283271  0.003627  0.247324  1
  Ce  Ce4  1  0.283271  0.279644  0.752676  1
  Ce  Ce5  1  0.996373  0.716729  0.752676  1
  Ce  Ce6  1  0.996373  0.279644  0.247324  1
  Ce  Ce7  1  0.720356  0.716729  0.247324  1
  Ce  Ce8  1  0.720356  0.003627  0.752676  1
  Zr  Zr9  1  0.333333  0.666667  0.500000  1
  Pb  Pb10  1  0.000000  0.000000  0.000000  1
  Pb  Pb11  1  0.000000  0.000000  0.500000  1
  Pb  Pb12  1  0.614533  0.987691  0.259662  1
  Pb  Pb13  1  0.614533  0.626843  0.740338  1
  Pb  Pb14  1  0.012309  0.385467  0.740338  1
  Pb  Pb15  1  0.012309  0.626843  0.259662  1
  Pb  Pb16  1  0.373157  0.385467  0.259662  1
  Pb  Pb17  1  0.373157  0.987691  0.740338  1
