# generated using pymatgen
data_Nd3Th5Zn8(RuRh3)2
_symmetry_space_group_name_H-M   'P 1'
_cell_length_a   3.92829400
_cell_length_b   7.54880626
_cell_length_c   16.50674107
_cell_angle_alpha   90.37709915
_cell_angle_beta   90.00000000
_cell_angle_gamma   90.00000000
_symmetry_Int_Tables_number   1
_chemical_formula_structural   Nd3Th5Zn8(RuRh3)2
_chemical_formula_sum   'Nd3 Th5 Zn8 Ru2 Rh6'
_cell_volume   489.47914803
_cell_formula_units_Z   1
loop_
 _symmetry_equiv_pos_site_id
 _symmetry_equiv_pos_as_xyz
  1  'x, y, z'
loop_
 _atom_site_type_symbol
 _atom_site_label
 _atom_site_symmetry_multiplicity
 _atom_site_fract_x
 _atom_site_fract_y
 _atom_site_fract_z
 _atom_site_occupancy
  Nd  Nd0  1  0.750000  0.444517  0.216232  1
  Nd  Nd1  1  0.250000  0.052562  0.714189  1
  Nd  Nd2  1  0.250000  0.555512  0.784339  1
  Th  Th3  1  0.250000  0.174534  0.938342  1
  Th  Th4  1  0.250000  0.673781  0.558167  1
  Th  Th5  1  0.750000  0.324431  0.436917  1
  Th  Th6  1  0.750000  0.948846  0.286645  1
  Th  Th7  1  0.750000  0.828276  0.060931  1
  Zn  Zn8  1  0.750000  0.006457  0.559606  1
  Zn  Zn9  1  0.250000  0.614408  0.346527  1
  Zn  Zn10  1  0.750000  0.380453  0.654243  1
  Zn  Zn11  1  0.250000  0.496355  0.061957  1
  Zn  Zn12  1  0.750000  0.507547  0.938914  1
  Zn  Zn13  1  0.250000  0.992817  0.442037  1
  Zn  Zn14  1  0.250000  0.123488  0.153071  1
  Zn  Zn15  1  0.750000  0.880917  0.844762  1
  Ru  Ru16  1  0.750000  0.743372  0.439508  1
  Ru  Ru17  1  0.250000  0.231562  0.318597  1
  Rh  Rh18  1  0.750000  0.249205  0.820329  1
  Rh  Rh19  1  0.750000  0.749224  0.680587  1
  Rh  Rh20  1  0.250000  0.260045  0.560230  1
  Rh  Rh21  1  0.250000  0.757989  0.184523  1
  Rh  Rh22  1  0.750000  0.242788  0.058225  1
  Rh  Rh23  1  0.250000  0.760915  0.941123  1
