# generated using pymatgen
data_Y2Lu2Al18(NiIr)3
_symmetry_space_group_name_H-M   'P 1'
_cell_length_a   7.47945306
_cell_length_b   7.47131815
_cell_length_c   9.32406308
_cell_angle_alpha   89.91929905
_cell_angle_beta   89.94459052
_cell_angle_gamma   119.18734914
_symmetry_Int_Tables_number   1
_chemical_formula_structural   Y2Lu2Al18(NiIr)3
_chemical_formula_sum   'Y2 Lu2 Al18 Ni3 Ir3'
_cell_volume   454.88343268
_cell_formula_units_Z   1
loop_
 _symmetry_equiv_pos_site_id
 _symmetry_equiv_pos_as_xyz
  1  'x, y, z'
loop_
 _atom_site_type_symbol
 _atom_site_label
 _atom_site_symmetry_multiplicity
 _atom_site_fract_x
 _atom_site_fract_y
 _atom_site_fract_z
 _atom_site_occupancy
  Y  Y0  1  0.676077  0.997159  0.249810  1
  Y  Y1  1  0.326280  0.005734  0.750159  1
  Lu  Lu2  1  0.993701  0.674048  0.250119  1
  Lu  Lu3  1  0.002939  0.323444  0.749905  1
  Al  Al4  1  0.133457  0.133001  0.249545  1
  Al  Al5  1  0.866598  0.866997  0.750435  1
  Al  Al6  1  0.998859  0.340299  0.073486  1
  Al  Al7  1  0.002885  0.661642  0.925774  1
  Al  Al8  1  0.004024  0.661995  0.574300  1
  Al  Al9  1  0.336338  0.995339  0.424921  1
  Al  Al10  1  0.004224  0.339873  0.425695  1
  Al  Al11  1  0.662080  0.996797  0.575144  1
  Al  Al12  1  0.661841  0.002237  0.925493  1
  Al  Al13  1  0.336142  0.995901  0.075210  1
  Al  Al14  1  0.332991  0.335233  0.550195  1
  Al  Al15  1  0.665597  0.666280  0.449804  1
  Al  Al16  1  0.664665  0.664714  0.050485  1
  Al  Al17  1  0.334209  0.336271  0.949468  1
  Al  Al18  1  0.339878  0.557130  0.249644  1
  Al  Al19  1  0.659663  0.448240  0.753671  1
  Al  Al20  1  0.552906  0.342735  0.246418  1
  Al  Al21  1  0.441652  0.657520  0.750376  1
  Ni  Ni22  1  0.671543  0.329021  0.999985  1
  Ni  Ni23  1  0.328568  0.671043  0.999982  1
  Ni  Ni24  1  0.329068  0.670276  0.500041  1
  Ir  Ir25  1  0.673018  0.327994  0.500043  1
  Ir  Ir26  1  0.999736  0.000281  0.999986  1
  Ir  Ir27  1  0.001060  0.998798  0.499905  1
