# generated using pymatgen
data_K5Rb(Al2Sb3)2
_symmetry_space_group_name_H-M   'P 1'
_cell_length_a   6.50163600
_cell_length_b   8.13755824
_cell_length_c   11.37307357
_cell_angle_alpha   69.96865482
_cell_angle_beta   90.00000000
_cell_angle_gamma   90.00000000
_symmetry_Int_Tables_number   1
_chemical_formula_structural   K5Rb(Al2Sb3)2
_chemical_formula_sum   'K5 Rb1 Al4 Sb6'
_cell_volume   565.31938250
_cell_formula_units_Z   1
loop_
 _symmetry_equiv_pos_site_id
 _symmetry_equiv_pos_as_xyz
  1  'x, y, z'
loop_
 _atom_site_type_symbol
 _atom_site_label
 _atom_site_symmetry_multiplicity
 _atom_site_fract_x
 _atom_site_fract_y
 _atom_site_fract_z
 _atom_site_occupancy
  K  K0  1  0.250000  0.423874  0.429210  1
  K  K1  1  0.750000  0.124106  0.916772  1
  K  K2  1  0.750000  0.468597  0.153194  1
  K  K3  1  0.250000  0.529393  0.847069  1
  K  K4  1  0.750000  0.577064  0.571147  1
  Rb  Rb5  1  0.250000  0.861908  0.082064  1
  Al  Al6  1  0.000377  0.035343  0.342222  1
  Al  Al7  1  0.499273  0.966794  0.658136  1
  Al  Al8  1  0.499623  0.035343  0.342222  1
  Al  Al9  1  0.000727  0.966794  0.658136  1
  Sb  Sb10  1  0.250000  0.805167  0.527006  1
  Sb  Sb11  1  0.750000  0.195511  0.473794  1
  Sb  Sb12  1  0.250000  0.269173  0.176679  1
  Sb  Sb13  1  0.750000  0.734323  0.824683  1
  Sb  Sb14  1  0.250000  0.161024  0.747000  1
  Sb  Sb15  1  0.750000  0.845586  0.250666  1
