# generated using pymatgen
data_CsK2Ag(AsAu)2
_symmetry_space_group_name_H-M   'P 1'
_cell_length_a   7.96452097
_cell_length_b   7.81265045
_cell_length_c   7.96452125
_cell_angle_alpha   46.62695700
_cell_angle_beta   47.72407021
_cell_angle_gamma   46.62696128
_symmetry_Int_Tables_number   1
_chemical_formula_structural   CsK2Ag(AsAu)2
_chemical_formula_sum   'Cs1 K2 Ag1 As2 Au2'
_cell_volume   242.15372633
_cell_formula_units_Z   1
loop_
 _symmetry_equiv_pos_site_id
 _symmetry_equiv_pos_as_xyz
  1  'x, y, z'
loop_
 _atom_site_type_symbol
 _atom_site_label
 _atom_site_symmetry_multiplicity
 _atom_site_fract_x
 _atom_site_fract_y
 _atom_site_fract_z
 _atom_site_occupancy
  Cs  Cs0  1  0.500000  0.500000  0.500000  1
  K  K1  1  0.089165  0.082190  0.089165  1
  K  K2  1  0.910835  0.917810  0.910835  1
  Ag  Ag3  1  0.500000  0.000000  0.500000  1
  As  As4  1  0.755544  0.742746  0.755544  1
  As  As5  1  0.244456  0.257254  0.244456  1
  Au  Au6  1  0.500000  0.500000  0.000000  1
  Au  Au7  1  0.000000  0.500000  0.500000  1
