# generated using pymatgen
data_DyY2In3Ni2Au
_symmetry_space_group_name_H-M   'P 1'
_cell_length_a   7.69039775
_cell_length_b   7.69837958
_cell_length_c   3.73279900
_cell_angle_alpha   90.00000000
_cell_angle_beta   90.00000000
_cell_angle_gamma   120.01623912
_symmetry_Int_Tables_number   1
_chemical_formula_structural   DyY2In3Ni2Au
_chemical_formula_sum   'Dy1 Y2 In3 Ni2 Au1'
_cell_volume   191.35608196
_cell_formula_units_Z   1
loop_
 _symmetry_equiv_pos_site_id
 _symmetry_equiv_pos_as_xyz
  1  'x, y, z'
loop_
 _atom_site_type_symbol
 _atom_site_label
 _atom_site_symmetry_multiplicity
 _atom_site_fract_x
 _atom_site_fract_y
 _atom_site_fract_z
 _atom_site_occupancy
  Dy  Dy0  1  0.017403  0.600284  0.500000  1
  Y  Y1  1  0.583379  0.982948  0.500000  1
  Y  Y2  1  0.399566  0.416622  0.500000  1
  In  In3  1  0.003329  0.253905  0.000000  1
  In  In4  1  0.250477  0.996628  0.000000  1
  In  In5  1  0.746177  0.749476  0.000000  1
  Ni  Ni6  1  0.999998  0.999698  0.500000  1
  Ni  Ni7  1  0.332222  0.666469  0.000000  1
  Au  Au8  1  0.667449  0.333969  0.000000  1
