# generated using pymatgen
data_Ce2NdHo(SnRu)4
_symmetry_space_group_name_H-M   'P 1'
_cell_length_a   6.28418051
_cell_length_b   6.28418039
_cell_length_c   10.18594446
_cell_angle_alpha   78.22037561
_cell_angle_beta   78.22037561
_cell_angle_gamma   45.04990983
_symmetry_Int_Tables_number   1
_chemical_formula_structural   Ce2NdHo(SnRu)4
_chemical_formula_sum   'Ce2 Nd1 Ho1 Sn4 Ru4'
_cell_volume   277.64338617
_cell_formula_units_Z   1
loop_
 _symmetry_equiv_pos_site_id
 _symmetry_equiv_pos_as_xyz
  1  'x, y, z'
loop_
 _atom_site_type_symbol
 _atom_site_label
 _atom_site_symmetry_multiplicity
 _atom_site_fract_x
 _atom_site_fract_y
 _atom_site_fract_z
 _atom_site_occupancy
  Ce  Ce0  1  0.861728  0.861728  0.912338  1
  Ce  Ce1  1  0.140602  0.140602  0.085915  1
  Nd  Nd2  1  0.877779  0.877779  0.407272  1
  Ho  Ho3  1  0.121575  0.121575  0.595010  1
  Sn  Sn4  1  0.424379  0.424379  0.157216  1
  Sn  Sn5  1  0.405379  0.405379  0.647199  1
  Sn  Sn6  1  0.575910  0.575910  0.840212  1
  Sn  Sn7  1  0.594978  0.594978  0.356816  1
  Ru  Ru8  1  0.815139  0.815139  0.147333  1
  Ru  Ru9  1  0.195202  0.195202  0.305758  1
  Ru  Ru10  1  0.182996  0.182996  0.849373  1
  Ru  Ru11  1  0.804331  0.804331  0.695557  1
