# generated using pymatgen
data_Tb3YTh4(ReB6)4
_symmetry_space_group_name_H-M   'P 1'
_cell_length_a   3.78002600
_cell_length_b   9.28826801
_cell_length_c   11.70358201
_cell_angle_alpha   89.99493985
_cell_angle_beta   90.00000000
_cell_angle_gamma   90.00000000
_symmetry_Int_Tables_number   1
_chemical_formula_structural   Tb3YTh4(ReB6)4
_chemical_formula_sum   'Tb3 Y1 Th4 Re4 B24'
_cell_volume   410.91152890
_cell_formula_units_Z   1
loop_
 _symmetry_equiv_pos_site_id
 _symmetry_equiv_pos_as_xyz
  1  'x, y, z'
loop_
 _atom_site_type_symbol
 _atom_site_label
 _atom_site_symmetry_multiplicity
 _atom_site_fract_x
 _atom_site_fract_y
 _atom_site_fract_z
 _atom_site_occupancy
  Tb  Tb0  1  0.000000  0.444272  0.127385  1
  Tb  Tb1  1  0.000000  0.555746  0.872532  1
  Tb  Tb2  1  0.000000  0.944272  0.372674  1
  Y  Y3  1  0.000000  0.055661  0.627304  1
  Th  Th4  1  0.000000  0.822071  0.085944  1
  Th  Th5  1  0.000000  0.177932  0.913957  1
  Th  Th6  1  0.000000  0.322082  0.414032  1
  Th  Th7  1  0.000000  0.677937  0.586062  1
  Re  Re8  1  0.000000  0.138366  0.179588  1
  Re  Re9  1  0.000000  0.861668  0.820390  1
  Re  Re10  1  0.000000  0.638437  0.320491  1
  Re  Re11  1  0.000000  0.361455  0.679551  1
  B  B12  1  0.500000  0.055652  0.069787  1
  B  B13  1  0.500000  0.944369  0.930138  1
  B  B14  1  0.500000  0.555634  0.430216  1
  B  B15  1  0.500000  0.444275  0.569824  1
  B  B16  1  0.500000  0.248495  0.082850  1
  B  B17  1  0.500000  0.751525  0.917119  1
  B  B18  1  0.500000  0.748518  0.417146  1
  B  B19  1  0.500000  0.251325  0.582821  1
  B  B20  1  0.500000  0.289799  0.233123  1
  B  B21  1  0.500000  0.710316  0.766875  1
  B  B22  1  0.500000  0.789803  0.266883  1
  B  B23  1  0.500000  0.210019  0.733139  1
  B  B24  1  0.500000  0.130366  0.313335  1
  B  B25  1  0.500000  0.869755  0.686560  1
  B  B26  1  0.500000  0.630392  0.186672  1
  B  B27  1  0.500000  0.369581  0.813288  1
  B  B28  1  0.500000  0.485142  0.286506  1
  B  B29  1  0.500000  0.514805  0.713480  1
  B  B30  1  0.500000  0.985130  0.213507  1
  B  B31  1  0.500000  0.015001  0.786420  1
  B  B32  1  0.500000  0.104295  0.471382  1
  B  B33  1  0.500000  0.895902  0.529070  1
  B  B34  1  0.500000  0.604370  0.028871  1
  B  B35  1  0.500000  0.395631  0.971079  1
