# generated using pymatgen
data_Mg2U(SnRu2)3
_symmetry_space_group_name_H-M   'P 1'
_cell_length_a   4.57087200
_cell_length_b   6.48955200
_cell_length_c   13.60637700
_cell_angle_alpha   90.00000000
_cell_angle_beta   90.00087245
_cell_angle_gamma   90.00000000
_symmetry_Int_Tables_number   1
_chemical_formula_structural   Mg2U(SnRu2)3
_chemical_formula_sum   'Mg4 U2 Sn6 Ru12'
_cell_volume   403.60475716
_cell_formula_units_Z   2
loop_
 _symmetry_equiv_pos_site_id
 _symmetry_equiv_pos_as_xyz
  1  'x, y, z'
loop_
 _atom_site_type_symbol
 _atom_site_label
 _atom_site_symmetry_multiplicity
 _atom_site_fract_x
 _atom_site_fract_y
 _atom_site_fract_z
 _atom_site_occupancy
  Mg  Mg0  1  0.999896  0.500000  0.337963  1
  Mg  Mg1  1  0.499985  0.000000  0.502804  1
  Mg  Mg2  1  0.000114  0.500000  0.663722  1
  Mg  Mg3  1  0.500096  0.000000  0.828812  1
  U  U4  1  0.000016  0.500000  0.990337  1
  U  U5  1  0.499935  0.000000  0.176142  1
  Sn  Sn6  1  0.000005  0.000000  0.996048  1
  Sn  Sn7  1  0.499945  0.500000  0.170788  1
  Sn  Sn8  1  0.999906  0.000000  0.346317  1
  Sn  Sn9  1  0.500000  0.500000  0.506500  1
  Sn  Sn10  1  0.000079  0.000000  0.660217  1
  Sn  Sn11  1  0.500049  0.500000  0.820312  1
  Ru  Ru12  1  0.500010  0.244844  0.001928  1
  Ru  Ru13  1  0.500010  0.755157  0.001928  1
  Ru  Ru14  1  0.999922  0.254980  0.164743  1
  Ru  Ru15  1  0.999922  0.745019  0.164743  1
  Ru  Ru16  1  0.499905  0.244266  0.328800  1
  Ru  Ru17  1  0.499905  0.755734  0.328800  1
  Ru  Ru18  1  0.999983  0.255155  0.498858  1
  Ru  Ru19  1  0.999983  0.744846  0.498858  1
  Ru  Ru20  1  0.500104  0.244735  0.667888  1
  Ru  Ru21  1  0.500104  0.755265  0.667888  1
  Ru  Ru22  1  0.000064  0.255528  0.837802  1
  Ru  Ru23  1  0.000064  0.744471  0.837802  1
