# generated using pymatgen
data_YMoN2
_symmetry_space_group_name_H-M   'P 1'
_cell_length_a   3.21362800
_cell_length_b   5.72160200
_cell_length_c   10.61591500
_cell_angle_alpha   90.00000000
_cell_angle_beta   90.00000000
_cell_angle_gamma   90.00000000
_symmetry_Int_Tables_number   1
_chemical_formula_structural   YMoN2
_chemical_formula_sum   'Y4 Mo4 N8'
_cell_volume   195.19589486
_cell_formula_units_Z   4
loop_
 _symmetry_equiv_pos_site_id
 _symmetry_equiv_pos_as_xyz
  1  'x, y, z'
loop_
 _atom_site_type_symbol
 _atom_site_label
 _atom_site_symmetry_multiplicity
 _atom_site_fract_x
 _atom_site_fract_y
 _atom_site_fract_z
 _atom_site_occupancy
  Y  Y0  1  0.250000  0.078881  0.853626  1
  Y  Y1  1  0.250000  0.578881  0.646374  1
  Y  Y2  1  0.750000  0.921119  0.146374  1
  Y  Y3  1  0.750000  0.421119  0.353626  1
  Mo  Mo4  1  0.250000  0.433809  0.093376  1
  Mo  Mo5  1  0.250000  0.933809  0.406624  1
  Mo  Mo6  1  0.750000  0.566191  0.906624  1
  Mo  Mo7  1  0.750000  0.066191  0.593376  1
  N  N8  1  0.250000  0.164262  0.250202  1
  N  N9  1  0.250000  0.664262  0.249798  1
  N  N10  1  0.750000  0.835738  0.749798  1
  N  N11  1  0.750000  0.335738  0.750202  1
  N  N12  1  0.250000  0.757643  0.993054  1
  N  N13  1  0.250000  0.257643  0.506946  1
  N  N14  1  0.750000  0.242357  0.006946  1
  N  N15  1  0.750000  0.742357  0.493054  1
