# generated using pymatgen
data_Sr3(YSn2)2
_symmetry_space_group_name_H-M   'P 1'
_cell_length_a   8.16043500
_cell_length_b   8.73494000
_cell_length_c   16.56331800
_cell_angle_alpha   90.00000000
_cell_angle_beta   90.00000000
_cell_angle_gamma   90.00000000
_symmetry_Int_Tables_number   1
_chemical_formula_structural   Sr3(YSn2)2
_chemical_formula_sum   'Sr12 Y8 Sn16'
_cell_volume   1180.64838130
_cell_formula_units_Z   4
loop_
 _symmetry_equiv_pos_site_id
 _symmetry_equiv_pos_as_xyz
  1  'x, y, z'
loop_
 _atom_site_type_symbol
 _atom_site_label
 _atom_site_symmetry_multiplicity
 _atom_site_fract_x
 _atom_site_fract_y
 _atom_site_fract_z
 _atom_site_occupancy
  Sr  Sr0  1  0.504695  0.681451  0.592192  1
  Sr  Sr1  1  0.004695  0.818549  0.907808  1
  Sr  Sr2  1  0.495305  0.318549  0.092192  1
  Sr  Sr3  1  0.995305  0.181451  0.407808  1
  Sr  Sr4  1  0.495305  0.318549  0.407808  1
  Sr  Sr5  1  0.995305  0.181451  0.092192  1
  Sr  Sr6  1  0.504695  0.681451  0.907808  1
  Sr  Sr7  1  0.004695  0.818549  0.592192  1
  Sr  Sr8  1  0.830457  0.515450  0.750000  1
  Sr  Sr9  1  0.330457  0.984550  0.750000  1
  Sr  Sr10  1  0.169543  0.484550  0.250000  1
  Sr  Sr11  1  0.669543  0.015450  0.250000  1
  Y  Y12  1  0.672679  0.169464  0.621882  1
  Y  Y13  1  0.172679  0.330536  0.878118  1
  Y  Y14  1  0.327321  0.830536  0.121882  1
  Y  Y15  1  0.827321  0.669464  0.378118  1
  Y  Y16  1  0.327321  0.830536  0.378118  1
  Y  Y17  1  0.827321  0.669464  0.121882  1
  Y  Y18  1  0.672679  0.169464  0.878118  1
  Y  Y19  1  0.172679  0.330536  0.621882  1
  Sn  Sn20  1  0.662863  0.958131  0.461519  1
  Sn  Sn21  1  0.162863  0.541869  0.038481  1
  Sn  Sn22  1  0.337137  0.041869  0.961519  1
  Sn  Sn23  1  0.837137  0.458131  0.538481  1
  Sn  Sn24  1  0.337137  0.041869  0.538481  1
  Sn  Sn25  1  0.837137  0.458131  0.961519  1
  Sn  Sn26  1  0.662863  0.958131  0.038481  1
  Sn  Sn27  1  0.162863  0.541869  0.461519  1
  Sn  Sn28  1  0.464259  0.361842  0.750000  1
  Sn  Sn29  1  0.964259  0.138158  0.750000  1
  Sn  Sn30  1  0.535741  0.638158  0.250000  1
  Sn  Sn31  1  0.035741  0.861842  0.250000  1
  Sn  Sn32  1  0.722315  0.891034  0.750000  1
  Sn  Sn33  1  0.222315  0.608966  0.750000  1
  Sn  Sn34  1  0.277685  0.108966  0.250000  1
  Sn  Sn35  1  0.777685  0.391034  0.250000  1
