# generated using pymatgen
data_TbNp2U(TaN2)4
_symmetry_space_group_name_H-M   'P 1'
_cell_length_a   3.24998600
_cell_length_b   5.67647100
_cell_length_c   10.97184590
_cell_angle_alpha   90.02244641
_cell_angle_beta   90.00000000
_cell_angle_gamma   90.00000000
_symmetry_Int_Tables_number   1
_chemical_formula_structural   TbNp2U(TaN2)4
_chemical_formula_sum   'Tb1 Np2 U1 Ta4 N8'
_cell_volume   202.41354909
_cell_formula_units_Z   1
loop_
 _symmetry_equiv_pos_site_id
 _symmetry_equiv_pos_as_xyz
  1  'x, y, z'
loop_
 _atom_site_type_symbol
 _atom_site_label
 _atom_site_symmetry_multiplicity
 _atom_site_fract_x
 _atom_site_fract_y
 _atom_site_fract_z
 _atom_site_occupancy
  Tb  Tb0  1  0.750000  0.919524  0.356973  1
  Np  Np1  1  0.250000  0.577769  0.860251  1
  Np  Np2  1  0.750000  0.420309  0.139954  1
  U  U3  1  0.250000  0.078218  0.638454  1
  Ta  Ta4  1  0.250000  0.921343  0.105999  1
  Ta  Ta5  1  0.750000  0.077474  0.895581  1
  Ta  Ta6  1  0.750000  0.577957  0.604688  1
  Ta  Ta7  1  0.250000  0.424761  0.396933  1
  N  N8  1  0.250000  0.660442  0.245674  1
  N  N9  1  0.750000  0.334893  0.753608  1
  N  N10  1  0.750000  0.841938  0.743619  1
  N  N11  1  0.250000  0.165256  0.254114  1
  N  N12  1  0.250000  0.756961  0.507708  1
  N  N13  1  0.750000  0.242943  0.496230  1
  N  N14  1  0.750000  0.747745  0.006235  1
  N  N15  1  0.250000  0.252466  0.993977  1
