# generated using pymatgen
data_NpUB4
_symmetry_space_group_name_H-M   'P 1'
_cell_length_a   3.06960600
_cell_length_b   3.06965000
_cell_length_c   8.00629500
_cell_angle_alpha   90.00000000
_cell_angle_beta   90.00000000
_cell_angle_gamma   60.00045256
_symmetry_Int_Tables_number   1
_chemical_formula_structural   NpUB4
_chemical_formula_sum   'Np1 U1 B4'
_cell_volume   65.33346547
_cell_formula_units_Z   1
loop_
 _symmetry_equiv_pos_site_id
 _symmetry_equiv_pos_as_xyz
  1  'x, y, z'
loop_
 _atom_site_type_symbol
 _atom_site_label
 _atom_site_symmetry_multiplicity
 _atom_site_fract_x
 _atom_site_fract_y
 _atom_site_fract_z
 _atom_site_occupancy
  Np  Np0  1  0.999961  0.000000  0.000000  1
  U  U1  1  0.999966  0.000000  0.500000  1
  B  B2  1  0.666633  0.666670  0.248966  1
  B  B3  1  0.666633  0.666670  0.751034  1
  B  B4  1  0.333303  0.333330  0.248966  1
  B  B5  1  0.333303  0.333330  0.751034  1
