# generated using pymatgen
data_Er5Tm5(RuPb3)2
_symmetry_space_group_name_H-M   'P 1'
_cell_length_a   9.23451706
_cell_length_b   9.23451679
_cell_length_c   6.51945600
_cell_angle_alpha   90.00000000
_cell_angle_beta   90.00000000
_cell_angle_gamma   119.98653097
_symmetry_Int_Tables_number   1
_chemical_formula_structural   Er5Tm5(RuPb3)2
_chemical_formula_sum   'Er5 Tm5 Ru2 Pb6'
_cell_volume   481.53657735
_cell_formula_units_Z   1
loop_
 _symmetry_equiv_pos_site_id
 _symmetry_equiv_pos_as_xyz
  1  'x, y, z'
loop_
 _atom_site_type_symbol
 _atom_site_label
 _atom_site_symmetry_multiplicity
 _atom_site_fract_x
 _atom_site_fract_y
 _atom_site_fract_z
 _atom_site_occupancy
  Er  Er0  1  0.764187  0.764187  0.750000  1
  Er  Er1  1  0.666628  0.333251  0.999990  1
  Er  Er2  1  0.333251  0.666628  0.999990  1
  Er  Er3  1  0.333251  0.666628  0.500010  1
  Er  Er4  1  0.666628  0.333251  0.500010  1
  Tm  Tm5  1  0.235616  0.000012  0.750000  1
  Tm  Tm6  1  0.000012  0.235616  0.750000  1
  Tm  Tm7  1  0.235557  0.235557  0.250000  1
  Tm  Tm8  1  0.764477  0.999996  0.250000  1
  Tm  Tm9  1  0.999996  0.764477  0.250000  1
  Ru  Ru10  1  0.000364  0.000364  0.000320  1
  Ru  Ru11  1  0.000364  0.000364  0.499680  1
  Pb  Pb12  1  0.403417  0.403417  0.750000  1
  Pb  Pb13  1  0.596263  0.000137  0.750000  1
  Pb  Pb14  1  0.000137  0.596263  0.750000  1
  Pb  Pb15  1  0.596318  0.596318  0.250000  1
  Pb  Pb16  1  0.403571  0.999963  0.250000  1
  Pb  Pb17  1  0.999963  0.403571  0.250000  1
