# generated using pymatgen
data_Be3Si3RuRh5
_symmetry_space_group_name_H-M   'P 1'
_cell_length_a   4.04105401
_cell_length_b   5.76164900
_cell_length_c   12.18401103
_cell_angle_alpha   90.00000000
_cell_angle_beta   90.00781172
_cell_angle_gamma   90.00000000
_symmetry_Int_Tables_number   1
_chemical_formula_structural   Be3Si3RuRh5
_chemical_formula_sum   'Be6 Si6 Ru2 Rh10'
_cell_volume   283.68196844
_cell_formula_units_Z   2
loop_
 _symmetry_equiv_pos_site_id
 _symmetry_equiv_pos_as_xyz
  1  'x, y, z'
loop_
 _atom_site_type_symbol
 _atom_site_label
 _atom_site_symmetry_multiplicity
 _atom_site_fract_x
 _atom_site_fract_y
 _atom_site_fract_z
 _atom_site_occupancy
  Be  Be0  1  0.999984  0.500001  0.995059  1
  Be  Be1  1  0.499823  0.000000  0.165253  1
  Be  Be2  1  0.999856  0.500001  0.333332  1
  Be  Be3  1  0.499971  0.000000  0.501410  1
  Be  Be4  1  0.000184  0.500001  0.671606  1
  Be  Be5  1  0.500093  0.000000  0.833333  1
  Si  Si6  1  0.999994  0.000000  0.994331  1
  Si  Si7  1  0.499878  0.500001  0.166442  1
  Si  Si8  1  0.999920  0.000000  0.333332  1
  Si  Si9  1  0.499958  0.500001  0.500222  1
  Si  Si10  1  0.000139  0.000000  0.672337  1
  Si  Si11  1  0.500038  0.500001  0.833333  1
  Ru  Ru12  1  0.000103  0.251292  0.833338  1
  Ru  Ru13  1  0.000103  0.748708  0.833338  1
  Rh  Rh14  1  0.500020  0.250211  0.003754  1
  Rh  Rh15  1  0.500020  0.749789  0.003754  1
  Rh  Rh16  1  0.999939  0.249312  0.168263  1
  Rh  Rh17  1  0.999939  0.750688  0.168263  1
  Rh  Rh18  1  0.499917  0.250134  0.333332  1
  Rh  Rh19  1  0.499917  0.749867  0.333332  1
  Rh  Rh20  1  0.000021  0.249315  0.498401  1
  Rh  Rh21  1  0.000021  0.750685  0.498401  1
  Rh  Rh22  1  0.500083  0.250218  0.662917  1
  Rh  Rh23  1  0.500083  0.749783  0.662917  1
