# generated using pymatgen
data_Nd12OsPd2Rh
_symmetry_space_group_name_H-M   'P 1'
_cell_length_a   6.57895287
_cell_length_b   7.37945290
_cell_length_c   9.95821700
_cell_angle_alpha   90.00000000
_cell_angle_beta   90.00000000
_cell_angle_gamma   90.18362356
_symmetry_Int_Tables_number   1
_chemical_formula_structural   Nd12OsPd2Rh
_chemical_formula_sum   'Nd12 Os1 Pd2 Rh1'
_cell_volume   483.45971903
_cell_formula_units_Z   1
loop_
 _symmetry_equiv_pos_site_id
 _symmetry_equiv_pos_as_xyz
  1  'x, y, z'
loop_
 _atom_site_type_symbol
 _atom_site_label
 _atom_site_symmetry_multiplicity
 _atom_site_fract_x
 _atom_site_fract_y
 _atom_site_fract_z
 _atom_site_occupancy
  Nd  Nd0  1  0.329580  0.681522  0.058523  1
  Nd  Nd1  1  0.163905  0.172084  0.435130  1
  Nd  Nd2  1  0.664899  0.328758  0.565823  1
  Nd  Nd3  1  0.824931  0.816913  0.936969  1
  Nd  Nd4  1  0.664899  0.328758  0.934177  1
  Nd  Nd5  1  0.824931  0.816913  0.563031  1
  Nd  Nd6  1  0.329580  0.681522  0.441477  1
  Nd  Nd7  1  0.163905  0.172084  0.064870  1
  Nd  Nd8  1  0.869554  0.535803  0.250000  1
  Nd  Nd9  1  0.643698  0.027036  0.250000  1
  Nd  Nd10  1  0.143689  0.475806  0.750000  1
  Nd  Nd11  1  0.371189  0.961071  0.750000  1
  Os  Os12  1  0.564883  0.617879  0.750000  1
  Pd  Pd13  1  0.431589  0.387703  0.250000  1
  Pd  Pd14  1  0.937562  0.114245  0.750000  1
  Rh  Rh15  1  0.071206  0.881901  0.250000  1
