# generated using pymatgen
data_Er5Tm3Sc8(Ga3Co)2
_symmetry_space_group_name_H-M   'P 1'
_cell_length_a   9.53818002
_cell_length_b   9.53817896
_cell_length_c   6.79133300
_cell_angle_alpha   89.99678470
_cell_angle_beta   90.00320693
_cell_angle_gamma   119.98919553
_symmetry_Int_Tables_number   1
_chemical_formula_structural   Er5Tm3Sc8(Ga3Co)2
_chemical_formula_sum   'Er5 Tm3 Sc8 Ga6 Co2'
_cell_volume   535.13568293
_cell_formula_units_Z   1
loop_
 _symmetry_equiv_pos_site_id
 _symmetry_equiv_pos_as_xyz
  1  'x, y, z'
loop_
 _atom_site_type_symbol
 _atom_site_label
 _atom_site_symmetry_multiplicity
 _atom_site_fract_x
 _atom_site_fract_y
 _atom_site_fract_z
 _atom_site_occupancy
  Er  Er0  1  0.466062  0.533938  0.288585  1
  Er  Er1  1  0.931548  0.465823  0.788529  1
  Er  Er2  1  0.534177  0.068452  0.788529  1
  Er  Er3  1  0.466025  0.931925  0.288559  1
  Er  Er4  1  0.068075  0.533975  0.288559  1
  Tm  Tm5  1  0.534116  0.465884  0.789031  1
  Tm  Tm6  1  0.000032  0.999968  0.270923  1
  Tm  Tm7  1  0.000047  0.999953  0.770981  1
  Sc  Sc8  1  0.174180  0.825820  0.987507  1
  Sc  Sc9  1  0.348529  0.174435  0.487906  1
  Sc  Sc10  1  0.825565  0.651471  0.487906  1
  Sc  Sc11  1  0.174454  0.348426  0.987300  1
  Sc  Sc12  1  0.651574  0.825546  0.987300  1
  Sc  Sc13  1  0.825806  0.174194  0.487633  1
  Sc  Sc14  1  0.333432  0.666568  0.675182  1
  Sc  Sc15  1  0.666531  0.333469  0.174992  1
  Ga  Ga16  1  0.163398  0.836602  0.548581  1
  Ga  Ga17  1  0.327063  0.163659  0.048547  1
  Ga  Ga18  1  0.836341  0.672937  0.048547  1
  Ga  Ga19  1  0.163447  0.326820  0.548909  1
  Ga  Ga20  1  0.673180  0.836553  0.548909  1
  Ga  Ga21  1  0.836621  0.163379  0.048872  1
  Co  Co22  1  0.333388  0.666612  0.041018  1
  Co  Co23  1  0.666411  0.333589  0.541203  1
