# generated using pymatgen
data_HfTa17(NiP2)4
_symmetry_space_group_name_H-M   'P 1'
_cell_length_a   11.50488108
_cell_length_b   11.50488108
_cell_length_c   3.47211500
_cell_angle_alpha   90.00000000
_cell_angle_beta   90.00000000
_cell_angle_gamma   89.82070536
_symmetry_Int_Tables_number   1
_chemical_formula_structural   HfTa17(NiP2)4
_chemical_formula_sum   'Hf1 Ta17 Ni4 P8'
_cell_volume   459.57483793
_cell_formula_units_Z   1
loop_
 _symmetry_equiv_pos_site_id
 _symmetry_equiv_pos_as_xyz
  1  'x, y, z'
loop_
 _atom_site_type_symbol
 _atom_site_label
 _atom_site_symmetry_multiplicity
 _atom_site_fract_x
 _atom_site_fract_y
 _atom_site_fract_z
 _atom_site_occupancy
  Hf  Hf0  1  0.392564  0.107436  0.500000  1
  Ta  Ta1  1  0.999533  0.999382  0.000000  1
  Ta  Ta2  1  0.500618  0.500467  0.000000  1
  Ta  Ta3  1  0.102679  0.182136  0.500000  1
  Ta  Ta4  1  0.181199  0.894322  0.500000  1
  Ta  Ta5  1  0.817600  0.103180  0.500000  1
  Ta  Ta6  1  0.895437  0.817242  0.500000  1
  Ta  Ta7  1  0.396820  0.682400  0.500000  1
  Ta  Ta8  1  0.605678  0.318801  0.500000  1
  Ta  Ta9  1  0.682758  0.604563  0.500000  1
  Ta  Ta10  1  0.317864  0.397321  0.500000  1
  Ta  Ta11  1  0.102040  0.397960  0.000000  1
  Ta  Ta12  1  0.396919  0.894376  0.000000  1
  Ta  Ta13  1  0.605624  0.103081  0.000000  1
  Ta  Ta14  1  0.898014  0.601986  0.000000  1
  Ta  Ta15  1  0.105701  0.606061  0.500000  1
  Ta  Ta16  1  0.893939  0.394299  0.500000  1
  Ta  Ta17  1  0.605938  0.894062  0.500000  1
  Ni  Ni18  1  0.264068  0.235932  0.000000  1
  Ni  Ni19  1  0.233762  0.733193  0.000000  1
  Ni  Ni20  1  0.766807  0.266238  0.000000  1
  Ni  Ni21  1  0.734645  0.765355  0.000000  1
  P  P22  1  0.224438  0.050348  0.000000  1
  P  P23  1  0.050928  0.773329  0.000000  1
  P  P24  1  0.948755  0.226440  0.000000  1
  P  P25  1  0.773767  0.947976  0.000000  1
  P  P26  1  0.273560  0.551245  0.000000  1
  P  P27  1  0.726671  0.449072  0.000000  1
  P  P28  1  0.552024  0.726233  0.000000  1
  P  P29  1  0.449652  0.275562  0.000000  1
