# generated using pymatgen
data_Mn2Zn22Ru
_symmetry_space_group_name_H-M   'P 1'
_cell_length_a   7.77175248
_cell_length_b   7.77175246
_cell_length_c   7.82265033
_cell_angle_alpha   72.50136385
_cell_angle_beta   72.50136202
_cell_angle_gamma   58.30993504
_symmetry_Int_Tables_number   1
_chemical_formula_structural   Mn2Zn22Ru
_chemical_formula_sum   'Mn2 Zn22 Ru1'
_cell_volume   377.46038857
_cell_formula_units_Z   1
loop_
 _symmetry_equiv_pos_site_id
 _symmetry_equiv_pos_as_xyz
  1  'x, y, z'
loop_
 _atom_site_type_symbol
 _atom_site_label
 _atom_site_symmetry_multiplicity
 _atom_site_fract_x
 _atom_site_fract_y
 _atom_site_fract_z
 _atom_site_occupancy
  Mn  Mn0  1  0.654740  0.654740  0.058263  1
  Mn  Mn1  1  0.345260  0.345260  0.941737  1
  Zn  Zn2  1  0.343810  0.742114  0.313011  1
  Zn  Zn3  1  0.656190  0.257886  0.686989  1
  Zn  Zn4  1  0.257886  0.656190  0.686989  1
  Zn  Zn5  1  0.742114  0.343810  0.313011  1
  Zn  Zn6  1  0.679063  0.320937  0.000000  1
  Zn  Zn7  1  0.320937  0.679063  0.000000  1
  Zn  Zn8  1  0.828883  0.828883  0.786080  1
  Zn  Zn9  1  0.171117  0.171117  0.213920  1
  Zn  Zn10  1  0.977273  0.977273  0.174421  1
  Zn  Zn11  1  0.022727  0.022727  0.825579  1
  Zn  Zn12  1  0.353328  0.353328  0.274123  1
  Zn  Zn13  1  0.646672  0.646672  0.725877  1
  Zn  Zn14  1  0.687497  0.687497  0.374968  1
  Zn  Zn15  1  0.312503  0.312503  0.625032  1
  Zn  Zn16  1  0.659171  0.025216  0.463653  1
  Zn  Zn17  1  0.340829  0.974784  0.536347  1
  Zn  Zn18  1  0.974784  0.340829  0.536347  1
  Zn  Zn19  1  0.025216  0.659171  0.463653  1
  Zn  Zn20  1  0.617274  0.998942  0.102082  1
  Zn  Zn21  1  0.382726  0.001058  0.897918  1
  Zn  Zn22  1  0.001058  0.382726  0.897918  1
  Zn  Zn23  1  0.998942  0.617274  0.102082  1
  Ru  Ru24  1  0.000000  0.000000  0.500000  1
