# generated using pymatgen
data_Ca2SnSbPd2
_symmetry_space_group_name_H-M   'P 1'
_cell_length_a   4.67178200
_cell_length_b   7.43534845
_cell_length_c   8.03013975
_cell_angle_alpha   87.98901587
_cell_angle_beta   90.00000000
_cell_angle_gamma   90.00000000
_symmetry_Int_Tables_number   1
_chemical_formula_structural   Ca2SnSbPd2
_chemical_formula_sum   'Ca4 Sn2 Sb2 Pd4'
_cell_volume   278.76576798
_cell_formula_units_Z   2
loop_
 _symmetry_equiv_pos_site_id
 _symmetry_equiv_pos_as_xyz
  1  'x, y, z'
loop_
 _atom_site_type_symbol
 _atom_site_label
 _atom_site_symmetry_multiplicity
 _atom_site_fract_x
 _atom_site_fract_y
 _atom_site_fract_z
 _atom_site_occupancy
  Ca  Ca0  1  0.750000  0.482961  0.795612  1
  Ca  Ca1  1  0.250000  0.517039  0.204388  1
  Ca  Ca2  1  0.250000  0.011422  0.308414  1
  Ca  Ca3  1  0.750000  0.988578  0.691586  1
  Sn  Sn4  1  0.750000  0.818709  0.082603  1
  Sn  Sn5  1  0.250000  0.181291  0.917397  1
  Sb  Sb6  1  0.750000  0.311029  0.408388  1
  Sb  Sb7  1  0.250000  0.688971  0.591612  1
  Pd  Pd8  1  0.750000  0.198019  0.090773  1
  Pd  Pd9  1  0.750000  0.697663  0.410073  1
  Pd  Pd10  1  0.250000  0.801981  0.909227  1
  Pd  Pd11  1  0.250000  0.302337  0.589927  1
