# generated using pymatgen
data_CrCd3P7N12
_symmetry_space_group_name_H-M   'P 1'
_cell_length_a   7.29321601
_cell_length_b   7.34967200
_cell_length_c   7.34967308
_cell_angle_alpha   109.62629476
_cell_angle_beta   109.31569638
_cell_angle_gamma   109.31569806
_symmetry_Int_Tables_number   1
_chemical_formula_structural   CrCd3P7N12
_chemical_formula_sum   'Cr1 Cd3 P7 N12'
_cell_volume   303.85272926
_cell_formula_units_Z   1
loop_
 _symmetry_equiv_pos_site_id
 _symmetry_equiv_pos_as_xyz
  1  'x, y, z'
loop_
 _atom_site_type_symbol
 _atom_site_label
 _atom_site_symmetry_multiplicity
 _atom_site_fract_x
 _atom_site_fract_y
 _atom_site_fract_z
 _atom_site_occupancy
  Cr  Cr0  1  0.629357  0.000000  0.000000  1
  Cd  Cd1  1  0.999183  0.000000  0.685831  1
  Cd  Cd2  1  0.999183  0.685831  0.000000  1
  Cd  Cd3  1  0.313352  0.314169  0.314169  1
  P  P4  1  0.255677  0.748675  0.500366  1
  P  P5  1  0.755310  0.248308  0.499634  1
  P  P6  1  0.755310  0.499634  0.248308  1
  P  P7  1  0.255677  0.500366  0.748675  1
  P  P8  1  0.507002  0.751692  0.251325  1
  P  P9  1  0.507002  0.251325  0.751692  1
  P  P10  1  0.948430  0.000000  0.000000  1
  N  N11  1  0.711630  0.274112  0.274112  1
  N  N12  1  0.289884  0.718109  0.285217  1
  N  N13  1  0.303334  0.577403  0.577403  1
  N  N14  1  0.571775  0.567108  0.281891  1
  N  N15  1  0.437519  0.725888  0.000000  1
  N  N16  1  0.004668  0.714783  0.432892  1
  N  N17  1  0.571775  0.281891  0.567108  1
  N  N18  1  0.725932  0.000000  0.422597  1
  N  N19  1  0.437519  0.000000  0.725888  1
  N  N20  1  0.725932  0.422597  0.000000  1
  N  N21  1  0.289884  0.285217  0.718109  1
  N  N22  1  0.004668  0.432892  0.714783  1
