# generated using pymatgen
data_TbYNb2(SbRh)4
_symmetry_space_group_name_H-M   'P 1'
_cell_length_a   4.50285600
_cell_length_b   6.38105300
_cell_length_c   9.02071800
_cell_angle_alpha   89.99726960
_cell_angle_beta   90.00000000
_cell_angle_gamma   90.00000000
_symmetry_Int_Tables_number   1
_chemical_formula_structural   TbYNb2(SbRh)4
_chemical_formula_sum   'Tb1 Y1 Nb2 Sb4 Rh4'
_cell_volume   259.19195446
_cell_formula_units_Z   1
loop_
 _symmetry_equiv_pos_site_id
 _symmetry_equiv_pos_as_xyz
  1  'x, y, z'
loop_
 _atom_site_type_symbol
 _atom_site_label
 _atom_site_symmetry_multiplicity
 _atom_site_fract_x
 _atom_site_fract_y
 _atom_site_fract_z
 _atom_site_occupancy
  Tb  Tb0  1  0.000000  0.005779  0.375902  1
  Y  Y1  1  0.500001  0.505799  0.624038  1
  Nb  Nb2  1  0.500001  0.494248  0.121435  1
  Nb  Nb3  1  0.000000  0.994265  0.878571  1
  Sb  Sb4  1  0.500001  0.984817  0.123609  1
  Sb  Sb5  1  0.000000  0.510432  0.370573  1
  Sb  Sb6  1  0.500001  0.010427  0.629683  1
  Sb  Sb7  1  0.000000  0.484826  0.876172  1
  Rh  Rh8  1  0.000000  0.734028  0.110144  1
  Rh  Rh9  1  0.500001  0.270508  0.351715  1
  Rh  Rh10  1  0.000000  0.770867  0.648225  1
  Rh  Rh11  1  0.500001  0.233998  0.889938  1
