# generated using pymatgen
data_Dy5Ho2Er13Sn16
_symmetry_space_group_name_H-M   'P 1'
_cell_length_a   8.00185901
_cell_length_b   8.13429793
_cell_length_c   15.37758600
_cell_angle_alpha   90.01556664
_cell_angle_beta   90.09925625
_cell_angle_gamma   89.95387190
_symmetry_Int_Tables_number   1
_chemical_formula_structural   Dy5Ho2Er13Sn16
_chemical_formula_sum   'Dy5 Ho2 Er13 Sn16'
_cell_volume   1000.91760081
_cell_formula_units_Z   1
loop_
 _symmetry_equiv_pos_site_id
 _symmetry_equiv_pos_as_xyz
  1  'x, y, z'
loop_
 _atom_site_type_symbol
 _atom_site_label
 _atom_site_symmetry_multiplicity
 _atom_site_fract_x
 _atom_site_fract_y
 _atom_site_fract_z
 _atom_site_occupancy
  Dy  Dy0  1  0.979345  0.820810  0.096940  1
  Dy  Dy1  1  0.479347  0.678820  0.096857  1
  Dy  Dy2  1  0.979787  0.820873  0.403282  1
  Dy  Dy3  1  0.519984  0.321161  0.596806  1
  Dy  Dy4  1  0.020601  0.179307  0.902999  1
  Ho  Ho5  1  0.020316  0.179164  0.597124  1
  Ho  Ho6  1  0.479729  0.678976  0.403150  1
  Er  Er7  1  0.367054  0.837510  0.877189  1
  Er  Er8  1  0.866314  0.662617  0.622792  1
  Er  Er9  1  0.633232  0.162603  0.377190  1
  Er  Er10  1  0.132719  0.337721  0.122570  1
  Er  Er11  1  0.632579  0.162414  0.122668  1
  Er  Er12  1  0.133389  0.337441  0.377325  1
  Er  Er13  1  0.366763  0.837583  0.622924  1
  Er  Er14  1  0.867262  0.662465  0.877280  1
  Er  Er15  1  0.521653  0.321374  0.902637  1
  Er  Er16  1  0.198245  0.503533  0.750090  1
  Er  Er17  1  0.698197  0.996506  0.750074  1
  Er  Er18  1  0.801841  0.496108  0.249968  1
  Er  Er19  1  0.301942  0.003649  0.250049  1
  Sn  Sn20  1  0.293573  0.038019  0.041769  1
  Sn  Sn21  1  0.793904  0.461665  0.458161  1
  Sn  Sn22  1  0.706106  0.962090  0.541416  1
  Sn  Sn23  1  0.207561  0.537111  0.958361  1
  Sn  Sn24  1  0.706031  0.962333  0.958605  1
  Sn  Sn25  1  0.205460  0.538636  0.541238  1
  Sn  Sn26  1  0.294181  0.038395  0.458377  1
  Sn  Sn27  1  0.793130  0.461431  0.041366  1
  Sn  Sn28  1  0.564300  0.618952  0.750165  1
  Sn  Sn29  1  0.064201  0.881020  0.749987  1
  Sn  Sn30  1  0.435420  0.380837  0.249853  1
  Sn  Sn31  1  0.935864  0.119264  0.249834  1
  Sn  Sn32  1  0.330638  0.148808  0.750372  1
  Sn  Sn33  1  0.830201  0.351269  0.749883  1
  Sn  Sn34  1  0.669388  0.851179  0.250317  1
  Sn  Sn35  1  0.169745  0.648355  0.250379  1
