# generated using pymatgen
data_Dy3HoNi2C5
_symmetry_space_group_name_H-M   'P 1'
_cell_length_a   3.63688000
_cell_length_b   3.69245715
_cell_length_c   11.62297313
_cell_angle_alpha   90.02480668
_cell_angle_beta   90.00000000
_cell_angle_gamma   90.00000000
_symmetry_Int_Tables_number   1
_chemical_formula_structural   Dy3HoNi2C5
_chemical_formula_sum   'Dy3 Ho1 Ni2 C5'
_cell_volume   156.08516528
_cell_formula_units_Z   1
loop_
 _symmetry_equiv_pos_site_id
 _symmetry_equiv_pos_as_xyz
  1  'x, y, z'
loop_
 _atom_site_type_symbol
 _atom_site_label
 _atom_site_symmetry_multiplicity
 _atom_site_fract_x
 _atom_site_fract_y
 _atom_site_fract_z
 _atom_site_occupancy
  Dy  Dy0  1  0.500000  0.503476  0.203493  1
  Dy  Dy1  1  0.500000  0.206872  0.500323  1
  Dy  Dy2  1  0.000000  0.999249  0.999279  1
  Ho  Ho3  1  0.500000  0.502503  0.796140  1
  Ni  Ni4  1  0.000000  0.698713  0.383781  1
  Ni  Ni5  1  0.000000  0.699112  0.616765  1
  C  C6  1  0.000000  0.000839  0.230313  1
  C  C7  1  0.000000  0.000550  0.770194  1
  C  C8  1  0.000000  0.197329  0.332479  1
  C  C9  1  0.000000  0.198068  0.667966  1
  C  C10  1  0.500000  0.494785  0.999269  1
