# generated using pymatgen
data_Ho16Sc4RuRh11
_symmetry_space_group_name_H-M   'P 1'
_cell_length_a   10.77455640
_cell_length_b   10.77455876
_cell_length_c   6.24236700
_cell_angle_alpha   90.01559679
_cell_angle_beta   90.01567124
_cell_angle_gamma   90.01483741
_symmetry_Int_Tables_number   1
_chemical_formula_structural   Ho16Sc4RuRh11
_chemical_formula_sum   'Ho16 Sc4 Ru1 Rh11'
_cell_volume   724.68311771
_cell_formula_units_Z   1
loop_
 _symmetry_equiv_pos_site_id
 _symmetry_equiv_pos_as_xyz
  1  'x, y, z'
loop_
 _atom_site_type_symbol
 _atom_site_label
 _atom_site_symmetry_multiplicity
 _atom_site_fract_x
 _atom_site_fract_y
 _atom_site_fract_z
 _atom_site_occupancy
  Ho  Ho0  1  0.287486  0.086276  0.378803  1
  Ho  Ho1  1  0.287728  0.912018  0.878695  1
  Ho  Ho2  1  0.712497  0.086077  0.878842  1
  Ho  Ho3  1  0.712496  0.913695  0.378815  1
  Ho  Ho4  1  0.584746  0.786657  0.878385  1
  Ho  Ho5  1  0.586339  0.212665  0.379369  1
  Ho  Ho6  1  0.413235  0.786506  0.379474  1
  Ho  Ho7  1  0.413592  0.212360  0.878704  1
  Ho  Ho8  1  0.213338  0.415252  0.621616  1
  Ho  Ho9  1  0.213492  0.586763  0.120525  1
  Ho  Ho10  1  0.787336  0.413659  0.120628  1
  Ho  Ho11  1  0.787640  0.586407  0.621299  1
  Ho  Ho12  1  0.913723  0.712512  0.121200  1
  Ho  Ho13  1  0.913923  0.287501  0.621160  1
  Ho  Ho14  1  0.087981  0.712272  0.621300  1
  Ho  Ho15  1  0.086303  0.287504  0.121186  1
  Sc  Sc16  1  0.999955  0.999914  0.500060  1
  Sc  Sc17  1  0.000081  0.000052  0.999931  1
  Sc  Sc18  1  0.499104  0.500605  0.998870  1
  Sc  Sc19  1  0.499398  0.500883  0.501125  1
  Ru  Ru20  1  0.352424  0.647571  0.750001  1
  Rh  Rh21  1  0.852254  0.147767  0.250013  1
  Rh  Rh22  1  0.852296  0.852200  0.749860  1
  Rh  Rh23  1  0.147805  0.147700  0.750175  1
  Rh  Rh24  1  0.146885  0.853126  0.249986  1
  Rh  Rh25  1  0.648005  0.351999  0.750007  1
  Rh  Rh26  1  0.648760  0.647621  0.249820  1
  Rh  Rh27  1  0.352380  0.351239  0.250162  1
  Rh  Rh28  1  0.500121  0.000738  0.124338  1
  Rh  Rh29  1  0.500101  0.000702  0.623612  1
  Rh  Rh30  1  0.999309  0.499889  0.876380  1
  Rh  Rh31  1  0.999265  0.499871  0.375658  1
