# generated using pymatgen
data_Pr19DySi15Se
_symmetry_space_group_name_H-M   'P 1'
_cell_length_a   7.93715740
_cell_length_b   7.89772627
_cell_length_c   15.35665550
_cell_angle_alpha   89.76499471
_cell_angle_beta   89.22959808
_cell_angle_gamma   89.90263803
_symmetry_Int_Tables_number   1
_chemical_formula_structural   Pr19DySi15Se
_chemical_formula_sum   'Pr19 Dy1 Si15 Se1'
_cell_volume   962.54315664
_cell_formula_units_Z   1
loop_
 _symmetry_equiv_pos_site_id
 _symmetry_equiv_pos_as_xyz
  1  'x, y, z'
loop_
 _atom_site_type_symbol
 _atom_site_label
 _atom_site_symmetry_multiplicity
 _atom_site_fract_x
 _atom_site_fract_y
 _atom_site_fract_z
 _atom_site_occupancy
  Pr  Pr0  1  0.188776  0.807879  0.249196  1
  Pr  Pr1  1  0.800871  0.190747  0.752048  1
  Pr  Pr2  1  0.687673  0.689412  0.497634  1
  Pr  Pr3  1  0.379858  0.006883  0.443537  1
  Pr  Pr4  1  0.491046  0.875746  0.698600  1
  Pr  Pr5  1  0.509435  0.121761  0.195513  1
  Pr  Pr6  1  0.876632  0.486490  0.300903  1
  Pr  Pr7  1  0.124144  0.510089  0.803924  1
  Pr  Pr8  1  0.630138  0.985989  0.950535  1
  Pr  Pr9  1  0.000412  0.380059  0.548745  1
  Pr  Pr10  1  0.990849  0.621982  0.052928  1
  Pr  Pr11  1  0.137146  0.987189  0.873765  1
  Pr  Pr12  1  0.518134  0.628854  0.125597  1
  Pr  Pr13  1  0.477353  0.371180  0.631342  1
  Pr  Pr14  1  0.632825  0.521816  0.876122  1
  Pr  Pr15  1  0.370852  0.478061  0.373268  1
  Pr  Pr16  1  0.871020  0.019707  0.376445  1
  Pr  Pr17  1  0.982209  0.128327  0.123814  1
  Pr  Pr18  1  0.015243  0.868876  0.621941  1
  Dy  Dy19  1  0.313600  0.310663  0.999834  1
  Si  Si20  1  0.329384  0.693664  0.952514  1
  Si  Si21  1  0.663074  0.304733  0.454699  1
  Si  Si22  1  0.697229  0.332940  0.048589  1
  Si  Si23  1  0.303586  0.667220  0.548824  1
  Si  Si24  1  0.804048  0.831726  0.202415  1
  Si  Si25  1  0.168363  0.194783  0.296209  1
  Si  Si26  1  0.839776  0.804310  0.797120  1
  Si  Si27  1  0.288216  0.926505  0.057337  1
  Si  Si28  1  0.577312  0.785829  0.308565  1
  Si  Si29  1  0.445468  0.213533  0.826928  1
  Si  Si30  1  0.788249  0.578778  0.689264  1
  Si  Si31  1  0.213773  0.419623  0.186918  1
  Si  Si32  1  0.703387  0.075896  0.561144  1
  Si  Si33  1  0.931198  0.290930  0.941397  1
  Si  Si34  1  0.077359  0.711055  0.440410  1
  Se  Se35  1  0.171361  0.176768  0.691974  1
