# generated using pymatgen
data_Zr6Zn18BiIr5
_symmetry_space_group_name_H-M   'P 1'
_cell_length_a   8.85224467
_cell_length_b   8.85224294
_cell_length_c   8.85224500
_cell_angle_alpha   59.79983353
_cell_angle_beta   59.79983257
_cell_angle_gamma   59.79983472
_symmetry_Int_Tables_number   1
_chemical_formula_structural   Zr6Zn18BiIr5
_chemical_formula_sum   'Zr6 Zn18 Bi1 Ir5'
_cell_volume   488.27810420
_cell_formula_units_Z   1
loop_
 _symmetry_equiv_pos_site_id
 _symmetry_equiv_pos_as_xyz
  1  'x, y, z'
loop_
 _atom_site_type_symbol
 _atom_site_label
 _atom_site_symmetry_multiplicity
 _atom_site_fract_x
 _atom_site_fract_y
 _atom_site_fract_z
 _atom_site_occupancy
  Zr  Zr0  1  0.728151  0.266653  0.266653  1
  Zr  Zr1  1  0.271849  0.733347  0.733347  1
  Zr  Zr2  1  0.266653  0.728151  0.266653  1
  Zr  Zr3  1  0.733347  0.271849  0.733347  1
  Zr  Zr4  1  0.266653  0.266653  0.728151  1
  Zr  Zr5  1  0.733347  0.733347  0.271849  1
  Zn  Zn6  1  0.128570  0.128570  0.610992  1
  Zn  Zn7  1  0.128570  0.610992  0.128570  1
  Zn  Zn8  1  0.871430  0.871430  0.389008  1
  Zn  Zn9  1  0.871430  0.389008  0.871430  1
  Zn  Zn10  1  0.610992  0.128570  0.128570  1
  Zn  Zn11  1  0.389008  0.871430  0.871430  1
  Zn  Zn12  1  0.500000  0.000000  0.000000  1
  Zn  Zn13  1  0.000000  0.500000  0.000000  1
  Zn  Zn14  1  0.000000  0.000000  0.500000  1
  Zn  Zn15  1  0.342481  0.342481  0.342481  1
  Zn  Zn16  1  0.657519  0.657519  0.657519  1
  Zn  Zn17  1  0.336919  0.336919  0.978343  1
  Zn  Zn18  1  0.336919  0.978343  0.336919  1
  Zn  Zn19  1  0.663081  0.663081  0.021657  1
  Zn  Zn20  1  0.663081  0.021657  0.663081  1
  Zn  Zn21  1  0.978343  0.336919  0.336919  1
  Zn  Zn22  1  0.021657  0.663081  0.663081  1
  Zn  Zn23  1  0.000000  0.000000  0.000000  1
  Bi  Bi24  1  0.500000  0.500000  0.500000  1
  Ir  Ir25  1  0.118166  0.118166  0.118166  1
  Ir  Ir26  1  0.881834  0.881834  0.881834  1
  Ir  Ir27  1  0.000000  0.500000  0.500000  1
  Ir  Ir28  1  0.500000  0.000000  0.500000  1
  Ir  Ir29  1  0.500000  0.500000  0.000000  1
