# generated using pymatgen
data_Yb3In2HgPdPt2
_symmetry_space_group_name_H-M   'P 1'
_cell_length_a   7.67772100
_cell_length_b   7.56486448
_cell_length_c   3.98418500
_cell_angle_alpha   90.00000000
_cell_angle_beta   90.00000000
_cell_angle_gamma   120.49474417
_symmetry_Int_Tables_number   1
_chemical_formula_structural   Yb3In2HgPdPt2
_chemical_formula_sum   'Yb3 In2 Hg1 Pd1 Pt2'
_cell_volume   199.39617692
_cell_formula_units_Z   1
loop_
 _symmetry_equiv_pos_site_id
 _symmetry_equiv_pos_as_xyz
  1  'x, y, z'
loop_
 _atom_site_type_symbol
 _atom_site_label
 _atom_site_symmetry_multiplicity
 _atom_site_fract_x
 _atom_site_fract_y
 _atom_site_fract_z
 _atom_site_occupancy
  Yb  Yb0  1  0.414288  0.000000  0.000000  1
  Yb  Yb1  1  0.992017  0.396434  0.000000  1
  Yb  Yb2  1  0.595584  0.603566  0.000000  1
  In  In3  1  0.002515  0.740011  0.500000  1
  In  In4  1  0.262504  0.259989  0.500000  1
  Hg  Hg5  1  0.736231  0.000000  0.500000  1
  Pd  Pd6  1  0.016190  0.000000  0.000000  1
  Pt  Pt7  1  0.317607  0.654544  0.500000  1
  Pt  Pt8  1  0.663064  0.345456  0.500000  1
