# generated using pymatgen
data_Ho3Pa(Al3Rh)6
_symmetry_space_group_name_H-M   'P 1'
_cell_length_a   7.56160900
_cell_length_b   7.55847490
_cell_length_c   9.41122200
_cell_angle_alpha   90.00000000
_cell_angle_beta   90.00000000
_cell_angle_gamma   119.42035987
_symmetry_Int_Tables_number   1
_chemical_formula_structural   Ho3Pa(Al3Rh)6
_chemical_formula_sum   'Ho3 Pa1 Al18 Rh6'
_cell_volume   468.52435143
_cell_formula_units_Z   1
loop_
 _symmetry_equiv_pos_site_id
 _symmetry_equiv_pos_as_xyz
  1  'x, y, z'
loop_
 _atom_site_type_symbol
 _atom_site_label
 _atom_site_symmetry_multiplicity
 _atom_site_fract_x
 _atom_site_fract_y
 _atom_site_fract_z
 _atom_site_occupancy
  Ho  Ho0  1  0.004850  0.327729  0.750000  1
  Ho  Ho1  1  0.674303  0.993817  0.250000  1
  Ho  Ho2  1  0.327766  0.004747  0.750000  1
  Pa  Pa3  1  0.995948  0.673666  0.250000  1
  Al  Al4  1  0.133682  0.132105  0.250000  1
  Al  Al5  1  0.872317  0.874053  0.750000  1
  Al  Al6  1  0.000484  0.333312  0.075071  1
  Al  Al7  1  0.999136  0.663856  0.920016  1
  Al  Al8  1  0.999136  0.663856  0.579984  1
  Al  Al9  1  0.339603  0.003723  0.424679  1
  Al  Al10  1  0.000484  0.333312  0.424929  1
  Al  Al11  1  0.664364  0.000264  0.576854  1
  Al  Al12  1  0.664364  0.000264  0.923146  1
  Al  Al13  1  0.339603  0.003723  0.075321  1
  Al  Al14  1  0.331687  0.332044  0.555667  1
  Al  Al15  1  0.663351  0.665442  0.451392  1
  Al  Al16  1  0.663351  0.665442  0.048608  1
  Al  Al17  1  0.331687  0.332044  0.944333  1
  Al  Al18  1  0.339810  0.549170  0.250000  1
  Al  Al19  1  0.658696  0.447718  0.750000  1
  Al  Al20  1  0.549976  0.342442  0.250000  1
  Al  Al21  1  0.448664  0.660794  0.750000  1
  Rh  Rh22  1  0.673182  0.328791  0.001131  1
  Rh  Rh23  1  0.325902  0.672297  0.001670  1
  Rh  Rh24  1  0.325902  0.672297  0.498330  1
  Rh  Rh25  1  0.673182  0.328791  0.498869  1
  Rh  Rh26  1  0.999285  0.997152  0.002573  1
  Rh  Rh27  1  0.999285  0.997152  0.497427  1
