# generated using pymatgen
data_Ba6AlNi(O4F)2
_symmetry_space_group_name_H-M   'P 1'
_cell_length_a   7.37895100
_cell_length_b   8.23501500
_cell_length_c   10.61709600
_cell_angle_alpha   90.00000000
_cell_angle_beta   90.00000000
_cell_angle_gamma   90.00000000
_symmetry_Int_Tables_number   1
_chemical_formula_structural   Ba6AlNi(O4F)2
_chemical_formula_sum   'Ba12 Al2 Ni2 O16 F4'
_cell_volume   645.15603664
_cell_formula_units_Z   2
loop_
 _symmetry_equiv_pos_site_id
 _symmetry_equiv_pos_as_xyz
  1  'x, y, z'
loop_
 _atom_site_type_symbol
 _atom_site_label
 _atom_site_symmetry_multiplicity
 _atom_site_fract_x
 _atom_site_fract_y
 _atom_site_fract_z
 _atom_site_occupancy
  Ba  Ba0  1  0.400459  0.024799  0.833105  1
  Ba  Ba1  1  0.099541  0.475201  0.333105  1
  Ba  Ba2  1  0.597306  0.524319  0.166838  1
  Ba  Ba3  1  0.902694  0.975681  0.666838  1
  Ba  Ba4  1  0.597306  0.975681  0.166838  1
  Ba  Ba5  1  0.902694  0.524319  0.666838  1
  Ba  Ba6  1  0.400459  0.475201  0.833105  1
  Ba  Ba7  1  0.099541  0.024799  0.333105  1
  Ba  Ba8  1  0.902494  0.250000  0.966469  1
  Ba  Ba9  1  0.597506  0.250000  0.466469  1
  Ba  Ba10  1  0.093109  0.750000  0.033759  1
  Ba  Ba11  1  0.406891  0.750000  0.533759  1
  Al  Al12  1  0.810876  0.750000  0.396853  1
  Al  Al13  1  0.689124  0.750000  0.896853  1
  Ni  Ni14  1  0.193008  0.250000  0.601826  1
  Ni  Ni15  1  0.306992  0.250000  0.101826  1
  O  O16  1  0.308591  0.056555  0.571476  1
  O  O17  1  0.191409  0.443445  0.071476  1
  O  O18  1  0.694661  0.565430  0.427893  1
  O  O19  1  0.805339  0.934570  0.927893  1
  O  O20  1  0.694661  0.934570  0.427893  1
  O  O21  1  0.805339  0.565430  0.927893  1
  O  O22  1  0.308591  0.443445  0.571476  1
  O  O23  1  0.191409  0.056555  0.071476  1
  O  O24  1  0.977014  0.250000  0.507915  1
  O  O25  1  0.522986  0.250000  0.007915  1
  O  O26  1  0.014949  0.750000  0.488759  1
  O  O27  1  0.485051  0.750000  0.988759  1
  O  O28  1  0.127876  0.250000  0.773716  1
  O  O29  1  0.372124  0.250000  0.273716  1
  O  O30  1  0.869737  0.750000  0.232478  1
  O  O31  1  0.630263  0.750000  0.732478  1
  F  F32  1  0.660450  0.250000  0.727003  1
  F  F33  1  0.839550  0.250000  0.227003  1
  F  F34  1  0.338473  0.750000  0.272598  1
  F  F35  1  0.161527  0.750000  0.772598  1
