# generated using pymatgen
data_Zr2Ti2ReOs
_symmetry_space_group_name_H-M   'P 1'
_cell_length_a   5.49611129
_cell_length_b   5.34318689
_cell_length_c   5.30580280
_cell_angle_alpha   59.35675993
_cell_angle_beta   58.80622404
_cell_angle_gamma   59.04862494
_symmetry_Int_Tables_number   1
_chemical_formula_structural   Zr2Ti2ReOs
_chemical_formula_sum   'Zr2 Ti2 Re1 Os1'
_cell_volume   107.83715693
_cell_formula_units_Z   1
loop_
 _symmetry_equiv_pos_site_id
 _symmetry_equiv_pos_as_xyz
  1  'x, y, z'
loop_
 _atom_site_type_symbol
 _atom_site_label
 _atom_site_symmetry_multiplicity
 _atom_site_fract_x
 _atom_site_fract_y
 _atom_site_fract_z
 _atom_site_occupancy
  Zr  Zr0  1  0.253095  0.246621  0.247189  1
  Zr  Zr1  1  0.996905  0.003379  0.002811  1
  Ti  Ti2  1  0.125000  0.625000  0.625000  1
  Ti  Ti3  1  0.625000  0.625000  0.625000  1
  Re  Re4  1  0.625000  0.125000  0.625000  1
  Os  Os5  1  0.625000  0.625000  0.125000  1
