# generated using pymatgen
data_PrNd(Ho9Sn8)2
_symmetry_space_group_name_H-M   'P 1'
_cell_length_a   8.04355205
_cell_length_b   8.18707932
_cell_length_c   15.47836900
_cell_angle_alpha   89.96927739
_cell_angle_beta   89.10011843
_cell_angle_gamma   89.92384700
_symmetry_Int_Tables_number   1
_chemical_formula_structural   PrNd(Ho9Sn8)2
_chemical_formula_sum   'Pr1 Nd1 Ho18 Sn16'
_cell_volume   1019.17335759
_cell_formula_units_Z   1
loop_
 _symmetry_equiv_pos_site_id
 _symmetry_equiv_pos_as_xyz
  1  'x, y, z'
loop_
 _atom_site_type_symbol
 _atom_site_label
 _atom_site_symmetry_multiplicity
 _atom_site_fract_x
 _atom_site_fract_y
 _atom_site_fract_z
 _atom_site_occupancy
  Pr  Pr0  1  0.012540  0.177922  0.405900  1
  Nd  Nd1  1  0.514316  0.322946  0.404798  1
  Ho  Ho2  1  0.368995  0.837489  0.120132  1
  Ho  Ho3  1  0.139498  0.336460  0.624689  1
  Ho  Ho4  1  0.477578  0.678210  0.901055  1
  Ho  Ho5  1  0.868882  0.662535  0.119785  1
  Ho  Ho6  1  0.131527  0.338394  0.877839  1
  Ho  Ho7  1  0.197332  0.503116  0.247543  1
  Ho  Ho8  1  0.697432  0.996578  0.247535  1
  Ho  Ho9  1  0.482792  0.679660  0.598375  1
  Ho  Ho10  1  0.303673  0.002403  0.751422  1
  Ho  Ho11  1  0.639351  0.164384  0.625274  1
  Ho  Ho12  1  0.803349  0.497774  0.751210  1
  Ho  Ho13  1  0.862267  0.663315  0.376256  1
  Ho  Ho14  1  0.023171  0.178742  0.097056  1
  Ho  Ho15  1  0.977703  0.821755  0.901085  1
  Ho  Ho16  1  0.631681  0.161586  0.877660  1
  Ho  Ho17  1  0.522807  0.321210  0.096548  1
  Ho  Ho18  1  0.362335  0.836094  0.375765  1
  Ho  Ho19  1  0.983672  0.819725  0.598247  1
  Sn  Sn20  1  0.800708  0.465569  0.544115  1
  Sn  Sn21  1  0.694678  0.952949  0.462016  1
  Sn  Sn22  1  0.671743  0.851627  0.749566  1
  Sn  Sn23  1  0.197673  0.546016  0.461238  1
  Sn  Sn24  1  0.290499  0.036128  0.957710  1
  Sn  Sn25  1  0.826778  0.354255  0.246908  1
  Sn  Sn26  1  0.790367  0.463621  0.957501  1
  Sn  Sn27  1  0.563429  0.621078  0.248250  1
  Sn  Sn28  1  0.210430  0.535326  0.040812  1
  Sn  Sn29  1  0.437491  0.381712  0.751643  1
  Sn  Sn30  1  0.171566  0.648469  0.749618  1
  Sn  Sn31  1  0.938147  0.118547  0.751443  1
  Sn  Sn32  1  0.303145  0.034308  0.544301  1
  Sn  Sn33  1  0.710524  0.965222  0.040916  1
  Sn  Sn34  1  0.328558  0.146344  0.247480  1
  Sn  Sn35  1  0.063366  0.878530  0.248308  1
