# generated using pymatgen
data_YEr4Bi2Ru
_symmetry_space_group_name_H-M   'P 1'
_cell_length_a   7.92528900
_cell_length_b   8.97229100
_cell_length_c   12.44424300
_cell_angle_alpha   90.00000000
_cell_angle_beta   90.00000000
_cell_angle_gamma   90.00000000
_symmetry_Int_Tables_number   1
_chemical_formula_structural   YEr4Bi2Ru
_chemical_formula_sum   'Y4 Er16 Bi8 Ru4'
_cell_volume   884.88522088
_cell_formula_units_Z   4
loop_
 _symmetry_equiv_pos_site_id
 _symmetry_equiv_pos_as_xyz
  1  'x, y, z'
loop_
 _atom_site_type_symbol
 _atom_site_label
 _atom_site_symmetry_multiplicity
 _atom_site_fract_x
 _atom_site_fract_y
 _atom_site_fract_z
 _atom_site_occupancy
  Y  Y0  1  0.661912  0.750000  0.708796  1
  Y  Y1  1  0.338088  0.250000  0.291204  1
  Y  Y2  1  0.161912  0.250000  0.791204  1
  Y  Y3  1  0.838088  0.750000  0.208796  1
  Er  Er4  1  0.127257  0.750000  0.812219  1
  Er  Er5  1  0.872743  0.250000  0.187781  1
  Er  Er6  1  0.627257  0.250000  0.687781  1
  Er  Er7  1  0.372743  0.750000  0.312219  1
  Er  Er8  1  0.554918  0.750000  0.995413  1
  Er  Er9  1  0.445082  0.250000  0.004587  1
  Er  Er10  1  0.054918  0.250000  0.504587  1
  Er  Er11  1  0.945082  0.750000  0.495413  1
  Er  Er12  1  0.827365  0.458551  0.934436  1
  Er  Er13  1  0.172635  0.541449  0.065564  1
  Er  Er14  1  0.327365  0.541449  0.565564  1
  Er  Er15  1  0.172635  0.958551  0.065564  1
  Er  Er16  1  0.672635  0.458551  0.434436  1
  Er  Er17  1  0.827365  0.041449  0.934436  1
  Er  Er18  1  0.672635  0.041449  0.434436  1
  Er  Er19  1  0.327365  0.958551  0.565564  1
  Bi  Bi20  1  0.935963  0.005490  0.671903  1
  Bi  Bi21  1  0.064037  0.994510  0.328097  1
  Bi  Bi22  1  0.435963  0.994510  0.828097  1
  Bi  Bi23  1  0.064037  0.505490  0.328097  1
  Bi  Bi24  1  0.564037  0.005490  0.171903  1
  Bi  Bi25  1  0.935963  0.494510  0.671903  1
  Bi  Bi26  1  0.564037  0.494510  0.171903  1
  Bi  Bi27  1  0.435963  0.505490  0.828097  1
  Ru  Ru28  1  0.926913  0.750000  0.989393  1
  Ru  Ru29  1  0.073087  0.250000  0.010607  1
  Ru  Ru30  1  0.426913  0.250000  0.510607  1
  Ru  Ru31  1  0.573087  0.750000  0.489393  1
