# generated using pymatgen
data_Hf6V4Si6C
_symmetry_space_group_name_H-M   'P 1'
_cell_length_a   7.64343500
_cell_length_b   7.64343485
_cell_length_c   5.15694000
_cell_angle_alpha   90.00000000
_cell_angle_beta   90.00000000
_cell_angle_gamma   119.99999631
_symmetry_Int_Tables_number   1
_chemical_formula_structural   Hf6V4Si6C
_chemical_formula_sum   'Hf6 V4 Si6 C1'
_cell_volume   260.91549497
_cell_formula_units_Z   1
loop_
 _symmetry_equiv_pos_site_id
 _symmetry_equiv_pos_as_xyz
  1  'x, y, z'
loop_
 _atom_site_type_symbol
 _atom_site_label
 _atom_site_symmetry_multiplicity
 _atom_site_fract_x
 _atom_site_fract_y
 _atom_site_fract_z
 _atom_site_occupancy
  Hf  Hf0  1  0.000000  0.754871  0.252687  1
  Hf  Hf1  1  0.245129  0.245129  0.252687  1
  Hf  Hf2  1  0.754871  0.000000  0.252687  1
  Hf  Hf3  1  0.000000  0.245129  0.747313  1
  Hf  Hf4  1  0.754871  0.754871  0.747313  1
  Hf  Hf5  1  0.245129  0.000000  0.747313  1
  V  V6  1  0.333333  0.666667  0.000000  1
  V  V7  1  0.666667  0.333333  0.000000  1
  V  V8  1  0.666667  0.333333  0.500000  1
  V  V9  1  0.333333  0.666667  0.500000  1
  Si  Si10  1  0.000000  0.405080  0.244469  1
  Si  Si11  1  0.594920  0.594920  0.244469  1
  Si  Si12  1  0.405080  0.000000  0.244469  1
  Si  Si13  1  0.000000  0.594920  0.755531  1
  Si  Si14  1  0.405080  0.405080  0.755531  1
  Si  Si15  1  0.594920  0.000000  0.755531  1
  C  C16  1  0.000000  0.000000  0.500000  1
