# generated using pymatgen
data_Dy10In7HgRh4
_symmetry_space_group_name_H-M   'P 1'
_cell_length_a   3.64056400
_cell_length_b   8.01753903
_cell_length_c   18.29011961
_cell_angle_alpha   90.07897130
_cell_angle_beta   90.00000000
_cell_angle_gamma   90.00000000
_symmetry_Int_Tables_number   1
_chemical_formula_structural   Dy10In7HgRh4
_chemical_formula_sum   'Dy10 In7 Hg1 Rh4'
_cell_volume   533.85816125
_cell_formula_units_Z   1
loop_
 _symmetry_equiv_pos_site_id
 _symmetry_equiv_pos_as_xyz
  1  'x, y, z'
loop_
 _atom_site_type_symbol
 _atom_site_label
 _atom_site_symmetry_multiplicity
 _atom_site_fract_x
 _atom_site_fract_y
 _atom_site_fract_z
 _atom_site_occupancy
  Dy  Dy0  1  0.500000  0.383169  0.588386  1
  Dy  Dy1  1  0.500000  0.883608  0.912097  1
  Dy  Dy2  1  0.500000  0.109575  0.088081  1
  Dy  Dy3  1  0.500000  0.753339  0.722097  1
  Dy  Dy4  1  0.500000  0.253777  0.778079  1
  Dy  Dy5  1  0.500000  0.503951  0.002027  1
  Dy  Dy6  1  0.500000  0.746221  0.218567  1
  Dy  Dy7  1  0.500000  0.245984  0.279050  1
  Dy  Dy8  1  0.500000  0.999671  0.499526  1
  Dy  Dy9  1  0.500000  0.617376  0.410787  1
  In  In10  1  0.000000  0.927545  0.349170  1
  In  In11  1  0.000000  0.069671  0.649776  1
  In  In12  1  0.000000  0.569592  0.851026  1
  In  In13  1  0.000000  0.708076  0.568483  1
  In  In14  1  0.000000  0.210877  0.931796  1
  In  In15  1  0.000000  0.293220  0.432074  1
  In  In16  1  0.000000  0.425664  0.150162  1
  Hg  Hg17  1  0.000000  0.789503  0.067110  1
  Rh  Rh18  1  0.000000  0.977570  0.805395  1
  Rh  Rh19  1  0.000000  0.525030  0.304507  1
  Rh  Rh20  1  0.000000  0.477054  0.694848  1
  Rh  Rh21  1  0.000000  0.029526  0.196955  1
