# generated using pymatgen
data_Yb4Ga18Co2PdPt3
_symmetry_space_group_name_H-M   'P 1'
_cell_length_a   7.57550656
_cell_length_b   7.57550650
_cell_length_c   9.45329751
_cell_angle_alpha   90.06731537
_cell_angle_beta   90.06730916
_cell_angle_gamma   119.87852426
_symmetry_Int_Tables_number   1
_chemical_formula_structural   Yb4Ga18Co2PdPt3
_chemical_formula_sum   'Yb4 Ga18 Co2 Pd1 Pt3'
_cell_volume   470.39903698
_cell_formula_units_Z   1
loop_
 _symmetry_equiv_pos_site_id
 _symmetry_equiv_pos_as_xyz
  1  'x, y, z'
loop_
 _atom_site_type_symbol
 _atom_site_label
 _atom_site_symmetry_multiplicity
 _atom_site_fract_x
 _atom_site_fract_y
 _atom_site_fract_z
 _atom_site_occupancy
  Yb  Yb0  1  0.316319  0.990373  0.249440  1
  Yb  Yb1  1  0.009627  0.683681  0.750560  1
  Yb  Yb2  1  0.666589  0.986016  0.750614  1
  Yb  Yb3  1  0.013984  0.333411  0.249386  1
  Ga  Ga4  1  0.347769  0.013706  0.921258  1
  Ga  Ga5  1  0.986294  0.652231  0.078742  1
  Ga  Ga6  1  0.347884  0.013717  0.578749  1
  Ga  Ga7  1  0.986283  0.652116  0.421251  1
  Ga  Ga8  1  0.664920  0.019133  0.080549  1
  Ga  Ga9  1  0.980867  0.335080  0.919451  1
  Ga  Ga10  1  0.664546  0.018912  0.419548  1
  Ga  Ga11  1  0.981088  0.335454  0.580452  1
  Ga  Ga12  1  0.667214  0.656931  0.935926  1
  Ga  Ga13  1  0.343069  0.332786  0.064074  1
  Ga  Ga14  1  0.666851  0.656941  0.564356  1
  Ga  Ga15  1  0.343059  0.333149  0.435644  1
  Ga  Ga16  1  0.133788  0.137536  0.750091  1
  Ga  Ga17  1  0.862464  0.866212  0.249909  1
  Ga  Ga18  1  0.462186  0.663694  0.250586  1
  Ga  Ga19  1  0.336306  0.537814  0.749414  1
  Ga  Ga20  1  0.572545  0.339557  0.750151  1
  Ga  Ga21  1  0.660443  0.427455  0.249849  1
  Co  Co22  1  0.667673  0.332327  0.000000  1
  Co  Co23  1  0.667106  0.332894  0.500000  1
  Pd  Pd24  1  0.327565  0.672435  0.500000  1
  Pt  Pt25  1  0.998280  0.001720  0.000000  1
  Pt  Pt26  1  0.997922  0.002078  0.500000  1
  Pt  Pt27  1  0.327361  0.672639  0.000000  1
