# generated using pymatgen
data_Hf4Si4WAu
_symmetry_space_group_name_H-M   'P 1'
_cell_length_a   6.62843000
_cell_length_b   6.62843000
_cell_length_c   3.86052100
_cell_angle_alpha   90.00000000
_cell_angle_beta   90.00000000
_cell_angle_gamma   90.00000000
_symmetry_Int_Tables_number   1
_chemical_formula_structural   Hf4Si4WAu
_chemical_formula_sum   'Hf4 Si4 W1 Au1'
_cell_volume   169.61617596
_cell_formula_units_Z   1
loop_
 _symmetry_equiv_pos_site_id
 _symmetry_equiv_pos_as_xyz
  1  'x, y, z'
loop_
 _atom_site_type_symbol
 _atom_site_label
 _atom_site_symmetry_multiplicity
 _atom_site_fract_x
 _atom_site_fract_y
 _atom_site_fract_z
 _atom_site_occupancy
  Hf  Hf0  1  0.822248  0.669426  0.500000  1
  Hf  Hf1  1  0.330574  0.822248  0.500000  1
  Hf  Hf2  1  0.177752  0.330574  0.500000  1
  Hf  Hf3  1  0.669426  0.177752  0.500000  1
  Si  Si4  1  0.129711  0.622064  0.000000  1
  Si  Si5  1  0.622064  0.870289  0.000000  1
  Si  Si6  1  0.377936  0.129711  0.000000  1
  Si  Si7  1  0.870289  0.377936  0.000000  1
  W  W8  1  0.500000  0.500000  0.000000  1
  Au  Au9  1  0.000000  0.000000  0.000000  1
