# generated using pymatgen
data_Sc11FeOsRu2
_symmetry_space_group_name_H-M   'P 1'
_cell_length_a   9.43480773
_cell_length_b   9.43480799
_cell_length_c   9.41015300
_cell_angle_alpha   60.08640269
_cell_angle_beta   60.08640181
_cell_angle_gamma   59.82718844
_symmetry_Int_Tables_number   1
_chemical_formula_structural   Sc11FeOsRu2
_chemical_formula_sum   'Sc22 Fe2 Os2 Ru4'
_cell_volume   592.30018515
_cell_formula_units_Z   2
loop_
 _symmetry_equiv_pos_site_id
 _symmetry_equiv_pos_as_xyz
  1  'x, y, z'
loop_
 _atom_site_type_symbol
 _atom_site_label
 _atom_site_symmetry_multiplicity
 _atom_site_fract_x
 _atom_site_fract_y
 _atom_site_fract_z
 _atom_site_occupancy
  Sc  Sc0  1  0.807608  0.807608  0.192392  1
  Sc  Sc1  1  0.192871  0.807129  0.192871  1
  Sc  Sc2  1  0.807129  0.192871  0.192871  1
  Sc  Sc3  1  0.192392  0.192392  0.807608  1
  Sc  Sc4  1  0.807129  0.192871  0.807129  1
  Sc  Sc5  1  0.192871  0.807129  0.807129  1
  Sc  Sc6  1  0.613965  0.613965  0.155212  1
  Sc  Sc7  1  0.616858  0.155212  0.613965  1
  Sc  Sc8  1  0.155212  0.616858  0.613965  1
  Sc  Sc9  1  0.613965  0.613965  0.616858  1
  Sc  Sc10  1  0.386035  0.386035  0.844788  1
  Sc  Sc11  1  0.383142  0.844788  0.386035  1
  Sc  Sc12  1  0.844788  0.383142  0.386035  1
  Sc  Sc13  1  0.386035  0.386035  0.383142  1
  Sc  Sc14  1  0.841845  0.841845  0.473159  1
  Sc  Sc15  1  0.843151  0.473159  0.841845  1
  Sc  Sc16  1  0.473159  0.843151  0.841845  1
  Sc  Sc17  1  0.841845  0.841845  0.843151  1
  Sc  Sc18  1  0.158155  0.158155  0.526841  1
  Sc  Sc19  1  0.156849  0.526841  0.158155  1
  Sc  Sc20  1  0.526841  0.156849  0.158155  1
  Sc  Sc21  1  0.158155  0.158155  0.156849  1
  Fe  Fe22  1  0.000000  0.000000  0.000000  1
  Fe  Fe23  1  0.500000  0.500000  0.500000  1
  Os  Os24  1  0.000000  0.000000  0.500000  1
  Os  Os25  1  0.500000  0.500000  0.000000  1
  Ru  Ru26  1  0.500000  0.000000  0.500000  1
  Ru  Ru27  1  0.000000  0.500000  0.500000  1
  Ru  Ru28  1  0.000000  0.500000  0.000000  1
  Ru  Ru29  1  0.500000  0.000000  0.000000  1
