# generated using pymatgen
data_DyHo7Cd3SnAu8
_symmetry_space_group_name_H-M   'P 1'
_cell_length_a   8.01127679
_cell_length_b   8.02112974
_cell_length_c   7.32564306
_cell_angle_alpha   90.00437599
_cell_angle_beta   89.98619848
_cell_angle_gamma   90.04903206
_symmetry_Int_Tables_number   1
_chemical_formula_structural   DyHo7Cd3SnAu8
_chemical_formula_sum   'Dy1 Ho7 Cd3 Sn1 Au8'
_cell_volume   470.74190333
_cell_formula_units_Z   1
loop_
 _symmetry_equiv_pos_site_id
 _symmetry_equiv_pos_as_xyz
  1  'x, y, z'
loop_
 _atom_site_type_symbol
 _atom_site_label
 _atom_site_symmetry_multiplicity
 _atom_site_fract_x
 _atom_site_fract_y
 _atom_site_fract_z
 _atom_site_occupancy
  Dy  Dy0  1  0.846713  0.168622  0.499995  1
  Ho  Ho1  1  0.153001  0.831744  0.500292  1
  Ho  Ho2  1  0.331147  0.347373  0.999888  1
  Ho  Ho3  1  0.667781  0.653176  0.999786  1
  Ho  Ho4  1  0.686055  0.671771  0.499776  1
  Ho  Ho5  1  0.314186  0.327953  0.499838  1
  Ho  Ho6  1  0.172005  0.813602  0.000098  1
  Ho  Ho7  1  0.828460  0.185868  0.000226  1
  Cd  Cd8  1  0.499894  0.999673  0.249744  1
  Cd  Cd9  1  0.000113  0.500051  0.750352  1
  Cd  Cd10  1  0.499827  0.999600  0.750214  1
  Sn  Sn11  1  0.000580  0.501034  0.249928  1
  Au  Au12  1  0.620745  0.364154  0.267882  1
  Au  Au13  1  0.378789  0.636338  0.269691  1
  Au  Au14  1  0.134361  0.124273  0.768437  1
  Au  Au15  1  0.866257  0.875091  0.768389  1
  Au  Au16  1  0.375111  0.633672  0.731659  1
  Au  Au17  1  0.624325  0.366756  0.733069  1
  Au  Au18  1  0.863612  0.878776  0.230270  1
  Au  Au19  1  0.137039  0.120473  0.230467  1
