# generated using pymatgen
data_Tm4Al3Ga(IrPt)2
_symmetry_space_group_name_H-M   'P 1'
_cell_length_a   4.32674800
_cell_length_b   6.73928241
_cell_length_c   7.83712925
_cell_angle_alpha   89.85506531
_cell_angle_beta   90.00000000
_cell_angle_gamma   90.00000000
_symmetry_Int_Tables_number   1
_chemical_formula_structural   Tm4Al3Ga(IrPt)2
_chemical_formula_sum   'Tm4 Al3 Ga1 Ir2 Pt2'
_cell_volume   228.52350527
_cell_formula_units_Z   1
loop_
 _symmetry_equiv_pos_site_id
 _symmetry_equiv_pos_as_xyz
  1  'x, y, z'
loop_
 _atom_site_type_symbol
 _atom_site_label
 _atom_site_symmetry_multiplicity
 _atom_site_fract_x
 _atom_site_fract_y
 _atom_site_fract_z
 _atom_site_occupancy
  Tm  Tm0  1  0.250000  0.033288  0.680980  1
  Tm  Tm1  1  0.250000  0.529991  0.821905  1
  Tm  Tm2  1  0.750000  0.973632  0.317009  1
  Tm  Tm3  1  0.750000  0.472141  0.180244  1
  Al  Al4  1  0.250000  0.640512  0.436458  1
  Al  Al5  1  0.750000  0.854474  0.939682  1
  Al  Al6  1  0.750000  0.356175  0.559384  1
  Ga  Ga7  1  0.250000  0.144506  0.064724  1
  Ir  Ir8  1  0.250000  0.265187  0.384279  1
  Ir  Ir9  1  0.250000  0.762235  0.119255  1
  Pt  Pt10  1  0.750000  0.733825  0.620799  1
  Pt  Pt11  1  0.750000  0.234035  0.875281  1
