# generated using pymatgen
data_Zr11Sc7(Re4As)2
_symmetry_space_group_name_H-M   'P 1'
_cell_length_a   8.74466352
_cell_length_b   8.74466296
_cell_length_c   8.67841915
_cell_angle_alpha   89.96769697
_cell_angle_beta   90.03230720
_cell_angle_gamma   120.04478572
_symmetry_Int_Tables_number   1
_chemical_formula_structural   Zr11Sc7(Re4As)2
_chemical_formula_sum   'Zr11 Sc7 Re8 As2'
_cell_volume   574.46182073
_cell_formula_units_Z   1
loop_
 _symmetry_equiv_pos_site_id
 _symmetry_equiv_pos_as_xyz
  1  'x, y, z'
loop_
 _atom_site_type_symbol
 _atom_site_label
 _atom_site_symmetry_multiplicity
 _atom_site_fract_x
 _atom_site_fract_y
 _atom_site_fract_z
 _atom_site_occupancy
  Zr  Zr0  1  0.193825  0.387765  0.457217  1
  Zr  Zr1  1  0.612235  0.806175  0.457217  1
  Zr  Zr2  1  0.805336  0.194664  0.542813  1
  Zr  Zr3  1  0.808157  0.612486  0.543780  1
  Zr  Zr4  1  0.387514  0.191843  0.543780  1
  Zr  Zr5  1  0.805369  0.194631  0.957142  1
  Zr  Zr6  1  0.805430  0.611424  0.956033  1
  Zr  Zr7  1  0.388576  0.194570  0.956033  1
  Zr  Zr8  1  0.193870  0.806130  0.043797  1
  Zr  Zr9  1  0.194126  0.388874  0.043822  1
  Zr  Zr10  1  0.611126  0.805874  0.043822  1
  Sc  Sc11  1  0.195065  0.804935  0.453914  1
  Sc  Sc12  1  0.539788  0.460212  0.251295  1
  Sc  Sc13  1  0.539929  0.080730  0.249915  1
  Sc  Sc14  1  0.919270  0.460071  0.249915  1
  Sc  Sc15  1  0.459910  0.540090  0.749495  1
  Sc  Sc16  1  0.459299  0.919711  0.750298  1
  Sc  Sc17  1  0.080289  0.540701  0.750298  1
  Re  Re18  1  0.892779  0.107221  0.250615  1
  Re  Re19  1  0.892877  0.785640  0.249518  1
  Re  Re20  1  0.214360  0.107123  0.249518  1
  Re  Re21  1  0.107014  0.892986  0.750488  1
  Re  Re22  1  0.106761  0.213853  0.750012  1
  Re  Re23  1  0.786147  0.893239  0.750012  1
  Re  Re24  1  0.001447  0.998553  0.498914  1
  Re  Re25  1  0.999418  0.000582  0.000027  1
  As  As26  1  0.333396  0.666604  0.250800  1
  As  As27  1  0.666684  0.333316  0.749512  1
