# generated using pymatgen
data_Y10(IrAu)3
_symmetry_space_group_name_H-M   'P 1'
_cell_length_a   11.31509810
_cell_length_b   11.28807600
_cell_length_c   6.33473009
_cell_angle_alpha   90.00000000
_cell_angle_beta   89.65169214
_cell_angle_gamma   90.00000000
_symmetry_Int_Tables_number   1
_chemical_formula_structural   Y10(IrAu)3
_chemical_formula_sum   'Y20 Ir6 Au6'
_cell_volume   809.09280445
_cell_formula_units_Z   2
loop_
 _symmetry_equiv_pos_site_id
 _symmetry_equiv_pos_as_xyz
  1  'x, y, z'
loop_
 _atom_site_type_symbol
 _atom_site_label
 _atom_site_symmetry_multiplicity
 _atom_site_fract_x
 _atom_site_fract_y
 _atom_site_fract_z
 _atom_site_occupancy
  Y  Y0  1  0.299194  0.090901  0.360202  1
  Y  Y1  1  0.299194  0.909099  0.860202  1
  Y  Y2  1  0.696465  0.083951  0.850812  1
  Y  Y3  1  0.696465  0.916049  0.350812  1
  Y  Y4  1  0.574376  0.790449  0.856062  1
  Y  Y5  1  0.574376  0.209551  0.356062  1
  Y  Y6  1  0.410698  0.792527  0.368735  1
  Y  Y7  1  0.410698  0.207473  0.868735  1
  Y  Y8  1  0.214682  0.418265  0.631526  1
  Y  Y9  1  0.214682  0.581735  0.131526  1
  Y  Y10  1  0.800281  0.415224  0.146382  1
  Y  Y11  1  0.800281  0.584776  0.646382  1
  Y  Y12  1  0.920755  0.700282  0.145664  1
  Y  Y13  1  0.920755  0.299718  0.645664  1
  Y  Y14  1  0.096069  0.698351  0.643740  1
  Y  Y15  1  0.096069  0.301649  0.143740  1
  Y  Y16  1  0.996989  0.997218  0.500675  1
  Y  Y17  1  0.996989  0.002782  0.000675  1
  Y  Y18  1  0.493746  0.497042  0.997240  1
  Y  Y19  1  0.493746  0.502958  0.497240  1
  Ir  Ir20  1  0.347309  0.345779  0.249231  1
  Ir  Ir21  1  0.347309  0.654221  0.749231  1
  Ir  Ir22  1  0.497603  0.999384  0.103449  1
  Ir  Ir23  1  0.497603  0.000616  0.603449  1
  Ir  Ir24  1  0.001318  0.500224  0.897777  1
  Ir  Ir25  1  0.001318  0.499776  0.397777  1
  Au  Au26  1  0.839216  0.154538  0.253779  1
  Au  Au27  1  0.839216  0.845462  0.753779  1
  Au  Au28  1  0.153485  0.156296  0.748017  1
  Au  Au29  1  0.153485  0.843704  0.248017  1
  Au  Au30  1  0.657814  0.346360  0.746709  1
  Au  Au31  1  0.657814  0.653640  0.246709  1
