# generated using pymatgen
data_Hf10In8Co3Ir
_symmetry_space_group_name_H-M   'P 1'
_cell_length_a   17.26085818
_cell_length_b   7.57476840
_cell_length_c   3.32820400
_cell_angle_alpha   90.00000000
_cell_angle_beta   90.00000000
_cell_angle_gamma   89.93036661
_symmetry_Int_Tables_number   1
_chemical_formula_structural   Hf10In8Co3Ir
_chemical_formula_sum   'Hf10 In8 Co3 Ir1'
_cell_volume   435.15237742
_cell_formula_units_Z   1
loop_
 _symmetry_equiv_pos_site_id
 _symmetry_equiv_pos_as_xyz
  1  'x, y, z'
loop_
 _atom_site_type_symbol
 _atom_site_label
 _atom_site_symmetry_multiplicity
 _atom_site_fract_x
 _atom_site_fract_y
 _atom_site_fract_z
 _atom_site_occupancy
  Hf  Hf0  1  0.998364  0.999814  0.000000  1
  Hf  Hf1  1  0.421052  0.142177  0.000000  1
  Hf  Hf2  1  0.725509  0.237113  0.000000  1
  Hf  Hf3  1  0.220278  0.275838  0.000000  1
  Hf  Hf4  1  0.911508  0.362473  0.000000  1
  Hf  Hf5  1  0.501871  0.501320  0.000000  1
  Hf  Hf6  1  0.084774  0.637983  0.000000  1
  Hf  Hf7  1  0.775918  0.736713  0.000000  1
  Hf  Hf8  1  0.273192  0.753089  0.000000  1
  Hf  Hf9  1  0.588283  0.863042  0.000000  1
  In  In10  1  0.848758  0.054000  0.500000  1
  In  In11  1  0.570736  0.195847  0.500000  1
  In  In12  1  0.063688  0.305698  0.500000  1
  In  In13  1  0.350124  0.444900  0.500000  1
  In  In14  1  0.652209  0.555180  0.500000  1
  In  In15  1  0.932604  0.693505  0.500000  1
  In  In16  1  0.435085  0.803741  0.500000  1
  In  In17  1  0.147981  0.943750  0.500000  1
  Co  Co18  1  0.805405  0.446340  0.500000  1
  Co  Co19  1  0.192380  0.549982  0.500000  1
  Co  Co20  1  0.695122  0.945861  0.500000  1
  Ir  Ir21  1  0.305163  0.051631  0.500000  1
