# generated using pymatgen
data_Lu2W2C3
_symmetry_space_group_name_H-M   'P 1'
_cell_length_a   5.99130487
_cell_length_b   5.99130566
_cell_length_c   5.61867448
_cell_angle_alpha   110.07906109
_cell_angle_beta   110.07906305
_cell_angle_gamma   31.71059233
_symmetry_Int_Tables_number   1
_chemical_formula_structural   Lu2W2C3
_chemical_formula_sum   'Lu2 W2 C3'
_cell_volume   99.03077086
_cell_formula_units_Z   1
loop_
 _symmetry_equiv_pos_site_id
 _symmetry_equiv_pos_as_xyz
  1  'x, y, z'
loop_
 _atom_site_type_symbol
 _atom_site_label
 _atom_site_symmetry_multiplicity
 _atom_site_fract_x
 _atom_site_fract_y
 _atom_site_fract_z
 _atom_site_occupancy
  Lu  Lu0  1  0.388316  0.388316  0.173549  1
  Lu  Lu1  1  0.611684  0.611684  0.826453  1
  W  W2  1  0.153293  0.153293  0.329373  1
  W  W3  1  0.846708  0.846708  0.670628  1
  C  C4  1  0.000000  0.000000  0.000000  1
  C  C5  1  0.752045  0.752045  0.259451  1
  C  C6  1  0.247955  0.247955  0.740551  1
