# generated using pymatgen
data_ErTh3(GaRu)4
_symmetry_space_group_name_H-M   'P 1'
_cell_length_a   4.02347400
_cell_length_b   7.16588049
_cell_length_c   8.32400584
_cell_angle_alpha   90.16522142
_cell_angle_beta   90.00000000
_cell_angle_gamma   90.00000000
_symmetry_Int_Tables_number   1
_chemical_formula_structural   ErTh3(GaRu)4
_chemical_formula_sum   'Er1 Th3 Ga4 Ru4'
_cell_volume   239.99452296
_cell_formula_units_Z   1
loop_
 _symmetry_equiv_pos_site_id
 _symmetry_equiv_pos_as_xyz
  1  'x, y, z'
loop_
 _atom_site_type_symbol
 _atom_site_label
 _atom_site_symmetry_multiplicity
 _atom_site_fract_x
 _atom_site_fract_y
 _atom_site_fract_z
 _atom_site_occupancy
  Er  Er0  1  0.750000  0.545162  0.811946  1
  Th  Th1  1  0.250000  0.961190  0.313331  1
  Th  Th2  1  0.250000  0.460740  0.181389  1
  Th  Th3  1  0.750000  0.041599  0.690749  1
  Ga  Ga4  1  0.250000  0.373553  0.566044  1
  Ga  Ga5  1  0.250000  0.851247  0.937109  1
  Ga  Ga6  1  0.750000  0.632560  0.443991  1
  Ga  Ga7  1  0.750000  0.135526  0.058098  1
  Ru  Ru8  1  0.250000  0.240501  0.872295  1
  Ru  Ru9  1  0.250000  0.752112  0.623848  1
  Ru  Ru10  1  0.750000  0.752022  0.130939  1
  Ru  Ru11  1  0.750000  0.253785  0.370264  1
