# generated using pymatgen
data_Y3(In2Pt)2
_symmetry_space_group_name_H-M   'P 1'
_cell_length_a   7.79986100
_cell_length_b   7.79986145
_cell_length_c   3.96705700
_cell_angle_alpha   90.00000000
_cell_angle_beta   90.00000000
_cell_angle_gamma   120.00000234
_symmetry_Int_Tables_number   1
_chemical_formula_structural   Y3(In2Pt)2
_chemical_formula_sum   'Y3 In4 Pt2'
_cell_volume   209.01276644
_cell_formula_units_Z   1
loop_
 _symmetry_equiv_pos_site_id
 _symmetry_equiv_pos_as_xyz
  1  'x, y, z'
loop_
 _atom_site_type_symbol
 _atom_site_label
 _atom_site_symmetry_multiplicity
 _atom_site_fract_x
 _atom_site_fract_y
 _atom_site_fract_z
 _atom_site_occupancy
  Y  Y0  1  0.386067  0.974464  0.500000  1
  Y  Y1  1  0.025536  0.411603  0.500000  1
  Y  Y2  1  0.588397  0.613933  0.500000  1
  In  In3  1  0.744748  0.997821  0.000000  1
  In  In4  1  0.253073  0.255252  0.000000  1
  In  In5  1  0.002179  0.746927  0.000000  1
  In  In6  1  0.666667  0.333333  0.000000  1
  Pt  Pt7  1  0.000000  0.000000  0.500000  1
  Pt  Pt8  1  0.333333  0.666667  0.000000  1
