# generated using pymatgen
data_PrNd4Th3(ZnRh)8
_symmetry_space_group_name_H-M   'P 1'
_cell_length_a   3.94097500
_cell_length_b   7.51558320
_cell_length_c   16.62742620
_cell_angle_alpha   90.16143488
_cell_angle_beta   90.00000000
_cell_angle_gamma   90.00000000
_symmetry_Int_Tables_number   1
_chemical_formula_structural   PrNd4Th3(ZnRh)8
_chemical_formula_sum   'Pr1 Nd4 Th3 Zn8 Rh8'
_cell_volume   492.48121775
_cell_formula_units_Z   1
loop_
 _symmetry_equiv_pos_site_id
 _symmetry_equiv_pos_as_xyz
  1  'x, y, z'
loop_
 _atom_site_type_symbol
 _atom_site_label
 _atom_site_symmetry_multiplicity
 _atom_site_fract_x
 _atom_site_fract_y
 _atom_site_fract_z
 _atom_site_occupancy
  Pr  Pr0  1  0.250000  0.055007  0.714603  1
  Nd  Nd1  1  0.750000  0.943967  0.285237  1
  Nd  Nd2  1  0.750000  0.829234  0.061963  1
  Nd  Nd3  1  0.750000  0.448394  0.212762  1
  Nd  Nd4  1  0.250000  0.553053  0.786719  1
  Th  Th5  1  0.250000  0.172908  0.940447  1
  Th  Th6  1  0.250000  0.672523  0.561562  1
  Th  Th7  1  0.750000  0.325356  0.437508  1
  Zn  Zn8  1  0.750000  0.007833  0.559889  1
  Zn  Zn9  1  0.250000  0.617662  0.345508  1
  Zn  Zn10  1  0.750000  0.383082  0.654707  1
  Zn  Zn11  1  0.250000  0.503002  0.059231  1
  Zn  Zn12  1  0.750000  0.510813  0.940423  1
  Zn  Zn13  1  0.250000  0.991166  0.438785  1
  Zn  Zn14  1  0.250000  0.115946  0.152732  1
  Zn  Zn15  1  0.750000  0.880936  0.846304  1
  Rh  Rh16  1  0.750000  0.738515  0.441922  1
  Rh  Rh17  1  0.250000  0.249084  0.320252  1
  Rh  Rh18  1  0.750000  0.247815  0.822645  1
  Rh  Rh19  1  0.750000  0.746920  0.678287  1
  Rh  Rh20  1  0.250000  0.261158  0.558115  1
  Rh  Rh21  1  0.250000  0.743881  0.187324  1
  Rh  Rh22  1  0.750000  0.247606  0.058797  1
  Rh  Rh23  1  0.250000  0.754139  0.934277  1
