# generated using pymatgen
data_TbPrSm4(RuBr3)2
_symmetry_space_group_name_H-M   'P 1'
_cell_length_a   4.20711100
_cell_length_b   8.69466599
_cell_length_c   12.11956274
_cell_angle_alpha   86.13403586
_cell_angle_beta   90.00000000
_cell_angle_gamma   90.00000000
_symmetry_Int_Tables_number   1
_chemical_formula_structural   TbPrSm4(RuBr3)2
_chemical_formula_sum   'Tb1 Pr1 Sm4 Ru2 Br6'
_cell_volume   442.31784884
_cell_formula_units_Z   1
loop_
 _symmetry_equiv_pos_site_id
 _symmetry_equiv_pos_as_xyz
  1  'x, y, z'
loop_
 _atom_site_type_symbol
 _atom_site_label
 _atom_site_symmetry_multiplicity
 _atom_site_fract_x
 _atom_site_fract_y
 _atom_site_fract_z
 _atom_site_occupancy
  Tb  Tb0  1  0.750000  0.124444  0.628155  1
  Pr  Pr1  1  0.750000  0.119335  0.169488  1
  Sm  Sm2  1  0.250000  0.284690  0.398726  1
  Sm  Sm3  1  0.750000  0.712228  0.605740  1
  Sm  Sm4  1  0.250000  0.869088  0.370759  1
  Sm  Sm5  1  0.250000  0.885779  0.825789  1
  Ru  Ru6  1  0.250000  0.933100  0.598394  1
  Ru  Ru7  1  0.750000  0.065525  0.402315  1
  Br  Br8  1  0.250000  0.417141  0.632195  1
  Br  Br9  1  0.750000  0.574698  0.373781  1
  Br  Br10  1  0.250000  0.879619  0.106193  1
  Br  Br11  1  0.750000  0.121188  0.884650  1
  Br  Br12  1  0.250000  0.366007  0.145479  1
  Br  Br13  1  0.750000  0.647159  0.858338  1
