# generated using pymatgen
data_Ta16Co2Cu5NiN4
_symmetry_space_group_name_H-M   'P 1'
_cell_length_a   8.24748998
_cell_length_b   8.24552633
_cell_length_c   8.24373900
_cell_angle_alpha   60.00716622
_cell_angle_beta   60.01503962
_cell_angle_gamma   59.98706273
_symmetry_Int_Tables_number   1
_chemical_formula_structural   Ta16Co2Cu5NiN4
_chemical_formula_sum   'Ta16 Co2 Cu5 Ni1 N4'
_cell_volume   396.44211065
_cell_formula_units_Z   1
loop_
 _symmetry_equiv_pos_site_id
 _symmetry_equiv_pos_as_xyz
  1  'x, y, z'
loop_
 _atom_site_type_symbol
 _atom_site_label
 _atom_site_symmetry_multiplicity
 _atom_site_fract_x
 _atom_site_fract_y
 _atom_site_fract_z
 _atom_site_occupancy
  Ta  Ta0  1  0.115068  0.631004  0.626963  1
  Ta  Ta1  1  0.633826  0.118364  0.623905  1
  Ta  Ta2  1  0.632067  0.625841  0.120664  1
  Ta  Ta3  1  0.632067  0.625841  0.621427  1
  Ta  Ta4  1  0.816937  0.816279  0.183393  1
  Ta  Ta5  1  0.182744  0.186737  0.815260  1
  Ta  Ta6  1  0.817030  0.183146  0.815949  1
  Ta  Ta7  1  0.181931  0.816041  0.186277  1
  Ta  Ta8  1  0.181931  0.816041  0.815751  1
  Ta  Ta9  1  0.817030  0.183146  0.183876  1
  Ta  Ta10  1  0.436379  0.435668  0.063977  1
  Ta  Ta11  1  0.065547  0.064163  0.435146  1
  Ta  Ta12  1  0.437104  0.063657  0.436165  1
  Ta  Ta13  1  0.065968  0.435353  0.063752  1
  Ta  Ta14  1  0.065968  0.435353  0.434928  1
  Ta  Ta15  1  0.437104  0.063657  0.063076  1
  Co  Co16  1  0.825511  0.828015  0.516248  1
  Co  Co17  1  0.825511  0.828015  0.830225  1
  Cu  Cu18  1  0.752995  0.415722  0.415643  1
  Cu  Cu19  1  0.416349  0.750560  0.416546  1
  Cu  Cu20  1  0.416500  0.416808  0.750015  1
  Cu  Cu21  1  0.416500  0.416808  0.416677  1
  Cu  Cu22  1  0.497246  0.833839  0.834456  1
  Ni  Ni23  1  0.828049  0.509484  0.831233  1
  N  N24  1  0.623216  0.125725  0.125530  1
  N  N25  1  0.126314  0.622842  0.125423  1
  N  N26  1  0.126554  0.125947  0.622115  1
  N  N27  1  0.126554  0.125947  0.125385  1
