# generated using pymatgen
data_CaEr(NbSe2)6
_symmetry_space_group_name_H-M   'P 1'
_cell_length_a   6.09294900
_cell_length_b   6.09294958
_cell_length_c   14.63074800
_cell_angle_alpha   90.00000000
_cell_angle_beta   90.00000000
_cell_angle_gamma   120.00000228
_symmetry_Int_Tables_number   1
_chemical_formula_structural   CaEr(NbSe2)6
_chemical_formula_sum   'Ca1 Er1 Nb6 Se12'
_cell_volume   470.38371648
_cell_formula_units_Z   1
loop_
 _symmetry_equiv_pos_site_id
 _symmetry_equiv_pos_as_xyz
  1  'x, y, z'
loop_
 _atom_site_type_symbol
 _atom_site_label
 _atom_site_symmetry_multiplicity
 _atom_site_fract_x
 _atom_site_fract_y
 _atom_site_fract_z
 _atom_site_occupancy
  Ca  Ca0  1  0.666667  0.333333  0.750000  1
  Er  Er1  1  0.333333  0.666667  0.250000  1
  Nb  Nb2  1  0.333333  0.666667  0.007021  1
  Nb  Nb3  1  0.000000  0.000000  0.005611  1
  Nb  Nb4  1  0.666667  0.333333  0.004631  1
  Nb  Nb5  1  0.333333  0.666667  0.492979  1
  Nb  Nb6  1  0.000000  0.000000  0.494389  1
  Nb  Nb7  1  0.666667  0.333333  0.495369  1
  Se  Se8  1  0.672963  0.665819  0.379762  1
  Se  Se9  1  0.665807  0.671675  0.608234  1
  Se  Se10  1  0.005868  0.671675  0.891766  1
  Se  Se11  1  0.665807  0.994132  0.891766  1
  Se  Se12  1  0.672963  0.007144  0.120238  1
  Se  Se13  1  0.334181  0.007144  0.379762  1
  Se  Se14  1  0.005868  0.334193  0.608234  1
  Se  Se15  1  0.328325  0.994132  0.608234  1
  Se  Se16  1  0.992856  0.665819  0.120238  1
  Se  Se17  1  0.328325  0.334193  0.891766  1
  Se  Se18  1  0.992856  0.327037  0.379762  1
  Se  Se19  1  0.334181  0.327037  0.120238  1
