# generated using pymatgen
data_La7Y(Sc3Sn4)4
_symmetry_space_group_name_H-M   'P 1'
_cell_length_a   7.90312361
_cell_length_b   8.10116947
_cell_length_c   15.11412800
_cell_angle_alpha   89.95326470
_cell_angle_beta   89.95344926
_cell_angle_gamma   90.11997587
_symmetry_Int_Tables_number   1
_chemical_formula_structural   La7Y(Sc3Sn4)4
_chemical_formula_sum   'La7 Y1 Sc12 Sn16'
_cell_volume   967.67238404
_cell_formula_units_Z   1
loop_
 _symmetry_equiv_pos_site_id
 _symmetry_equiv_pos_as_xyz
  1  'x, y, z'
loop_
 _atom_site_type_symbol
 _atom_site_label
 _atom_site_symmetry_multiplicity
 _atom_site_fract_x
 _atom_site_fract_y
 _atom_site_fract_z
 _atom_site_occupancy
  La  La0  1  0.993835  0.171022  0.094611  1
  La  La1  1  0.006217  0.827561  0.903163  1
  La  La2  1  0.504872  0.671101  0.905764  1
  La  La3  1  0.005973  0.826754  0.594674  1
  La  La4  1  0.494117  0.328285  0.094510  1
  La  La5  1  0.996711  0.172659  0.407524  1
  La  La6  1  0.493188  0.328254  0.406728  1
  Y  Y7  1  0.510494  0.675576  0.596804  1
  Sc  Sc8  1  0.170013  0.496361  0.748717  1
  Sc  Sc9  1  0.828990  0.505797  0.250969  1
  Sc  Sc10  1  0.330476  0.992882  0.250439  1
  Sc  Sc11  1  0.669092  0.006376  0.749065  1
  Sc  Sc12  1  0.338571  0.161746  0.627691  1
  Sc  Sc13  1  0.660041  0.835915  0.372910  1
  Sc  Sc14  1  0.161322  0.660142  0.374237  1
  Sc  Sc15  1  0.661981  0.838460  0.127751  1
  Sc  Sc16  1  0.838361  0.340936  0.626005  1
  Sc  Sc17  1  0.339078  0.161423  0.870143  1
  Sc  Sc18  1  0.837585  0.338531  0.871594  1
  Sc  Sc19  1  0.160205  0.662296  0.127116  1
  Sn  Sn20  1  0.030842  0.135008  0.748547  1
  Sn  Sn21  1  0.968450  0.865682  0.251611  1
  Sn  Sn22  1  0.466099  0.633589  0.249759  1
  Sn  Sn23  1  0.532340  0.369600  0.748328  1
  Sn  Sn24  1  0.315186  0.855463  0.747374  1
  Sn  Sn25  1  0.688295  0.140689  0.250700  1
  Sn  Sn26  1  0.186902  0.358823  0.250275  1
  Sn  Sn27  1  0.808291  0.641759  0.748339  1
  Sn  Sn28  1  0.182412  0.459327  0.546080  1
  Sn  Sn29  1  0.820016  0.547066  0.457872  1
  Sn  Sn30  1  0.329672  0.950703  0.458018  1
  Sn  Sn31  1  0.826769  0.545906  0.044133  1
  Sn  Sn32  1  0.671456  0.041062  0.544749  1
  Sn  Sn33  1  0.172102  0.453098  0.954992  1
  Sn  Sn34  1  0.673285  0.045336  0.955280  1
  Sn  Sn35  1  0.326759  0.954810  0.043527  1
