# generated using pymatgen
data_TbEr3Sc3AlPt4
_symmetry_space_group_name_H-M   'P 1'
_cell_length_a   4.51525600
_cell_length_b   7.00786556
_cell_length_c   8.26820047
_cell_angle_alpha   87.05309317
_cell_angle_beta   90.00000000
_cell_angle_gamma   90.00000000
_symmetry_Int_Tables_number   1
_chemical_formula_structural   TbEr3Sc3AlPt4
_chemical_formula_sum   'Tb1 Er3 Sc3 Al1 Pt4'
_cell_volume   261.27896587
_cell_formula_units_Z   1
loop_
 _symmetry_equiv_pos_site_id
 _symmetry_equiv_pos_as_xyz
  1  'x, y, z'
loop_
 _atom_site_type_symbol
 _atom_site_label
 _atom_site_symmetry_multiplicity
 _atom_site_fract_x
 _atom_site_fract_y
 _atom_site_fract_z
 _atom_site_occupancy
  Tb  Tb0  1  0.750000  0.520173  0.813605  1
  Er  Er1  1  0.250000  0.467938  0.184252  1
  Er  Er2  1  0.750000  0.038478  0.671149  1
  Er  Er3  1  0.250000  0.989268  0.340180  1
  Sc  Sc4  1  0.250000  0.862534  0.929242  1
  Sc  Sc5  1  0.750000  0.132973  0.071350  1
  Sc  Sc6  1  0.750000  0.641103  0.434370  1
  Al  Al7  1  0.250000  0.359912  0.567323  1
  Pt  Pt8  1  0.250000  0.733115  0.613239  1
  Pt  Pt9  1  0.750000  0.263714  0.384993  1
  Pt  Pt10  1  0.750000  0.746635  0.101972  1
  Pt  Pt11  1  0.250000  0.244158  0.888323  1
