# generated using pymatgen
data_Ho4Tc3B8Ru
_symmetry_space_group_name_H-M   'P 1'
_cell_length_a   5.29210000
_cell_length_b   5.93657933
_cell_length_c   6.42832954
_cell_angle_alpha   90.12085252
_cell_angle_beta   90.00000000
_cell_angle_gamma   90.00000000
_symmetry_Int_Tables_number   1
_chemical_formula_structural   Ho4Tc3B8Ru
_chemical_formula_sum   'Ho4 Tc3 B8 Ru1'
_cell_volume   201.95819665
_cell_formula_units_Z   1
loop_
 _symmetry_equiv_pos_site_id
 _symmetry_equiv_pos_as_xyz
  1  'x, y, z'
loop_
 _atom_site_type_symbol
 _atom_site_label
 _atom_site_symmetry_multiplicity
 _atom_site_fract_x
 _atom_site_fract_y
 _atom_site_fract_z
 _atom_site_occupancy
  Ho  Ho0  1  0.250000  0.513449  0.838942  1
  Ho  Ho1  1  0.250000  0.012665  0.661970  1
  Ho  Ho2  1  0.750000  0.487128  0.161703  1
  Ho  Ho3  1  0.750000  0.986085  0.337267  1
  Tc  Tc4  1  0.250000  0.682065  0.315656  1
  Tc  Tc5  1  0.250000  0.180298  0.184022  1
  Tc  Tc6  1  0.750000  0.319526  0.685018  1
  B  B7  1  0.079762  0.869826  0.037120  1
  B  B8  1  0.421466  0.369916  0.463347  1
  B  B9  1  0.580520  0.130996  0.963422  1
  B  B10  1  0.919693  0.630417  0.536046  1
  B  B11  1  0.919480  0.130996  0.963422  1
  B  B12  1  0.580307  0.630417  0.536046  1
  B  B13  1  0.420238  0.869826  0.037120  1
  B  B14  1  0.078534  0.369916  0.463347  1
  Ru  Ru15  1  0.750000  0.816474  0.815552  1
