# generated using pymatgen
data_Zr3AlSn2Ir2Rh
_symmetry_space_group_name_H-M   'P 1'
_cell_length_a   7.43398069
_cell_length_b   7.43398167
_cell_length_c   7.18935100
_cell_angle_alpha   90.00000000
_cell_angle_beta   90.00000000
_cell_angle_gamma   121.05635711
_symmetry_Int_Tables_number   1
_chemical_formula_structural   Zr3AlSn2Ir2Rh
_chemical_formula_sum   'Zr6 Al2 Sn4 Ir4 Rh2'
_cell_volume   340.36213217
_cell_formula_units_Z   2
loop_
 _symmetry_equiv_pos_site_id
 _symmetry_equiv_pos_as_xyz
  1  'x, y, z'
loop_
 _atom_site_type_symbol
 _atom_site_label
 _atom_site_symmetry_multiplicity
 _atom_site_fract_x
 _atom_site_fract_y
 _atom_site_fract_z
 _atom_site_occupancy
  Zr  Zr0  1  0.409245  0.028677  0.250000  1
  Zr  Zr1  1  0.581050  0.595161  0.750000  1
  Zr  Zr2  1  0.595161  0.581050  0.250000  1
  Zr  Zr3  1  0.006702  0.394610  0.250000  1
  Zr  Zr4  1  0.028677  0.409245  0.750000  1
  Zr  Zr5  1  0.394610  0.006702  0.750000  1
  Al  Al6  1  0.262548  0.262548  0.500000  1
  Al  Al7  1  0.262548  0.262548  0.000000  1
  Sn  Sn8  1  0.734339  0.002851  0.999822  1
  Sn  Sn9  1  0.002851  0.734339  0.499822  1
  Sn  Sn10  1  0.734339  0.002851  0.500178  1
  Sn  Sn11  1  0.002851  0.734339  0.000178  1
  Ir  Ir12  1  0.650372  0.329610  0.520280  1
  Ir  Ir13  1  0.650372  0.329610  0.979720  1
  Ir  Ir14  1  0.329610  0.650372  0.020280  1
  Ir  Ir15  1  0.329610  0.650372  0.479720  1
  Rh  Rh16  1  0.011793  0.013321  0.750000  1
  Rh  Rh17  1  0.013321  0.011793  0.250000  1
