# generated using pymatgen
data_Sm3PaN4
_symmetry_space_group_name_H-M   'P 1'
_cell_length_a   7.12981277
_cell_length_b   9.41754970
_cell_length_c   6.15272189
_cell_angle_alpha   29.23172767
_cell_angle_beta   54.59143105
_cell_angle_gamma   40.79279533
_symmetry_Int_Tables_number   1
_chemical_formula_structural   Sm3PaN4
_chemical_formula_sum   'Sm3 Pa1 N4'
_cell_volume   127.45977613
_cell_formula_units_Z   1
loop_
 _symmetry_equiv_pos_site_id
 _symmetry_equiv_pos_as_xyz
  1  'x, y, z'
loop_
 _atom_site_type_symbol
 _atom_site_label
 _atom_site_symmetry_multiplicity
 _atom_site_fract_x
 _atom_site_fract_y
 _atom_site_fract_z
 _atom_site_occupancy
  Sm  Sm0  1  0.250000  0.500000  0.000000  1
  Sm  Sm1  1  0.750000  0.500000  0.000000  1
  Sm  Sm2  1  0.500000  0.000000  0.000000  1
  Pa  Pa3  1  0.000000  0.000000  0.000000  1
  N  N4  1  0.500000  0.500000  0.500000  1
  N  N5  1  0.226429  0.000000  0.547141  1
  N  N6  1  0.000000  0.500000  0.500000  1
  N  N7  1  0.773571  0.000000  0.452859  1
