# generated using pymatgen
data_KNd(PPd3)4
_symmetry_space_group_name_H-M   'P 1'
_cell_length_a   8.55852917
_cell_length_b   8.55801800
_cell_length_c   8.56186400
_cell_angle_alpha   90.00000000
_cell_angle_beta   90.28132757
_cell_angle_gamma   90.00000000
_symmetry_Int_Tables_number   1
_chemical_formula_structural   KNd(PPd3)4
_chemical_formula_sum   'K2 Nd2 P8 Pd24'
_cell_volume   627.09800704
_cell_formula_units_Z   2
loop_
 _symmetry_equiv_pos_site_id
 _symmetry_equiv_pos_as_xyz
  1  'x, y, z'
loop_
 _atom_site_type_symbol
 _atom_site_label
 _atom_site_symmetry_multiplicity
 _atom_site_fract_x
 _atom_site_fract_y
 _atom_site_fract_z
 _atom_site_occupancy
  K  K0  1  0.000000  0.500000  0.500000  1
  K  K1  1  0.000000  0.000000  0.000000  1
  Nd  Nd2  1  0.500000  0.500000  0.000000  1
  Nd  Nd3  1  0.500000  0.000000  0.500000  1
  P  P4  1  0.808797  0.306432  0.190203  1
  P  P5  1  0.191203  0.806432  0.309797  1
  P  P6  1  0.692282  0.690659  0.694582  1
  P  P7  1  0.307718  0.190659  0.805418  1
  P  P8  1  0.191203  0.693568  0.809797  1
  P  P9  1  0.808797  0.193568  0.690203  1
  P  P10  1  0.307718  0.309341  0.305418  1
  P  P11  1  0.692282  0.809341  0.194582  1
  Pd  Pd12  1  0.419922  0.849735  0.165522  1
  Pd  Pd13  1  0.580078  0.349735  0.334478  1
  Pd  Pd14  1  0.078041  0.150495  0.662120  1
  Pd  Pd15  1  0.921959  0.650495  0.837880  1
  Pd  Pd16  1  0.170185  0.421340  0.853438  1
  Pd  Pd17  1  0.341582  0.579040  0.344021  1
  Pd  Pd18  1  0.658418  0.079040  0.155979  1
  Pd  Pd19  1  0.829815  0.921340  0.646562  1
  Pd  Pd20  1  0.843796  0.160044  0.420140  1
  Pd  Pd21  1  0.353159  0.331547  0.576810  1
  Pd  Pd22  1  0.156204  0.660044  0.079860  1
  Pd  Pd23  1  0.646841  0.831547  0.923190  1
  Pd  Pd24  1  0.580078  0.150265  0.834478  1
  Pd  Pd25  1  0.419922  0.650265  0.665522  1
  Pd  Pd26  1  0.921959  0.849505  0.337880  1
  Pd  Pd27  1  0.078041  0.349505  0.162120  1
  Pd  Pd28  1  0.829815  0.578660  0.146562  1
  Pd  Pd29  1  0.658418  0.420960  0.655979  1
  Pd  Pd30  1  0.341582  0.920960  0.844021  1
  Pd  Pd31  1  0.170185  0.078660  0.353438  1
  Pd  Pd32  1  0.156204  0.839956  0.579860  1
  Pd  Pd33  1  0.646841  0.668453  0.423190  1
  Pd  Pd34  1  0.843796  0.339956  0.920140  1
  Pd  Pd35  1  0.353159  0.168453  0.076810  1
