# generated using pymatgen
data_Tb3Dy3(CI3)2
_symmetry_space_group_name_H-M   'P 1'
_cell_length_a   3.91656300
_cell_length_b   8.74333045
_cell_length_c   11.92314961
_cell_angle_alpha   92.23873836
_cell_angle_beta   90.00000000
_cell_angle_gamma   90.00000000
_symmetry_Int_Tables_number   1
_chemical_formula_structural   Tb3Dy3(CI3)2
_chemical_formula_sum   'Tb3 Dy3 C2 I6'
_cell_volume   407.98236739
_cell_formula_units_Z   1
loop_
 _symmetry_equiv_pos_site_id
 _symmetry_equiv_pos_as_xyz
  1  'x, y, z'
loop_
 _atom_site_type_symbol
 _atom_site_label
 _atom_site_symmetry_multiplicity
 _atom_site_fract_x
 _atom_site_fract_y
 _atom_site_fract_z
 _atom_site_occupancy
  Tb  Tb0  1  0.250000  0.918051  0.599747  1
  Tb  Tb1  1  0.750000  0.081912  0.400433  1
  Tb  Tb2  1  0.250000  0.887037  0.186782  1
  Dy  Dy3  1  0.750000  0.113008  0.812491  1
  Dy  Dy4  1  0.250000  0.291610  0.615139  1
  Dy  Dy5  1  0.750000  0.708365  0.384910  1
  C  C6  1  0.250000  0.881919  0.387033  1
  C  C7  1  0.750000  0.118076  0.613693  1
  I  I8  1  0.250000  0.859943  0.872868  1
  I  I9  1  0.750000  0.141429  0.126881  1
  I  I10  1  0.250000  0.374647  0.870656  1
  I  I11  1  0.750000  0.624052  0.129259  1
  I  I12  1  0.250000  0.382788  0.368078  1
  I  I13  1  0.750000  0.617163  0.632028  1
