# generated using pymatgen
data_TbUTcB6
_symmetry_space_group_name_H-M   'P 1'
_cell_length_a   3.64340900
_cell_length_b   9.31372200
_cell_length_c   11.42995300
_cell_angle_alpha   90.00000000
_cell_angle_beta   90.00000000
_cell_angle_gamma   90.00000000
_symmetry_Int_Tables_number   1
_chemical_formula_structural   TbUTcB6
_chemical_formula_sum   'Tb4 U4 Tc4 B24'
_cell_volume   387.86057964
_cell_formula_units_Z   4
loop_
 _symmetry_equiv_pos_site_id
 _symmetry_equiv_pos_as_xyz
  1  'x, y, z'
loop_
 _atom_site_type_symbol
 _atom_site_label
 _atom_site_symmetry_multiplicity
 _atom_site_fract_x
 _atom_site_fract_y
 _atom_site_fract_z
 _atom_site_occupancy
  Tb  Tb0  1  0.000000  0.337302  0.407538  1
  Tb  Tb1  1  0.000000  0.662698  0.592462  1
  Tb  Tb2  1  0.000000  0.837302  0.092462  1
  Tb  Tb3  1  0.000000  0.162698  0.907538  1
  U  U4  1  0.000000  0.956663  0.396421  1
  U  U5  1  0.000000  0.043337  0.603579  1
  U  U6  1  0.000000  0.456663  0.103579  1
  U  U7  1  0.000000  0.543337  0.896421  1
  Tc  Tc8  1  0.000000  0.645961  0.318434  1
  Tc  Tc9  1  0.000000  0.354039  0.681566  1
  Tc  Tc10  1  0.000000  0.145961  0.181566  1
  Tc  Tc11  1  0.000000  0.854039  0.818434  1
  B  B12  1  0.500000  0.552312  0.430610  1
  B  B13  1  0.500000  0.447688  0.569390  1
  B  B14  1  0.500000  0.052312  0.069390  1
  B  B15  1  0.500000  0.947688  0.930610  1
  B  B16  1  0.500000  0.743022  0.423050  1
  B  B17  1  0.500000  0.256978  0.576950  1
  B  B18  1  0.500000  0.243022  0.076950  1
  B  B19  1  0.500000  0.756978  0.923050  1
  B  B20  1  0.500000  0.802111  0.275390  1
  B  B21  1  0.500000  0.197889  0.724610  1
  B  B22  1  0.500000  0.302111  0.224610  1
  B  B23  1  0.500000  0.697889  0.775390  1
  B  B24  1  0.500000  0.644270  0.188780  1
  B  B25  1  0.500000  0.355730  0.811220  1
  B  B26  1  0.500000  0.144270  0.311220  1
  B  B27  1  0.500000  0.855730  0.688780  1
  B  B28  1  0.500000  0.989663  0.219738  1
  B  B29  1  0.500000  0.010337  0.780262  1
  B  B30  1  0.500000  0.489663  0.280262  1
  B  B31  1  0.500000  0.510337  0.719738  1
  B  B32  1  0.500000  0.640250  0.039003  1
  B  B33  1  0.500000  0.359750  0.960997  1
  B  B34  1  0.500000  0.140250  0.460997  1
  B  B35  1  0.500000  0.859750  0.539003  1
