# generated using pymatgen
data_TmUSb5
_symmetry_space_group_name_H-M   'P 1'
_cell_length_a   4.18525100
_cell_length_b   13.18362636
_cell_length_c   14.58893079
_cell_angle_alpha   76.99290682
_cell_angle_beta   90.00000000
_cell_angle_gamma   90.00000000
_symmetry_Int_Tables_number   1
_chemical_formula_structural   TmUSb5
_chemical_formula_sum   'Tm4 U4 Sb20'
_cell_volume   784.31654343
_cell_formula_units_Z   4
loop_
 _symmetry_equiv_pos_site_id
 _symmetry_equiv_pos_as_xyz
  1  'x, y, z'
loop_
 _atom_site_type_symbol
 _atom_site_label
 _atom_site_symmetry_multiplicity
 _atom_site_fract_x
 _atom_site_fract_y
 _atom_site_fract_z
 _atom_site_occupancy
  Tm  Tm0  1  0.250000  0.669433  0.573374  1
  Tm  Tm1  1  0.750000  0.330567  0.426626  1
  Tm  Tm2  1  0.250000  0.955698  0.361646  1
  Tm  Tm3  1  0.750000  0.044302  0.638354  1
  U  U4  1  0.250000  0.383147  0.775371  1
  U  U5  1  0.750000  0.616853  0.224629  1
  U  U6  1  0.250000  0.662989  0.856052  1
  U  U7  1  0.750000  0.337011  0.143948  1
  Sb  Sb8  1  0.250000  0.135563  0.774202  1
  Sb  Sb9  1  0.750000  0.864437  0.225798  1
  Sb  Sb10  1  0.250000  0.144529  0.482638  1
  Sb  Sb11  1  0.750000  0.855471  0.517362  1
  Sb  Sb12  1  0.250000  0.153219  0.166830  1
  Sb  Sb13  1  0.750000  0.846781  0.833170  1
  Sb  Sb14  1  0.250000  0.423466  0.979215  1
  Sb  Sb15  1  0.750000  0.576534  0.020785  1
  Sb  Sb16  1  0.750000  0.033896  0.920638  1
  Sb  Sb17  1  0.250000  0.966104  0.079362  1
  Sb  Sb18  1  0.750000  0.142706  0.321098  1
  Sb  Sb19  1  0.250000  0.857294  0.678902  1
  Sb  Sb20  1  0.750000  0.268017  0.937767  1
  Sb  Sb21  1  0.250000  0.731983  0.062233  1
  Sb  Sb22  1  0.750000  0.280306  0.657537  1
  Sb  Sb23  1  0.250000  0.719694  0.342463  1
  Sb  Sb24  1  0.750000  0.568217  0.737082  1
  Sb  Sb25  1  0.250000  0.431783  0.262918  1
  Sb  Sb26  1  0.750000  0.572759  0.447825  1
  Sb  Sb27  1  0.250000  0.427241  0.552175  1
