# generated using pymatgen
data_Pr2Al3Si2Pt3
_symmetry_space_group_name_H-M   'P 1'
_cell_length_a   8.48110443
_cell_length_b   8.48110498
_cell_length_c   8.48110476
_cell_angle_alpha   138.00530647
_cell_angle_beta   103.66788109
_cell_angle_gamma   91.17463298
_symmetry_Int_Tables_number   1
_chemical_formula_structural   Pr2Al3Si2Pt3
_chemical_formula_sum   'Pr4 Al6 Si4 Pt6'
_cell_volume   378.11992177
_cell_formula_units_Z   2
loop_
 _symmetry_equiv_pos_site_id
 _symmetry_equiv_pos_as_xyz
  1  'x, y, z'
loop_
 _atom_site_type_symbol
 _atom_site_label
 _atom_site_symmetry_multiplicity
 _atom_site_fract_x
 _atom_site_fract_y
 _atom_site_fract_z
 _atom_site_occupancy
  Pr  Pr0  1  0.870437  0.629122  0.241316  1
  Pr  Pr1  1  0.129563  0.370878  0.758684  1
  Pr  Pr2  1  0.387806  0.129122  0.258684  1
  Pr  Pr3  1  0.612194  0.870878  0.741316  1
  Al  Al4  1  0.500000  0.750000  0.250000  1
  Al  Al5  1  0.500000  0.250000  0.750000  1
  Al  Al6  1  0.238289  0.988289  0.750000  1
  Al  Al7  1  0.761711  0.511711  0.750000  1
  Al  Al8  1  0.761711  0.011711  0.250000  1
  Al  Al9  1  0.238289  0.488289  0.250000  1
  Si  Si10  1  0.033994  0.889397  0.144598  1
  Si  Si11  1  0.966006  0.110603  0.855402  1
  Si  Si12  1  0.744799  0.389397  0.355402  1
  Si  Si13  1  0.255201  0.610603  0.644598  1
  Pt  Pt14  1  0.000000  0.750000  0.750000  1
  Pt  Pt15  1  0.000000  0.250000  0.250000  1
  Pt  Pt16  1  0.241504  0.868025  0.373481  1
  Pt  Pt17  1  0.758496  0.131975  0.626519  1
  Pt  Pt18  1  0.494544  0.368025  0.126519  1
  Pt  Pt19  1  0.505456  0.631975  0.873481  1
