# generated using pymatgen
data_Tb3YGa12Re
_symmetry_space_group_name_H-M   'P 1'
_cell_length_a   7.51427420
_cell_length_b   7.52696085
_cell_length_c   7.51427372
_cell_angle_alpha   109.50543479
_cell_angle_beta   109.43699533
_cell_angle_gamma   109.50543400
_symmetry_Int_Tables_number   1
_chemical_formula_structural   Tb3YGa12Re
_chemical_formula_sum   'Tb3 Y1 Ga12 Re1'
_cell_volume   327.03046345
_cell_formula_units_Z   1
loop_
 _symmetry_equiv_pos_site_id
 _symmetry_equiv_pos_as_xyz
  1  'x, y, z'
loop_
 _atom_site_type_symbol
 _atom_site_label
 _atom_site_symmetry_multiplicity
 _atom_site_fract_x
 _atom_site_fract_y
 _atom_site_fract_z
 _atom_site_occupancy
  Tb  Tb0  1  0.000000  0.000000  0.500000  1
  Tb  Tb1  1  0.500000  0.000000  0.000000  1
  Tb  Tb2  1  0.500000  0.500000  0.500000  1
  Y  Y3  1  0.000000  0.500000  0.000000  1
  Ga  Ga4  1  0.749994  0.249994  0.499989  1
  Ga  Ga5  1  0.749994  0.500000  0.250006  1
  Ga  Ga6  1  0.499989  0.249994  0.749994  1
  Ga  Ga7  1  0.250006  0.500000  0.749994  1
  Ga  Ga8  1  0.250006  0.750006  0.500011  1
  Ga  Ga9  1  0.500011  0.750006  0.250006  1
  Ga  Ga10  1  0.708260  0.708389  0.000000  1
  Ga  Ga11  1  0.291740  0.000129  0.291740  1
  Ga  Ga12  1  0.000000  0.291611  0.291740  1
  Ga  Ga13  1  0.291740  0.291611  0.000000  1
  Ga  Ga14  1  0.708260  0.999871  0.708260  1
  Ga  Ga15  1  0.000000  0.708389  0.708260  1
  Re  Re16  1  0.000000  0.000000  0.000000  1
