# generated using pymatgen
data_Ta10Nb2Al3Au5N4
_symmetry_space_group_name_H-M   'P 1'
_cell_length_a   7.11286935
_cell_length_b   7.10422401
_cell_length_c   7.10900177
_cell_angle_alpha   90.15322746
_cell_angle_beta   89.91220671
_cell_angle_gamma   89.94759640
_symmetry_Int_Tables_number   1
_chemical_formula_structural   Ta10Nb2Al3Au5N4
_chemical_formula_sum   'Ta10 Nb2 Al3 Au5 N4'
_cell_volume   359.22607661
_cell_formula_units_Z   1
loop_
 _symmetry_equiv_pos_site_id
 _symmetry_equiv_pos_as_xyz
  1  'x, y, z'
loop_
 _atom_site_type_symbol
 _atom_site_label
 _atom_site_symmetry_multiplicity
 _atom_site_fract_x
 _atom_site_fract_y
 _atom_site_fract_z
 _atom_site_occupancy
  Ta  Ta0  1  0.786303  0.957056  0.375880  1
  Ta  Ta1  1  0.712852  0.044664  0.878638  1
  Ta  Ta2  1  0.212371  0.457005  0.126615  1
  Ta  Ta3  1  0.291938  0.540795  0.626232  1
  Ta  Ta4  1  0.954862  0.377767  0.786582  1
  Ta  Ta5  1  0.044094  0.875212  0.714165  1
  Ta  Ta6  1  0.458273  0.126874  0.209244  1
  Ta  Ta7  1  0.543237  0.627715  0.287248  1
  Ta  Ta8  1  0.372959  0.787230  0.956797  1
  Ta  Ta9  1  0.873717  0.708806  0.041893  1
  Nb  Nb10  1  0.124494  0.214240  0.455804  1
  Nb  Nb11  1  0.621852  0.286943  0.544566  1
  Al  Al12  1  0.426667  0.928353  0.568720  1
  Al  Al13  1  0.930930  0.572802  0.428362  1
  Al  Al14  1  0.071368  0.068569  0.073255  1
  Au  Au15  1  0.178786  0.820547  0.321074  1
  Au  Au16  1  0.309839  0.168928  0.818272  1
  Au  Au17  1  0.830760  0.316838  0.188306  1
  Au  Au18  1  0.683282  0.690344  0.669168  1
  Au  Au19  1  0.568223  0.432061  0.932015  1
  N  N20  1  0.875160  0.122544  0.628149  1
  N  N21  1  0.622893  0.874499  0.120338  1
  N  N22  1  0.125533  0.620330  0.877108  1
  N  N23  1  0.379606  0.379876  0.371571  1
