# generated using pymatgen
data_La13Nd3(CdRu)4
_symmetry_space_group_name_H-M   'P 1'
_cell_length_a   10.04493908
_cell_length_b   10.05824367
_cell_length_c   10.04008417
_cell_angle_alpha   60.04785705
_cell_angle_beta   60.10576186
_cell_angle_gamma   59.92506640
_symmetry_Int_Tables_number   1
_chemical_formula_structural   La13Nd3(CdRu)4
_chemical_formula_sum   'La13 Nd3 Cd4 Ru4'
_cell_volume   717.70786586
_cell_formula_units_Z   1
loop_
 _symmetry_equiv_pos_site_id
 _symmetry_equiv_pos_as_xyz
  1  'x, y, z'
loop_
 _atom_site_type_symbol
 _atom_site_label
 _atom_site_symmetry_multiplicity
 _atom_site_fract_x
 _atom_site_fract_y
 _atom_site_fract_z
 _atom_site_occupancy
  La  La0  1  0.845926  0.847098  0.845674  1
  La  La1  1  0.689219  0.310757  0.310794  1
  La  La2  1  0.060083  0.439908  0.439935  1
  La  La3  1  0.310967  0.689032  0.689048  1
  La  La4  1  0.311420  0.310728  0.689683  1
  La  La5  1  0.846820  0.846489  0.461359  1
  La  La6  1  0.688198  0.689677  0.310714  1
  La  La7  1  0.461281  0.845666  0.847152  1
  La  La8  1  0.060230  0.439487  0.060265  1
  La  La9  1  0.845338  0.461366  0.846484  1
  La  La10  1  0.440015  0.060275  0.439515  1
  La  La11  1  0.311105  0.689704  0.310513  1
  La  La12  1  0.688617  0.310545  0.689709  1
  Nd  Nd13  1  0.438454  0.437892  0.061447  1
  Nd  Nd14  1  0.062204  0.061446  0.437875  1
  Nd  Nd15  1  0.437947  0.062058  0.062033  1
  Cd  Cd16  1  0.079732  0.761663  0.079301  1
  Cd  Cd17  1  0.079312  0.079303  0.761652  1
  Cd  Cd18  1  0.761415  0.079735  0.079299  1
  Cd  Cd19  1  0.079556  0.079306  0.079740  1
  Ru  Ru20  1  0.636090  0.088624  0.636175  1
  Ru  Ru21  1  0.637817  0.637756  0.635277  1
  Ru  Ru22  1  0.639125  0.636191  0.088606  1
  Ru  Ru23  1  0.089130  0.635294  0.637746  1
