# generated using pymatgen
data_TiTc5S8
_symmetry_space_group_name_H-M   'P 1'
_cell_length_a   6.42293256
_cell_length_b   6.52540133
_cell_length_c   6.42895630
_cell_angle_alpha   92.41268430
_cell_angle_beta   92.68918580
_cell_angle_gamma   93.61608957
_symmetry_Int_Tables_number   1
_chemical_formula_structural   TiTc5S8
_chemical_formula_sum   'Ti1 Tc5 S8'
_cell_volume   268.34468968
_cell_formula_units_Z   1
loop_
 _symmetry_equiv_pos_site_id
 _symmetry_equiv_pos_as_xyz
  1  'x, y, z'
loop_
 _atom_site_type_symbol
 _atom_site_label
 _atom_site_symmetry_multiplicity
 _atom_site_fract_x
 _atom_site_fract_y
 _atom_site_fract_z
 _atom_site_occupancy
  Ti  Ti0  1  0.404550  0.213741  0.548618  1
  Tc  Tc1  1  0.448717  0.589250  0.774519  1
  Tc  Tc2  1  0.777717  0.454269  0.595055  1
  Tc  Tc3  1  0.591141  0.769702  0.447664  1
  Tc  Tc4  1  0.555676  0.413186  0.230069  1
  Tc  Tc5  1  0.228534  0.548727  0.411479  1
  S  S6  1  0.779211  0.778703  0.775838  1
  S  S7  1  0.218349  0.228395  0.217868  1
  S  S8  1  0.275873  0.862466  0.619488  1
  S  S9  1  0.611627  0.280015  0.873532  1
  S  S10  1  0.874297  0.625832  0.271971  1
  S  S11  1  0.730531  0.134537  0.380209  1
  S  S12  1  0.377055  0.726165  0.128955  1
  S  S13  1  0.126721  0.375011  0.724737  1
