# generated using pymatgen
data_Pr16Dy4Ir5Pt7
_symmetry_space_group_name_H-M   'P 1'
_cell_length_a   11.43874558
_cell_length_b   11.43874558
_cell_length_c   6.53340206
_cell_angle_alpha   90.06427124
_cell_angle_beta   90.06427124
_cell_angle_gamma   90.04222721
_symmetry_Int_Tables_number   1
_chemical_formula_structural   Pr16Dy4Ir5Pt7
_chemical_formula_sum   'Pr16 Dy4 Ir5 Pt7'
_cell_volume   854.86103251
_cell_formula_units_Z   1
loop_
 _symmetry_equiv_pos_site_id
 _symmetry_equiv_pos_as_xyz
  1  'x, y, z'
loop_
 _atom_site_type_symbol
 _atom_site_label
 _atom_site_symmetry_multiplicity
 _atom_site_fract_x
 _atom_site_fract_y
 _atom_site_fract_z
 _atom_site_occupancy
  Pr  Pr0  1  0.292649  0.087819  0.377418  1
  Pr  Pr1  1  0.293244  0.908183  0.878254  1
  Pr  Pr2  1  0.707368  0.087909  0.877499  1
  Pr  Pr3  1  0.706970  0.911407  0.377192  1
  Pr  Pr4  1  0.585197  0.790951  0.877152  1
  Pr  Pr5  1  0.588332  0.208286  0.377811  1
  Pr  Pr6  1  0.409909  0.790007  0.382841  1
  Pr  Pr7  1  0.411421  0.206893  0.877547  1
  Pr  Pr8  1  0.209049  0.414803  0.622848  1
  Pr  Pr9  1  0.209993  0.590091  0.117159  1
  Pr  Pr10  1  0.791714  0.411668  0.122189  1
  Pr  Pr11  1  0.793107  0.588579  0.622453  1
  Pr  Pr12  1  0.912181  0.707351  0.122582  1
  Pr  Pr13  1  0.912091  0.292632  0.622501  1
  Pr  Pr14  1  0.091817  0.706756  0.621746  1
  Pr  Pr15  1  0.088593  0.293030  0.122808  1
  Dy  Dy16  1  0.999882  0.999678  0.500369  1
  Dy  Dy17  1  0.000322  0.000118  0.999631  1
  Dy  Dy18  1  0.498128  0.501363  0.999381  1
  Dy  Dy19  1  0.498637  0.501872  0.500619  1
  Ir  Ir20  1  0.353495  0.646505  0.750000  1
  Ir  Ir21  1  0.500275  0.000176  0.119432  1
  Ir  Ir22  1  0.500114  0.001030  0.618086  1
  Ir  Ir23  1  0.998970  0.499886  0.881914  1
  Ir  Ir24  1  0.999824  0.499725  0.380568  1
  Pt  Pt25  1  0.853205  0.146795  0.250000  1
  Pt  Pt26  1  0.852890  0.853109  0.750026  1
  Pt  Pt27  1  0.146891  0.147110  0.749974  1
  Pt  Pt28  1  0.146458  0.853542  0.250000  1
  Pt  Pt29  1  0.646673  0.353327  0.750000  1
  Pt  Pt30  1  0.648036  0.647434  0.250128  1
  Pt  Pt31  1  0.352566  0.351964  0.249872  1
