# generated using pymatgen
data_Ho4Lu6In8CuPt3
_symmetry_space_group_name_H-M   'P 1'
_cell_length_a   3.61856300
_cell_length_b   8.02769383
_cell_length_c   17.95694790
_cell_angle_alpha   89.74596665
_cell_angle_beta   90.00000000
_cell_angle_gamma   90.00000000
_symmetry_Int_Tables_number   1
_chemical_formula_structural   Ho4Lu6In8CuPt3
_chemical_formula_sum   'Ho4 Lu6 In8 Cu1 Pt3'
_cell_volume   521.62115050
_cell_formula_units_Z   1
loop_
 _symmetry_equiv_pos_site_id
 _symmetry_equiv_pos_as_xyz
  1  'x, y, z'
loop_
 _atom_site_type_symbol
 _atom_site_label
 _atom_site_symmetry_multiplicity
 _atom_site_fract_x
 _atom_site_fract_y
 _atom_site_fract_z
 _atom_site_occupancy
  Ho  Ho0  1  0.000000  0.256958  0.720490  1
  Ho  Ho1  1  0.000000  0.735553  0.280301  1
  Ho  Ho2  1  0.000000  0.999548  0.000679  1
  Ho  Ho3  1  0.000000  0.499797  0.499440  1
  Lu  Lu4  1  0.000000  0.117596  0.414451  1
  Lu  Lu5  1  0.000000  0.883833  0.584464  1
  Lu  Lu6  1  0.000000  0.384101  0.915228  1
  Lu  Lu7  1  0.000000  0.616701  0.085750  1
  Lu  Lu8  1  0.000000  0.248312  0.219997  1
  Lu  Lu9  1  0.000000  0.757155  0.778860  1
  In  In10  1  0.500000  0.416782  0.351633  1
  In  In11  1  0.500000  0.579541  0.648113  1
  In  In12  1  0.500000  0.077138  0.851831  1
  In  In13  1  0.500000  0.924940  0.151522  1
  In  In14  1  0.500000  0.293741  0.066574  1
  In  In15  1  0.500000  0.707197  0.933807  1
  In  In16  1  0.500000  0.206090  0.565313  1
  In  In17  1  0.500000  0.796773  0.432642  1
  Cu  Cu18  1  0.500000  0.026673  0.302455  1
  Pt  Pt19  1  0.500000  0.971261  0.695332  1
  Pt  Pt20  1  0.500000  0.477538  0.805057  1
  Pt  Pt21  1  0.500000  0.522773  0.196061  1
