# generated using pymatgen
data_U4Al2Re5Si6
_symmetry_space_group_name_H-M   'P 1'
_cell_length_a   7.17173763
_cell_length_b   7.17173739
_cell_length_c   7.14249712
_cell_angle_alpha   110.05466404
_cell_angle_beta   110.05467191
_cell_angle_gamma   108.47936775
_symmetry_Int_Tables_number   1
_chemical_formula_structural   U4Al2Re5Si6
_chemical_formula_sum   'U4 Al2 Re5 Si6'
_cell_volume   282.13277521
_cell_formula_units_Z   1
loop_
 _symmetry_equiv_pos_site_id
 _symmetry_equiv_pos_as_xyz
  1  'x, y, z'
loop_
 _atom_site_type_symbol
 _atom_site_label
 _atom_site_symmetry_multiplicity
 _atom_site_fract_x
 _atom_site_fract_y
 _atom_site_fract_z
 _atom_site_occupancy
  U  U0  1  0.496288  0.996287  0.992575  1
  U  U1  1  0.996287  0.496288  0.992575  1
  U  U2  1  0.011763  0.011763  0.506692  1
  U  U3  1  0.494928  0.494928  0.506692  1
  Al  Al4  1  0.749311  0.501129  0.250440  1
  Al  Al5  1  0.501129  0.749311  0.250440  1
  Re  Re6  1  0.998786  0.998786  0.997572  1
  Re  Re7  1  0.747178  0.247178  0.494356  1
  Re  Re8  1  0.247178  0.747178  0.494356  1
  Re  Re9  1  0.502565  0.252944  0.755510  1
  Re  Re10  1  0.252944  0.502565  0.755510  1
  Si  Si11  1  0.302669  0.302669  0.003187  1
  Si  Si12  1  0.700518  0.700518  0.003187  1
  Si  Si13  1  0.307783  0.999976  0.307760  1
  Si  Si14  1  0.999976  0.307783  0.307760  1
  Si  Si15  1  0.691055  0.999640  0.690695  1
  Si  Si16  1  0.999640  0.691055  0.690695  1
