# generated using pymatgen
data_Tb15HoInHg3Rh4
_symmetry_space_group_name_H-M   'P 1'
_cell_length_a   9.65107282
_cell_length_b   9.65915129
_cell_length_c   9.66744400
_cell_angle_alpha   59.97158900
_cell_angle_beta   59.94386387
_cell_angle_gamma   59.78672559
_symmetry_Int_Tables_number   1
_chemical_formula_structural   Tb15HoInHg3Rh4
_chemical_formula_sum   'Tb15 Ho1 In1 Hg3 Rh4'
_cell_volume   635.81296154
_cell_formula_units_Z   1
loop_
 _symmetry_equiv_pos_site_id
 _symmetry_equiv_pos_as_xyz
  1  'x, y, z'
loop_
 _atom_site_type_symbol
 _atom_site_label
 _atom_site_symmetry_multiplicity
 _atom_site_fract_x
 _atom_site_fract_y
 _atom_site_fract_z
 _atom_site_occupancy
  Tb  Tb0  1  0.811174  0.190273  0.808366  1
  Tb  Tb1  1  0.189423  0.189649  0.810463  1
  Tb  Tb2  1  0.648821  0.052534  0.649323  1
  Tb  Tb3  1  0.065417  0.060652  0.436966  1
  Tb  Tb4  1  0.438110  0.436938  0.062476  1
  Tb  Tb5  1  0.649559  0.649115  0.649660  1
  Tb  Tb6  1  0.811174  0.190273  0.190187  1
  Tb  Tb7  1  0.189179  0.811197  0.810197  1
  Tb  Tb8  1  0.053545  0.647951  0.649251  1
  Tb  Tb9  1  0.438966  0.061585  0.063023  1
  Tb  Tb10  1  0.438966  0.061585  0.436426  1
  Tb  Tb11  1  0.064752  0.437078  0.062001  1
  Tb  Tb12  1  0.649559  0.649115  0.051668  1
  Tb  Tb13  1  0.189179  0.811197  0.189425  1
  Tb  Tb14  1  0.064752  0.437078  0.436170  1
  Ho  Ho15  1  0.810696  0.808602  0.190351  1
  In  In16  1  0.743540  0.420244  0.418107  1
  Hg  Hg17  1  0.414815  0.415164  0.414983  1
  Hg  Hg18  1  0.414815  0.415164  0.755036  1
  Hg  Hg19  1  0.414875  0.756032  0.414545  1
  Rh  Rh20  1  0.856845  0.427347  0.857905  1
  Rh  Rh21  1  0.856887  0.857141  0.858742  1
  Rh  Rh22  1  0.856887  0.857141  0.427232  1
  Rh  Rh23  1  0.428069  0.856942  0.857495  1
