# generated using pymatgen
data_Er11Lu5(ScBi3)4
_symmetry_space_group_name_H-M   'P 1'
_cell_length_a   8.06326842
_cell_length_b   9.33918413
_cell_length_c   11.86708594
_cell_angle_alpha   89.99421018
_cell_angle_beta   89.93462593
_cell_angle_gamma   89.98188485
_symmetry_Int_Tables_number   1
_chemical_formula_structural   Er11Lu5(ScBi3)4
_chemical_formula_sum   'Er11 Lu5 Sc4 Bi12'
_cell_volume   893.64254353
_cell_formula_units_Z   1
loop_
 _symmetry_equiv_pos_site_id
 _symmetry_equiv_pos_as_xyz
  1  'x, y, z'
loop_
 _atom_site_type_symbol
 _atom_site_label
 _atom_site_symmetry_multiplicity
 _atom_site_fract_x
 _atom_site_fract_y
 _atom_site_fract_z
 _atom_site_occupancy
  Er  Er0  1  0.355043  0.250040  0.283154  1
  Er  Er1  1  0.644964  0.749631  0.716884  1
  Er  Er2  1  0.144950  0.749699  0.782961  1
  Er  Er3  1  0.854793  0.250110  0.216991  1
  Er  Er4  1  0.186362  0.250065  0.781280  1
  Er  Er5  1  0.813672  0.749810  0.218770  1
  Er  Er6  1  0.313592  0.749827  0.281353  1
  Er  Er7  1  0.686254  0.250003  0.718673  1
  Er  Er8  1  0.195162  0.066301  0.058656  1
  Er  Er9  1  0.804752  0.933817  0.941350  1
  Er  Er10  1  0.304471  0.933696  0.558647  1
  Lu  Lu11  1  0.803735  0.567079  0.941160  1
  Lu  Lu12  1  0.695975  0.067129  0.441172  1
  Lu  Lu13  1  0.196112  0.432800  0.058915  1
  Lu  Lu14  1  0.696186  0.432943  0.441185  1
  Lu  Lu15  1  0.303894  0.567235  0.558792  1
  Sc  Sc16  1  0.023432  0.249683  0.511810  1
  Sc  Sc17  1  0.976183  0.750075  0.488295  1
  Sc  Sc18  1  0.476321  0.750106  0.012048  1
  Sc  Sc19  1  0.523690  0.249766  0.988171  1
  Bi  Bi20  1  0.401187  0.251842  0.542841  1
  Bi  Bi21  1  0.599672  0.749534  0.456664  1
  Bi  Bi22  1  0.099033  0.747677  0.042905  1
  Bi  Bi23  1  0.900725  0.252359  0.957070  1
  Bi  Bi24  1  0.065611  0.003878  0.330599  1
  Bi  Bi25  1  0.933982  0.995697  0.669377  1
  Bi  Bi26  1  0.434055  0.996016  0.830125  1
  Bi  Bi27  1  0.934344  0.503944  0.669436  1
  Bi  Bi28  1  0.566189  0.003901  0.169886  1
  Bi  Bi29  1  0.065520  0.495709  0.330688  1
  Bi  Bi30  1  0.565579  0.495811  0.169718  1
  Bi  Bi31  1  0.434558  0.503818  0.830424  1
