# generated using pymatgen
data_Y7HoTa10TiSi16W
_symmetry_space_group_name_H-M   'P 1'
_cell_length_a   7.06185101
_cell_length_b   7.05602460
_cell_length_c   12.98764400
_cell_angle_alpha   90.01102713
_cell_angle_beta   89.99756597
_cell_angle_gamma   89.97918048
_symmetry_Int_Tables_number   1
_chemical_formula_structural   Y7HoTa10TiSi16W
_chemical_formula_sum   'Y7 Ho1 Ta10 Ti1 Si16 W1'
_cell_volume   647.15598977
_cell_formula_units_Z   1
loop_
 _symmetry_equiv_pos_site_id
 _symmetry_equiv_pos_as_xyz
  1  'x, y, z'
loop_
 _atom_site_type_symbol
 _atom_site_label
 _atom_site_symmetry_multiplicity
 _atom_site_fract_x
 _atom_site_fract_y
 _atom_site_fract_z
 _atom_site_occupancy
  Y  Y0  1  0.341805  0.001941  0.467173  1
  Y  Y1  1  0.497794  0.841964  0.718298  1
  Y  Y2  1  0.501682  0.158382  0.217802  1
  Y  Y3  1  0.842026  0.497073  0.280631  1
  Y  Y4  1  0.157331  0.501156  0.782912  1
  Y  Y5  1  0.658594  0.997764  0.969466  1
  Y  Y6  1  0.002144  0.341624  0.531501  1
  Ho  Ho7  1  0.998038  0.659501  0.031864  1
  Ta  Ta8  1  0.328611  0.328497  0.000338  1
  Ta  Ta9  1  0.169797  0.829043  0.249476  1
  Ta  Ta10  1  0.827016  0.172995  0.750763  1
  Ta  Ta11  1  0.671324  0.671108  0.499811  1
  Ta  Ta12  1  0.151651  0.006364  0.873824  1
  Ta  Ta13  1  0.492399  0.653417  0.124174  1
  Ta  Ta14  1  0.507911  0.346451  0.623952  1
  Ta  Ta15  1  0.655296  0.490186  0.877158  1
  Ta  Ta16  1  0.346842  0.505878  0.374948  1
  Ta  Ta17  1  0.846076  0.991571  0.373834  1
  Ti  Ti18  1  0.992451  0.845505  0.626354  1
  Si  Si19  1  0.201771  0.131479  0.682348  1
  Si  Si20  1  0.366986  0.704495  0.932349  1
  Si  Si21  1  0.634128  0.297073  0.431727  1
  Si  Si22  1  0.706490  0.366770  0.069350  1
  Si  Si23  1  0.295794  0.634177  0.567595  1
  Si  Si24  1  0.799246  0.869724  0.181217  1
  Si  Si25  1  0.132534  0.202516  0.316547  1
  Si  Si26  1  0.866122  0.797390  0.817588  1
  Si  Si27  1  0.289934  0.956351  0.063756  1
  Si  Si28  1  0.545834  0.792817  0.313323  1
  Si  Si29  1  0.453458  0.207076  0.813881  1
  Si  Si30  1  0.794862  0.546811  0.685580  1
  Si  Si31  1  0.205753  0.453066  0.185365  1
  Si  Si32  1  0.708519  0.044316  0.564474  1
  Si  Si33  1  0.956020  0.293524  0.938233  1
  Si  Si34  1  0.045482  0.707418  0.436813  1
  W  W35  1  0.008277  0.154575  0.125578  1
