# generated using pymatgen
data_SmHo3B4I5
_symmetry_space_group_name_H-M   'P 1'
_cell_length_a   9.62843492
_cell_length_b   9.62843568
_cell_length_c   9.72209163
_cell_angle_alpha   75.69006001
_cell_angle_beta   75.69005748
_cell_angle_gamma   25.68512834
_symmetry_Int_Tables_number   1
_chemical_formula_structural   SmHo3B4I5
_chemical_formula_sum   'Sm1 Ho3 B4 I5'
_cell_volume   377.88645826
_cell_formula_units_Z   1
loop_
 _symmetry_equiv_pos_site_id
 _symmetry_equiv_pos_as_xyz
  1  'x, y, z'
loop_
 _atom_site_type_symbol
 _atom_site_label
 _atom_site_symmetry_multiplicity
 _atom_site_fract_x
 _atom_site_fract_y
 _atom_site_fract_z
 _atom_site_occupancy
  Sm  Sm0  1  0.869911  0.869911  0.064103  1
  Ho  Ho1  1  0.503221  0.503221  0.756156  1
  Ho  Ho2  1  0.498503  0.498503  0.242659  1
  Ho  Ho3  1  0.129413  0.129413  0.935049  1
  B  B4  1  0.315646  0.687570  0.999033  1
  B  B5  1  0.687570  0.315646  0.999033  1
  B  B6  1  0.001713  0.001713  0.099200  1
  B  B7  1  0.001733  0.001733  0.898676  1
  I  I8  1  0.673839  0.673839  0.689198  1
  I  I9  1  0.328353  0.328353  0.320446  1
  I  I10  1  0.328956  0.328956  0.845195  1
  I  I11  1  0.672792  0.672792  0.142891  1
  I  I12  1  0.002650  0.002650  0.498563  1
