# generated using pymatgen
data_TbGd8YIr4
_symmetry_space_group_name_H-M   'P 1'
_cell_length_a   6.55167311
_cell_length_b   7.13950235
_cell_length_c   8.76975200
_cell_angle_alpha   96.25491408
_cell_angle_beta   111.93399175
_cell_angle_gamma   89.99999621
_symmetry_Int_Tables_number   1
_chemical_formula_structural   TbGd8YIr4
_chemical_formula_sum   'Tb1 Gd8 Y1 Ir4'
_cell_volume   377.88412525
_cell_formula_units_Z   1
loop_
 _symmetry_equiv_pos_site_id
 _symmetry_equiv_pos_as_xyz
  1  'x, y, z'
loop_
 _atom_site_type_symbol
 _atom_site_label
 _atom_site_symmetry_multiplicity
 _atom_site_fract_x
 _atom_site_fract_y
 _atom_site_fract_z
 _atom_site_occupancy
  Tb  Tb0  1  0.430699  0.750000  0.000000  1
  Gd  Gd1  1  0.977573  0.919502  0.186337  1
  Gd  Gd2  1  0.791234  0.580498  0.813663  1
  Gd  Gd3  1  0.021481  0.080796  0.812678  1
  Gd  Gd4  1  0.208804  0.419204  0.187322  1
  Gd  Gd5  1  0.647784  0.813705  0.437155  1
  Gd  Gd6  1  0.210629  0.686295  0.562845  1
  Gd  Gd7  1  0.352804  0.186199  0.562839  1
  Gd  Gd8  1  0.789967  0.313801  0.437161  1
  Y  Y9  1  0.569317  0.250000  0.000000  1
  Ir  Ir10  1  0.820805  0.573888  0.221982  1
  Ir  Ir11  1  0.598823  0.926112  0.778018  1
  Ir  Ir12  1  0.178979  0.427261  0.777880  1
  Ir  Ir13  1  0.401101  0.072739  0.222120  1
