# generated using pymatgen
data_Nd5HoZn4Pt13
_symmetry_space_group_name_H-M   'P 1'
_cell_length_a   8.37456044
_cell_length_b   8.37456052
_cell_length_c   8.37456100
_cell_angle_alpha   109.52862250
_cell_angle_beta   109.52861542
_cell_angle_gamma   109.35649028
_symmetry_Int_Tables_number   1
_chemical_formula_structural   Nd5HoZn4Pt13
_chemical_formula_sum   'Nd5 Ho1 Zn4 Pt13'
_cell_volume   452.12952818
_cell_formula_units_Z   1
loop_
 _symmetry_equiv_pos_site_id
 _symmetry_equiv_pos_as_xyz
  1  'x, y, z'
loop_
 _atom_site_type_symbol
 _atom_site_label
 _atom_site_symmetry_multiplicity
 _atom_site_fract_x
 _atom_site_fract_y
 _atom_site_fract_z
 _atom_site_occupancy
  Nd  Nd0  1  0.301522  0.000496  0.301026  1
  Nd  Nd1  1  0.000496  0.301522  0.301026  1
  Nd  Nd2  1  0.296725  0.296725  0.000000  1
  Nd  Nd3  1  0.699469  0.000496  0.698974  1
  Nd  Nd4  1  0.000496  0.699469  0.698974  1
  Ho  Ho5  1  0.693360  0.693360  0.000000  1
  Zn  Zn6  1  0.001134  0.001134  0.498245  1
  Zn  Zn7  1  0.001134  0.502889  0.000000  1
  Zn  Zn8  1  0.502889  0.001134  0.000000  1
  Zn  Zn9  1  0.502889  0.502889  0.501755  1
  Pt  Pt10  1  0.334496  0.334496  0.667314  1
  Pt  Pt11  1  0.672843  0.998061  0.325218  1
  Pt  Pt12  1  0.998061  0.672843  0.325218  1
  Pt  Pt13  1  0.667181  0.334496  0.000000  1
  Pt  Pt14  1  0.329111  0.659410  0.330300  1
  Pt  Pt15  1  0.998811  0.329111  0.669700  1
  Pt  Pt16  1  0.334496  0.667181  0.000000  1
  Pt  Pt17  1  0.329111  0.998811  0.669700  1
  Pt  Pt18  1  0.659410  0.329111  0.330300  1
  Pt  Pt19  1  0.667181  0.667181  0.332686  1
  Pt  Pt20  1  0.672843  0.347624  0.674782  1
  Pt  Pt21  1  0.347624  0.672843  0.674782  1
  Pt  Pt22  1  0.988719  0.988719  0.000000  1
