# generated using pymatgen
data_Nd6Th2Zn8Ir7Rh
_symmetry_space_group_name_H-M   'P 1'
_cell_length_a   3.99595000
_cell_length_b   7.41290950
_cell_length_c   16.67323727
_cell_angle_alpha   90.07228558
_cell_angle_beta   90.00000000
_cell_angle_gamma   90.00000000
_symmetry_Int_Tables_number   1
_chemical_formula_structural   Nd6Th2Zn8Ir7Rh
_chemical_formula_sum   'Nd6 Th2 Zn8 Ir7 Rh1'
_cell_volume   493.88783384
_cell_formula_units_Z   1
loop_
 _symmetry_equiv_pos_site_id
 _symmetry_equiv_pos_as_xyz
  1  'x, y, z'
loop_
 _atom_site_type_symbol
 _atom_site_label
 _atom_site_symmetry_multiplicity
 _atom_site_fract_x
 _atom_site_fract_y
 _atom_site_fract_z
 _atom_site_occupancy
  Nd  Nd0  1  0.750000  0.330971  0.437712  1
  Nd  Nd1  1  0.750000  0.947925  0.284890  1
  Nd  Nd2  1  0.750000  0.830714  0.062836  1
  Nd  Nd3  1  0.750000  0.447495  0.215051  1
  Nd  Nd4  1  0.250000  0.050782  0.714656  1
  Nd  Nd5  1  0.250000  0.550975  0.785161  1
  Th  Th6  1  0.250000  0.171351  0.939958  1
  Th  Th7  1  0.250000  0.669496  0.560102  1
  Zn  Zn8  1  0.750000  0.010032  0.559911  1
  Zn  Zn9  1  0.250000  0.618089  0.348372  1
  Zn  Zn10  1  0.750000  0.380231  0.653745  1
  Zn  Zn11  1  0.250000  0.502117  0.059979  1
  Zn  Zn12  1  0.750000  0.509925  0.940095  1
  Zn  Zn13  1  0.250000  0.002728  0.440049  1
  Zn  Zn14  1  0.250000  0.117804  0.151686  1
  Zn  Zn15  1  0.750000  0.879574  0.845951  1
  Ir  Ir16  1  0.750000  0.750464  0.440296  1
  Ir  Ir17  1  0.250000  0.240708  0.311582  1
  Ir  Ir18  1  0.750000  0.247645  0.820327  1
  Ir  Ir19  1  0.750000  0.747558  0.680246  1
  Ir  Ir20  1  0.250000  0.251389  0.566030  1
  Ir  Ir21  1  0.250000  0.740783  0.187758  1
  Ir  Ir22  1  0.750000  0.249509  0.059524  1
  Rh  Rh23  1  0.250000  0.751736  0.934085  1
