# generated using pymatgen
data_Ba6Li2NbSbO12
_symmetry_space_group_name_H-M   'P 1'
_cell_length_a   7.17509881
_cell_length_b   7.17509914
_cell_length_c   7.17510002
_cell_angle_alpha   93.24574609
_cell_angle_beta   93.24574652
_cell_angle_gamma   93.24573939
_symmetry_Int_Tables_number   1
_chemical_formula_structural   Ba6Li2NbSbO12
_chemical_formula_sum   'Ba6 Li2 Nb1 Sb1 O12'
_cell_volume   367.54095025
_cell_formula_units_Z   1
loop_
 _symmetry_equiv_pos_site_id
 _symmetry_equiv_pos_as_xyz
  1  'x, y, z'
loop_
 _atom_site_type_symbol
 _atom_site_label
 _atom_site_symmetry_multiplicity
 _atom_site_fract_x
 _atom_site_fract_y
 _atom_site_fract_z
 _atom_site_occupancy
  Ba  Ba0  1  0.249874  0.898509  0.603232  1
  Ba  Ba1  1  0.603232  0.249874  0.898509  1
  Ba  Ba2  1  0.898509  0.603232  0.249874  1
  Ba  Ba3  1  0.750126  0.101491  0.396768  1
  Ba  Ba4  1  0.396768  0.750126  0.101491  1
  Ba  Ba5  1  0.101491  0.396768  0.750126  1
  Li  Li6  1  0.749861  0.749861  0.749861  1
  Li  Li7  1  0.250139  0.250139  0.250139  1
  Nb  Nb8  1  0.000000  0.000000  0.000000  1
  Sb  Sb9  1  0.500000  0.500000  0.500000  1
  O  O10  1  0.043763  0.729734  0.917579  1
  O  O11  1  0.917579  0.043763  0.729734  1
  O  O12  1  0.729734  0.917579  0.043763  1
  O  O13  1  0.457631  0.583939  0.770276  1
  O  O14  1  0.770276  0.457631  0.583939  1
  O  O15  1  0.583939  0.770276  0.457631  1
  O  O16  1  0.956237  0.270266  0.082421  1
  O  O17  1  0.082421  0.956237  0.270266  1
  O  O18  1  0.270266  0.082421  0.956237  1
  O  O19  1  0.542369  0.416061  0.229724  1
  O  O20  1  0.416061  0.229724  0.542369  1
  O  O21  1  0.229724  0.542369  0.416061  1
