# generated using pymatgen
data_YNp7VSe17
_symmetry_space_group_name_H-M   'P 1'
_cell_length_a   8.18034007
_cell_length_b   8.19768677
_cell_length_c   10.87105600
_cell_angle_alpha   80.62167812
_cell_angle_beta   80.62134666
_cell_angle_gamma   65.21151459
_symmetry_Int_Tables_number   1
_chemical_formula_structural   YNp7VSe17
_chemical_formula_sum   'Y1 Np7 V1 Se17'
_cell_volume   649.34060238
_cell_formula_units_Z   1
loop_
 _symmetry_equiv_pos_site_id
 _symmetry_equiv_pos_as_xyz
  1  'x, y, z'
loop_
 _atom_site_type_symbol
 _atom_site_label
 _atom_site_symmetry_multiplicity
 _atom_site_fract_x
 _atom_site_fract_y
 _atom_site_fract_z
 _atom_site_occupancy
  Y  Y0  1  0.815399  0.306836  0.298723  1
  Np  Np1  1  0.299693  0.821117  0.297371  1
  Np  Np2  1  0.179508  0.699698  0.700980  1
  Np  Np3  1  0.697430  0.182654  0.702742  1
  Np  Np4  1  0.204432  0.205702  0.542368  1
  Np  Np5  1  0.795561  0.795756  0.455862  1
  Np  Np6  1  0.681909  0.677213  0.981411  1
  Np  Np7  1  0.319507  0.318302  0.019352  1
  V  V8  1  0.003298  0.996665  0.998374  1
  Se  Se9  1  0.822140  0.431570  0.538895  1
  Se  Se10  1  0.433337  0.820121  0.536238  1
  Se  Se11  1  0.179314  0.566336  0.463907  1
  Se  Se12  1  0.569146  0.175379  0.468017  1
  Se  Se13  1  0.943218  0.321966  0.024418  1
  Se  Se14  1  0.323798  0.945327  0.027765  1
  Se  Se15  1  0.054905  0.676670  0.971261  1
  Se  Se16  1  0.677437  0.056712  0.973609  1
  Se  Se17  1  0.217171  0.210155  0.278035  1
  Se  Se18  1  0.788352  0.786294  0.722476  1
  Se  Se19  1  0.060890  0.058547  0.772636  1
  Se  Se20  1  0.940269  0.940869  0.226517  1
  Se  Se21  1  0.299503  0.303108  0.756353  1
  Se  Se22  1  0.694715  0.704750  0.242396  1
  Se  Se23  1  0.521017  0.521822  0.829922  1
  Se  Se24  1  0.473790  0.482519  0.167260  1
  Se  Se25  1  0.004261  0.993912  0.503112  1
