# generated using pymatgen
data_Tl2AuICl8
_symmetry_space_group_name_H-M   'P 1'
_cell_length_a   5.96347659
_cell_length_b   7.25737145
_cell_length_c   10.27585100
_cell_angle_alpha   57.34149219
_cell_angle_beta   92.18291639
_cell_angle_gamma   91.32377388
_symmetry_Int_Tables_number   1
_chemical_formula_structural   Tl2AuICl8
_chemical_formula_sum   'Tl2 Au1 I1 Cl8'
_cell_volume   374.14576726
_cell_formula_units_Z   1
loop_
 _symmetry_equiv_pos_site_id
 _symmetry_equiv_pos_as_xyz
  1  'x, y, z'
loop_
 _atom_site_type_symbol
 _atom_site_label
 _atom_site_symmetry_multiplicity
 _atom_site_fract_x
 _atom_site_fract_y
 _atom_site_fract_z
 _atom_site_occupancy
  Tl  Tl0  1  0.000000  0.500000  0.500000  1
  Tl  Tl1  1  0.500000  0.500000  0.000000  1
  Au  Au2  1  0.000000  0.000000  0.000000  1
  I  I3  1  0.500000  0.000000  0.500000  1
  Cl  Cl4  1  0.199654  0.958581  0.681115  1
  Cl  Cl5  1  0.712313  0.037647  0.829073  1
  Cl  Cl6  1  0.800346  0.041419  0.318885  1
  Cl  Cl7  1  0.287687  0.962353  0.170927  1
  Cl  Cl8  1  0.984551  0.622665  0.120055  1
  Cl  Cl9  1  0.486129  0.410457  0.367856  1
  Cl  Cl10  1  0.015449  0.377335  0.879945  1
  Cl  Cl11  1  0.513871  0.589543  0.632144  1
