# generated using pymatgen
data_MgTi(NbOs2)2
_symmetry_space_group_name_H-M   'P 1'
_cell_length_a   4.46003800
_cell_length_b   6.30583500
_cell_length_c   13.40248300
_cell_angle_alpha   90.00000000
_cell_angle_beta   90.00046209
_cell_angle_gamma   90.00000000
_symmetry_Int_Tables_number   1
_chemical_formula_structural   MgTi(NbOs2)2
_chemical_formula_sum   'Mg3 Ti3 Nb6 Os12'
_cell_volume   376.93496641
_cell_formula_units_Z   3
loop_
 _symmetry_equiv_pos_site_id
 _symmetry_equiv_pos_as_xyz
  1  'x, y, z'
loop_
 _atom_site_type_symbol
 _atom_site_label
 _atom_site_symmetry_multiplicity
 _atom_site_fract_x
 _atom_site_fract_y
 _atom_site_fract_z
 _atom_site_occupancy
  Mg  Mg0  1  0.500106  0.000000  0.500583  1
  Mg  Mg1  1  0.999140  0.500000  0.667033  1
  Mg  Mg2  1  0.500025  0.000000  0.832647  1
  Ti  Ti3  1  0.000075  0.500000  0.997294  1
  Ti  Ti4  1  0.500064  0.000000  0.166654  1
  Ti  Ti5  1  0.000077  0.500000  0.335974  1
  Nb  Nb6  1  0.000073  0.000000  0.995456  1
  Nb  Nb7  1  0.500076  0.500000  0.166639  1
  Nb  Nb8  1  0.000078  0.000000  0.337863  1
  Nb  Nb9  1  0.499994  0.500000  0.505914  1
  Nb  Nb10  1  0.000026  0.000000  0.666613  1
  Nb  Nb11  1  0.499974  0.500000  0.827472  1
  Os  Os12  1  0.500085  0.252722  0.003792  1
  Os  Os13  1  0.500085  0.747278  0.003792  1
  Os  Os14  1  0.000112  0.249316  0.166639  1
  Os  Os15  1  0.000112  0.750684  0.166639  1
  Os  Os16  1  0.500080  0.252738  0.329477  1
  Os  Os17  1  0.500080  0.747262  0.329477  1
  Os  Os18  1  0.000104  0.253036  0.495566  1
  Os  Os19  1  0.000104  0.746965  0.495566  1
  Os  Os20  1  0.499673  0.248946  0.666655  1
  Os  Os21  1  0.499673  0.751054  0.666655  1
  Os  Os22  1  0.000093  0.252888  0.837800  1
  Os  Os23  1  0.000093  0.747112  0.837800  1
