# generated using pymatgen
data_K2SrOsO6
_symmetry_space_group_name_H-M   'P 1'
_cell_length_a   6.13320942
_cell_length_b   6.13320965
_cell_length_c   6.13321000
_cell_angle_alpha   120.00000188
_cell_angle_beta   120.00000311
_cell_angle_gamma   60.00000850
_symmetry_Int_Tables_number   1
_chemical_formula_structural   K2SrOsO6
_chemical_formula_sum   'K2 Sr1 Os1 O6'
_cell_volume   163.13549062
_cell_formula_units_Z   1
loop_
 _symmetry_equiv_pos_site_id
 _symmetry_equiv_pos_as_xyz
  1  'x, y, z'
loop_
 _atom_site_type_symbol
 _atom_site_label
 _atom_site_symmetry_multiplicity
 _atom_site_fract_x
 _atom_site_fract_y
 _atom_site_fract_z
 _atom_site_occupancy
  K  K0  1  0.749998  0.749998  0.249998  1
  K  K1  1  0.250000  0.250000  0.749999  1
  Sr  Sr2  1  0.500000  0.500000  0.499999  1
  Os  Os3  1  0.000000  0.000000  0.000000  1
  O  O4  1  0.216054  0.216054  0.216053  1
  O  O5  1  0.783946  0.216053  0.216053  1
  O  O6  1  0.216053  0.783946  0.216053  1
  O  O7  1  0.783947  0.783947  0.783946  1
  O  O8  1  0.783946  0.216054  0.783946  1
  O  O9  1  0.216054  0.783946  0.783946  1
