# generated using pymatgen
data_Y2TmHg5
_symmetry_space_group_name_H-M   'P 1'
_cell_length_a   6.31968391
_cell_length_b   6.31968369
_cell_length_c   10.27396600
_cell_angle_alpha   90.00000000
_cell_angle_beta   90.00000000
_cell_angle_gamma   104.29330744
_symmetry_Int_Tables_number   1
_chemical_formula_structural   Y2TmHg5
_chemical_formula_sum   'Y4 Tm2 Hg10'
_cell_volume   397.62398860
_cell_formula_units_Z   2
loop_
 _symmetry_equiv_pos_site_id
 _symmetry_equiv_pos_as_xyz
  1  'x, y, z'
loop_
 _atom_site_type_symbol
 _atom_site_label
 _atom_site_symmetry_multiplicity
 _atom_site_fract_x
 _atom_site_fract_y
 _atom_site_fract_z
 _atom_site_occupancy
  Y  Y0  1  0.214385  0.785615  0.500000  1
  Y  Y1  1  0.214385  0.785615  0.000000  1
  Y  Y2  1  0.785615  0.214385  0.500000  1
  Y  Y3  1  0.785615  0.214385  0.000000  1
  Tm  Tm4  1  0.565674  0.565674  0.250000  1
  Tm  Tm5  1  0.434326  0.434326  0.750000  1
  Hg  Hg6  1  0.967599  0.967599  0.250000  1
  Hg  Hg7  1  0.032401  0.032401  0.750000  1
  Hg  Hg8  1  0.295502  0.295502  0.027568  1
  Hg  Hg9  1  0.704498  0.704498  0.972432  1
  Hg  Hg10  1  0.295502  0.295502  0.472432  1
  Hg  Hg11  1  0.704498  0.704498  0.527568  1
  Hg  Hg12  1  0.475096  0.036062  0.250000  1
  Hg  Hg13  1  0.963938  0.524904  0.750000  1
  Hg  Hg14  1  0.524904  0.963938  0.750000  1
  Hg  Hg15  1  0.036062  0.475096  0.250000  1
