# generated using pymatgen
data_SmPdPt3Au
_symmetry_space_group_name_H-M   'P 1'
_cell_length_a   5.38916831
_cell_length_b   5.38916784
_cell_length_c   5.38916977
_cell_angle_alpha   59.83436356
_cell_angle_beta   59.83436804
_cell_angle_gamma   59.83437127
_symmetry_Int_Tables_number   1
_chemical_formula_structural   SmPdPt3Au
_chemical_formula_sum   'Sm1 Pd1 Pt3 Au1'
_cell_volume   110.25915255
_cell_formula_units_Z   1
loop_
 _symmetry_equiv_pos_site_id
 _symmetry_equiv_pos_as_xyz
  1  'x, y, z'
loop_
 _atom_site_type_symbol
 _atom_site_label
 _atom_site_symmetry_multiplicity
 _atom_site_fract_x
 _atom_site_fract_y
 _atom_site_fract_z
 _atom_site_occupancy
  Sm  Sm0  1  0.999987  0.999987  0.999987  1
  Pd  Pd1  1  0.624404  0.624404  0.624404  1
  Pt  Pt2  1  0.624337  0.126321  0.624337  1
  Pt  Pt3  1  0.126321  0.624337  0.624337  1
  Pt  Pt4  1  0.624337  0.624337  0.126321  1
  Au  Au5  1  0.250614  0.250614  0.250614  1
