# generated using pymatgen
data_SmEu6TmSb6
_symmetry_space_group_name_H-M   'P 1'
_cell_length_a   8.26629029
_cell_length_b   8.24861899
_cell_length_c   9.54990900
_cell_angle_alpha   55.46063187
_cell_angle_beta   55.29147439
_cell_angle_gamma   71.04965590
_symmetry_Int_Tables_number   1
_chemical_formula_structural   SmEu6TmSb6
_chemical_formula_sum   'Sm1 Eu6 Tm1 Sb6'
_cell_volume   440.94155600
_cell_formula_units_Z   1
loop_
 _symmetry_equiv_pos_site_id
 _symmetry_equiv_pos_as_xyz
  1  'x, y, z'
loop_
 _atom_site_type_symbol
 _atom_site_label
 _atom_site_symmetry_multiplicity
 _atom_site_fract_x
 _atom_site_fract_y
 _atom_site_fract_z
 _atom_site_occupancy
  Sm  Sm0  1  0.640525  0.500490  0.246376  1
  Eu  Eu1  1  0.999284  0.135905  0.111418  1
  Eu  Eu2  1  0.864120  0.999702  0.889771  1
  Eu  Eu3  1  0.499779  0.853437  0.750612  1
  Eu  Eu4  1  0.146924  0.500694  0.248873  1
  Eu  Eu5  1  0.997830  0.647646  0.602927  1
  Eu  Eu6  1  0.352976  0.002098  0.397284  1
  Tm  Tm7  1  0.500328  0.360730  0.750800  1
  Sb  Sb8  1  0.859369  0.139916  0.502688  1
  Sb  Sb9  1  0.625060  0.373016  0.996009  1
  Sb  Sb10  1  0.262759  0.258356  0.624029  1
  Sb  Sb11  1  0.739099  0.734763  0.382857  1
  Sb  Sb12  1  0.128466  0.613229  0.877367  1
  Sb  Sb13  1  0.383479  0.880018  0.118991  1
