# generated using pymatgen
data_Ba2Ag3(PtO2)7
_symmetry_space_group_name_H-M   'P 1'
_cell_length_a   6.17780304
_cell_length_b   6.17780321
_cell_length_c   11.11068000
_cell_angle_alpha   89.91990575
_cell_angle_beta   89.91990575
_cell_angle_gamma   61.19373677
_symmetry_Int_Tables_number   1
_chemical_formula_structural   Ba2Ag3(PtO2)7
_chemical_formula_sum   'Ba2 Ag3 Pt7 O14'
_cell_volume   371.56792249
_cell_formula_units_Z   1
loop_
 _symmetry_equiv_pos_site_id
 _symmetry_equiv_pos_as_xyz
  1  'x, y, z'
loop_
 _atom_site_type_symbol
 _atom_site_label
 _atom_site_symmetry_multiplicity
 _atom_site_fract_x
 _atom_site_fract_y
 _atom_site_fract_z
 _atom_site_occupancy
  Ba  Ba0  1  0.499599  0.499599  0.710109  1
  Ba  Ba1  1  0.500401  0.500401  0.289891  1
  Ag  Ag2  1  0.833129  0.833129  0.193114  1
  Ag  Ag3  1  0.166871  0.166871  0.806886  1
  Ag  Ag4  1  0.000000  0.000000  0.500000  1
  Pt  Pt5  1  0.000000  0.000000  0.000000  1
  Pt  Pt6  1  0.833416  0.833416  0.772658  1
  Pt  Pt7  1  0.166584  0.166584  0.227342  1
  Pt  Pt8  1  0.000000  0.500000  0.000000  1
  Pt  Pt9  1  0.500000  0.000000  0.500000  1
  Pt  Pt10  1  0.000000  0.500000  0.500000  1
  Pt  Pt11  1  0.500000  0.000000  0.000000  1
  O  O12  1  0.689698  0.124378  0.894970  1
  O  O13  1  0.685960  0.685960  0.897530  1
  O  O14  1  0.483445  0.004794  0.320506  1
  O  O15  1  0.363177  0.363177  0.500602  1
  O  O16  1  0.995206  0.516555  0.679494  1
  O  O17  1  0.004053  0.004053  0.315672  1
  O  O18  1  0.516555  0.995206  0.679494  1
  O  O19  1  0.124378  0.689698  0.894970  1
  O  O20  1  0.310302  0.875622  0.105030  1
  O  O21  1  0.636823  0.636823  0.499398  1
  O  O22  1  0.314040  0.314040  0.102470  1
  O  O23  1  0.004794  0.483445  0.320506  1
  O  O24  1  0.995947  0.995947  0.684328  1
  O  O25  1  0.875622  0.310302  0.105030  1
