# generated using pymatgen
data_Tb16Cd4IrPdRu2
_symmetry_space_group_name_H-M   'P 1'
_cell_length_a   9.68191218
_cell_length_b   9.67804202
_cell_length_c   9.67804089
_cell_angle_alpha   59.98575411
_cell_angle_beta   59.98226671
_cell_angle_gamma   59.98227176
_symmetry_Int_Tables_number   1
_chemical_formula_structural   Tb16Cd4IrPdRu2
_chemical_formula_sum   'Tb16 Cd4 Ir1 Pd1 Ru2'
_cell_volume   640.99980867
_cell_formula_units_Z   1
loop_
 _symmetry_equiv_pos_site_id
 _symmetry_equiv_pos_as_xyz
  1  'x, y, z'
loop_
 _atom_site_type_symbol
 _atom_site_label
 _atom_site_symmetry_multiplicity
 _atom_site_fract_x
 _atom_site_fract_y
 _atom_site_fract_z
 _atom_site_occupancy
  Tb  Tb0  1  0.596434  0.597575  0.597575  1
  Tb  Tb1  1  0.602904  0.604480  0.199242  1
  Tb  Tb2  1  0.602904  0.199242  0.604480  1
  Tb  Tb3  1  0.199851  0.602952  0.602952  1
  Tb  Tb4  1  0.054555  0.440531  0.440531  1
  Tb  Tb5  1  0.437337  0.060987  0.060987  1
  Tb  Tb6  1  0.439995  0.053523  0.439682  1
  Tb  Tb7  1  0.061787  0.437933  0.059163  1
  Tb  Tb8  1  0.439995  0.439682  0.053523  1
  Tb  Tb9  1  0.061787  0.059163  0.437933  1
  Tb  Tb10  1  0.188911  0.811997  0.811997  1
  Tb  Tb11  1  0.814675  0.187074  0.187074  1
  Tb  Tb12  1  0.811370  0.188802  0.813199  1
  Tb  Tb13  1  0.187526  0.815256  0.187809  1
  Tb  Tb14  1  0.811370  0.813199  0.188802  1
  Tb  Tb15  1  0.187526  0.187809  0.815256  1
  Cd  Cd16  1  0.830699  0.830810  0.830810  1
  Cd  Cd17  1  0.830567  0.830540  0.507008  1
  Cd  Cd18  1  0.830567  0.507008  0.830540  1
  Cd  Cd19  1  0.506868  0.830514  0.830514  1
  Ir  Ir20  1  0.825601  0.391177  0.391177  1
  Pd  Pd21  1  0.393184  0.392303  0.392303  1
  Ru  Ru22  1  0.391794  0.390957  0.826490  1
  Ru  Ru23  1  0.391794  0.826490  0.390957  1
