# generated using pymatgen
data_Er9ScZn3Bi2Au
_symmetry_space_group_name_H-M   'P 1'
_cell_length_a   8.55469097
_cell_length_b   8.55469046
_cell_length_c   8.55823001
_cell_angle_alpha   123.98806067
_cell_angle_beta   124.04993583
_cell_angle_gamma   83.14262080
_symmetry_Int_Tables_number   1
_chemical_formula_structural   Er9ScZn3Bi2Au
_chemical_formula_sum   'Er9 Sc1 Zn3 Bi2 Au1'
_cell_volume   412.83579229
_cell_formula_units_Z   1
loop_
 _symmetry_equiv_pos_site_id
 _symmetry_equiv_pos_as_xyz
  1  'x, y, z'
loop_
 _atom_site_type_symbol
 _atom_site_label
 _atom_site_symmetry_multiplicity
 _atom_site_fract_x
 _atom_site_fract_y
 _atom_site_fract_z
 _atom_site_occupancy
  Er  Er0  1  0.000202  0.000252  0.000453  1
  Er  Er1  1  0.509065  0.013600  0.806309  1
  Er  Er2  1  0.206113  0.704400  0.193922  1
  Er  Er3  1  0.014210  0.206995  0.503484  1
  Er  Er4  1  0.704040  0.510320  0.496977  1
  Er  Er5  1  0.489519  0.987807  0.193922  1
  Er  Er6  1  0.792711  0.297246  0.806309  1
  Er  Er7  1  0.986657  0.792937  0.496977  1
  Er  Er8  1  0.296489  0.489274  0.503484  1
  Sc  Sc9  1  0.500068  0.500001  0.000069  1
  Zn  Zn10  1  0.140307  0.639017  0.779323  1
  Zn  Zn11  1  0.857619  0.362418  0.220038  1
  Zn  Zn12  1  0.639481  0.857386  0.496867  1
  Bi  Bi13  1  0.252055  0.253687  0.000197  1
  Bi  Bi14  1  0.746511  0.748142  0.000197  1
  Au  Au15  1  0.364953  0.136519  0.501472  1
