# generated using pymatgen
data_Gd5Er(Lu2Sn3)2
_symmetry_space_group_name_H-M   'P 1'
_cell_length_a   8.91234200
_cell_length_b   8.91234226
_cell_length_c   6.45702600
_cell_angle_alpha   90.00000000
_cell_angle_beta   90.00000000
_cell_angle_gamma   119.85153149
_symmetry_Int_Tables_number   1
_chemical_formula_structural   Gd5Er(Lu2Sn3)2
_chemical_formula_sum   'Gd5 Er1 Lu4 Sn6'
_cell_volume   444.83060389
_cell_formula_units_Z   1
loop_
 _symmetry_equiv_pos_site_id
 _symmetry_equiv_pos_as_xyz
  1  'x, y, z'
loop_
 _atom_site_type_symbol
 _atom_site_label
 _atom_site_symmetry_multiplicity
 _atom_site_fract_x
 _atom_site_fract_y
 _atom_site_fract_z
 _atom_site_occupancy
  Gd  Gd0  1  0.239468  0.999501  0.750000  1
  Gd  Gd1  1  0.999501  0.239468  0.750000  1
  Gd  Gd2  1  0.242139  0.242139  0.250000  1
  Gd  Gd3  1  0.760925  0.999714  0.250000  1
  Gd  Gd4  1  0.999714  0.760925  0.250000  1
  Er  Er5  1  0.758702  0.758702  0.750000  1
  Lu  Lu6  1  0.666867  0.333026  0.999823  1
  Lu  Lu7  1  0.333026  0.666867  0.999823  1
  Lu  Lu8  1  0.333026  0.666867  0.500177  1
  Lu  Lu9  1  0.666867  0.333026  0.500177  1
  Sn  Sn10  1  0.399132  0.399132  0.750000  1
  Sn  Sn11  1  0.602699  0.997884  0.750000  1
  Sn  Sn12  1  0.997884  0.602699  0.750000  1
  Sn  Sn13  1  0.601949  0.601949  0.250000  1
  Sn  Sn14  1  0.398154  0.999947  0.250000  1
  Sn  Sn15  1  0.999947  0.398154  0.250000  1
