# generated using pymatgen
data_Ho4MnRe6Os
_symmetry_space_group_name_H-M   'P 1'
_cell_length_a   5.30618600
_cell_length_b   5.30618524
_cell_length_c   9.05300600
_cell_angle_alpha   90.00000000
_cell_angle_beta   90.00000000
_cell_angle_gamma   120.00000471
_symmetry_Int_Tables_number   1
_chemical_formula_structural   Ho4MnRe6Os
_chemical_formula_sum   'Ho4 Mn1 Re6 Os1'
_cell_volume   220.74368908
_cell_formula_units_Z   1
loop_
 _symmetry_equiv_pos_site_id
 _symmetry_equiv_pos_as_xyz
  1  'x, y, z'
loop_
 _atom_site_type_symbol
 _atom_site_label
 _atom_site_symmetry_multiplicity
 _atom_site_fract_x
 _atom_site_fract_y
 _atom_site_fract_z
 _atom_site_occupancy
  Ho  Ho0  1  0.333333  0.666667  0.437022  1
  Ho  Ho1  1  0.666667  0.333333  0.562978  1
  Ho  Ho2  1  0.666667  0.333333  0.938290  1
  Ho  Ho3  1  0.333333  0.666667  0.061710  1
  Mn  Mn4  1  0.000000  0.000000  0.500000  1
  Re  Re5  1  0.831104  0.168896  0.252432  1
  Re  Re6  1  0.831104  0.662207  0.252432  1
  Re  Re7  1  0.337793  0.168896  0.252432  1
  Re  Re8  1  0.168896  0.831104  0.747568  1
  Re  Re9  1  0.168896  0.337793  0.747568  1
  Re  Re10  1  0.662207  0.831104  0.747568  1
  Os  Os11  1  0.000000  0.000000  0.000000  1
