# generated using pymatgen
data_Er3Ag2Hg3Pt
_symmetry_space_group_name_H-M   'P 1'
_cell_length_a   7.96076800
_cell_length_b   7.96076772
_cell_length_c   3.69934100
_cell_angle_alpha   90.00000000
_cell_angle_beta   90.00000000
_cell_angle_gamma   120.00000116
_symmetry_Int_Tables_number   1
_chemical_formula_structural   Er3Ag2Hg3Pt
_chemical_formula_sum   'Er3 Ag2 Hg3 Pt1'
_cell_volume   203.03219612
_cell_formula_units_Z   1
loop_
 _symmetry_equiv_pos_site_id
 _symmetry_equiv_pos_as_xyz
  1  'x, y, z'
loop_
 _atom_site_type_symbol
 _atom_site_label
 _atom_site_symmetry_multiplicity
 _atom_site_fract_x
 _atom_site_fract_y
 _atom_site_fract_z
 _atom_site_occupancy
  Er  Er0  1  0.616224  0.032316  0.500000  1
  Er  Er1  1  0.416091  0.383776  0.500000  1
  Er  Er2  1  0.967684  0.583909  0.500000  1
  Ag  Ag3  1  0.333333  0.666667  0.000000  1
  Ag  Ag4  1  0.000000  0.000000  0.500000  1
  Hg  Hg5  1  0.717857  0.731432  0.000000  1
  Hg  Hg6  1  0.013574  0.282143  0.000000  1
  Hg  Hg7  1  0.268568  0.986426  0.000000  1
  Pt  Pt8  1  0.666667  0.333333  0.000000  1
