# generated using pymatgen
data_DyY7Sc11Si16Ru
_symmetry_space_group_name_H-M   'P 1'
_cell_length_a   7.01970301
_cell_length_b   7.37176136
_cell_length_c   13.92592701
_cell_angle_alpha   90.00259656
_cell_angle_beta   89.99608683
_cell_angle_gamma   90.07336516
_symmetry_Int_Tables_number   1
_chemical_formula_structural   DyY7Sc11Si16Ru
_chemical_formula_sum   'Dy1 Y7 Sc11 Si16 Ru1'
_cell_volume   720.63236515
_cell_formula_units_Z   1
loop_
 _symmetry_equiv_pos_site_id
 _symmetry_equiv_pos_as_xyz
  1  'x, y, z'
loop_
 _atom_site_type_symbol
 _atom_site_label
 _atom_site_symmetry_multiplicity
 _atom_site_fract_x
 _atom_site_fract_y
 _atom_site_fract_z
 _atom_site_occupancy
  Dy  Dy0  1  0.488684  0.672699  0.598200  1
  Y  Y1  1  0.011511  0.177442  0.093602  1
  Y  Y2  1  0.993005  0.818560  0.900896  1
  Y  Y3  1  0.488696  0.672639  0.901879  1
  Y  Y4  1  0.992996  0.818539  0.599100  1
  Y  Y5  1  0.510988  0.324030  0.095065  1
  Y  Y6  1  0.011526  0.177457  0.406398  1
  Y  Y7  1  0.510974  0.324070  0.404962  1
  Sc  Sc8  1  0.840734  0.496468  0.250004  1
  Sc  Sc9  1  0.341165  0.002919  0.249981  1
  Sc  Sc10  1  0.658187  0.997087  0.749968  1
  Sc  Sc11  1  0.326447  0.177679  0.627010  1
  Sc  Sc12  1  0.671571  0.824336  0.374631  1
  Sc  Sc13  1  0.171911  0.674577  0.376326  1
  Sc  Sc14  1  0.671618  0.824338  0.125412  1
  Sc  Sc15  1  0.827188  0.330747  0.628019  1
  Sc  Sc16  1  0.326458  0.177681  0.872976  1
  Sc  Sc17  1  0.827275  0.330699  0.871967  1
  Sc  Sc18  1  0.171913  0.674590  0.123686  1
  Si  Si19  1  0.030177  0.118693  0.750009  1
  Si  Si20  1  0.971598  0.884921  0.249994  1
  Si  Si21  1  0.468247  0.616421  0.249991  1
  Si  Si22  1  0.517583  0.393653  0.749955  1
  Si  Si23  1  0.285885  0.866481  0.749934  1
  Si  Si24  1  0.715786  0.128151  0.250001  1
  Si  Si25  1  0.214440  0.372061  0.249997  1
  Si  Si26  1  0.794871  0.628343  0.749964  1
  Si  Si27  1  0.157008  0.465095  0.546293  1
  Si  Si28  1  0.843444  0.535982  0.463110  1
  Si  Si29  1  0.345207  0.964414  0.463173  1
  Si  Si30  1  0.843480  0.535959  0.036908  1
  Si  Si31  1  0.658355  0.034397  0.539957  1
  Si  Si32  1  0.156875  0.465008  0.953728  1
  Si  Si33  1  0.658390  0.034483  0.960058  1
  Si  Si34  1  0.345194  0.964480  0.036864  1
  Ru  Ru35  1  0.150614  0.494901  0.749984  1
