# generated using pymatgen
data_Pr3Gd(Al8Pt3)3
_symmetry_space_group_name_H-M   'P 1'
_cell_length_a   7.59473356
_cell_length_b   7.59299973
_cell_length_c   13.26332900
_cell_angle_alpha   84.53233696
_cell_angle_beta   101.02152375
_cell_angle_gamma   119.86525236
_symmetry_Int_Tables_number   1
_chemical_formula_structural   Pr3Gd(Al8Pt3)3
_chemical_formula_sum   'Pr3 Gd1 Al24 Pt9'
_cell_volume   651.04651545
_cell_formula_units_Z   1
loop_
 _symmetry_equiv_pos_site_id
 _symmetry_equiv_pos_as_xyz
  1  'x, y, z'
loop_
 _atom_site_type_symbol
 _atom_site_label
 _atom_site_symmetry_multiplicity
 _atom_site_fract_x
 _atom_site_fract_y
 _atom_site_fract_z
 _atom_site_occupancy
  Pr  Pr0  1  0.562186  0.167992  0.191888  1
  Pr  Pr1  1  0.768160  0.501892  0.808135  1
  Pr  Pr2  1  0.231917  0.498438  0.191595  1
  Gd  Gd3  1  0.436539  0.831558  0.805800  1
  Al  Al4  1  0.479627  0.164490  0.944195  1
  Al  Al5  1  0.519907  0.833872  0.051912  1
  Al  Al6  1  0.021311  0.167485  0.561035  1
  Al  Al7  1  0.979283  0.832282  0.440197  1
  Al  Al8  1  0.353901  0.833435  0.558710  1
  Al  Al9  1  0.646474  0.166493  0.442630  1
  Al  Al10  1  0.619702  0.834414  0.334306  1
  Al  Al11  1  0.381035  0.165154  0.667931  1
  Al  Al12  1  0.056465  0.493667  0.667822  1
  Al  Al13  1  0.944796  0.506892  0.334035  1
  Al  Al14  1  0.730079  0.840794  0.666481  1
  Al  Al15  1  0.269977  0.159139  0.335559  1
  Al  Al16  1  0.149234  0.500252  0.944620  1
  Al  Al17  1  0.851814  0.502030  0.053432  1
  Al  Al18  1  0.816934  0.833993  0.954069  1
  Al  Al19  1  0.180249  0.165607  0.042696  1
  Al  Al20  1  0.314504  0.500570  0.442084  1
  Al  Al21  1  0.685833  0.499509  0.558978  1
  Al  Al22  1  0.099564  0.836183  0.183995  1
  Al  Al23  1  0.897711  0.160675  0.816004  1
  Al  Al24  1  0.303696  0.368709  0.814818  1
  Al  Al25  1  0.695315  0.633714  0.185248  1
  Al  Al26  1  0.105544  0.962446  0.815272  1
  Al  Al27  1  0.896866  0.037971  0.184579  1
  Pt  Pt28  1  0.385311  0.506872  0.637295  1
  Pt  Pt29  1  0.615720  0.494819  0.364263  1
  Pt  Pt30  1  0.171143  0.829056  0.999235  1
  Pt  Pt31  1  0.828670  0.170863  0.999364  1
  Pt  Pt32  1  0.293699  0.833063  0.363596  1
  Pt  Pt33  1  0.705201  0.165705  0.637641  1
  Pt  Pt34  1  0.047422  0.827379  0.636140  1
  Pt  Pt35  1  0.954145  0.172321  0.365287  1
  Pt  Pt36  1  0.500069  0.500269  0.999158  1
