# generated using pymatgen
data_Dy3TmOsI4
_symmetry_space_group_name_H-M   'P 1'
_cell_length_a   11.63727700
_cell_length_b   11.63727960
_cell_length_c   6.16482648
_cell_angle_alpha   90.00122870
_cell_angle_beta   90.00123282
_cell_angle_gamma   90.06147920
_symmetry_Int_Tables_number   1
_chemical_formula_structural   Dy3TmOsI4
_chemical_formula_sum   'Dy6 Tm2 Os2 I8'
_cell_volume   834.87882817
_cell_formula_units_Z   2
loop_
 _symmetry_equiv_pos_site_id
 _symmetry_equiv_pos_as_xyz
  1  'x, y, z'
loop_
 _atom_site_type_symbol
 _atom_site_label
 _atom_site_symmetry_multiplicity
 _atom_site_fract_x
 _atom_site_fract_y
 _atom_site_fract_z
 _atom_site_occupancy
  Dy  Dy0  1  0.079720  0.192219  0.000856  1
  Dy  Dy1  1  0.192219  0.079720  0.500856  1
  Dy  Dy2  1  0.921208  0.807085  0.999561  1
  Dy  Dy3  1  0.920059  0.192211  0.499267  1
  Dy  Dy4  1  0.192211  0.920059  0.999267  1
  Dy  Dy5  1  0.807085  0.921208  0.499561  1
  Tm  Tm6  1  0.811965  0.077174  0.001482  1
  Tm  Tm7  1  0.077174  0.811965  0.501482  1
  Os  Os8  1  0.000216  0.999856  0.250257  1
  Os  Os9  1  0.999856  0.000216  0.750257  1
  I  I10  1  0.653808  0.143638  0.488652  1
  I  I11  1  0.857584  0.654934  0.506045  1
  I  I12  1  0.345369  0.144169  0.993931  1
  I  I13  1  0.144169  0.345369  0.493931  1
  I  I14  1  0.654934  0.857584  0.006045  1
  I  I15  1  0.343799  0.854986  0.509948  1
  I  I16  1  0.143638  0.653808  0.988652  1
  I  I17  1  0.854986  0.343799  0.009948  1
