# generated using pymatgen
data_Sm2Th2Zn3Si5
_symmetry_space_group_name_H-M   'P 1'
_cell_length_a   4.15116400
_cell_length_b   4.15116445
_cell_length_c   16.63272300
_cell_angle_alpha   90.00000000
_cell_angle_beta   90.00000000
_cell_angle_gamma   119.99999641
_symmetry_Int_Tables_number   1
_chemical_formula_structural   Sm2Th2Zn3Si5
_chemical_formula_sum   'Sm2 Th2 Zn3 Si5'
_cell_volume   248.21832021
_cell_formula_units_Z   1
loop_
 _symmetry_equiv_pos_site_id
 _symmetry_equiv_pos_as_xyz
  1  'x, y, z'
loop_
 _atom_site_type_symbol
 _atom_site_label
 _atom_site_symmetry_multiplicity
 _atom_site_fract_x
 _atom_site_fract_y
 _atom_site_fract_z
 _atom_site_occupancy
  Sm  Sm0  1  0.333333  0.666667  0.118916  1
  Sm  Sm1  1  0.333333  0.666667  0.626424  1
  Th  Th2  1  0.333333  0.666667  0.373165  1
  Th  Th3  1  0.333333  0.666667  0.880277  1
  Zn  Zn4  1  0.666667  0.333333  0.501304  1
  Zn  Zn5  1  0.000000  0.000000  0.246867  1
  Zn  Zn6  1  0.000000  0.000000  0.750252  1
  Si  Si7  1  0.666667  0.333333  0.249298  1
  Si  Si8  1  0.666667  0.333333  0.749496  1
  Si  Si9  1  0.000000  0.000000  0.002198  1
  Si  Si10  1  0.000000  0.000000  0.500446  1
  Si  Si11  1  0.666667  0.333333  0.001357  1
