# generated using pymatgen
data_Dy6Y2Si12Ir3Rh
_symmetry_space_group_name_H-M   'P 1'
_cell_length_a   8.16964900
_cell_length_b   8.16964998
_cell_length_c   7.93851900
_cell_angle_alpha   90.00000000
_cell_angle_beta   90.00000000
_cell_angle_gamma   119.99999196
_symmetry_Int_Tables_number   1
_chemical_formula_structural   Dy6Y2Si12Ir3Rh
_chemical_formula_sum   'Dy6 Y2 Si12 Ir3 Rh1'
_cell_volume   458.85662207
_cell_formula_units_Z   1
loop_
 _symmetry_equiv_pos_site_id
 _symmetry_equiv_pos_as_xyz
  1  'x, y, z'
loop_
 _atom_site_type_symbol
 _atom_site_label
 _atom_site_symmetry_multiplicity
 _atom_site_fract_x
 _atom_site_fract_y
 _atom_site_fract_z
 _atom_site_occupancy
  Dy  Dy0  1  0.509510  0.490490  0.250162  1
  Dy  Dy1  1  0.509510  0.019020  0.250162  1
  Dy  Dy2  1  0.980980  0.490490  0.250162  1
  Dy  Dy3  1  0.491003  0.508997  0.749900  1
  Dy  Dy4  1  0.491003  0.982005  0.749900  1
  Dy  Dy5  1  0.017995  0.508997  0.749900  1
  Y  Y6  1  0.000000  0.000000  0.249005  1
  Y  Y7  1  0.000000  0.000000  0.750358  1
  Si  Si8  1  0.166932  0.833068  0.498970  1
  Si  Si9  1  0.166932  0.333865  0.498970  1
  Si  Si10  1  0.666135  0.833068  0.498970  1
  Si  Si11  1  0.833164  0.166836  0.500589  1
  Si  Si12  1  0.833164  0.666325  0.500589  1
  Si  Si13  1  0.333675  0.166836  0.500589  1
  Si  Si14  1  0.833288  0.166712  0.999479  1
  Si  Si15  1  0.833288  0.666575  0.999479  1
  Si  Si16  1  0.333425  0.166712  0.999479  1
  Si  Si17  1  0.167298  0.832702  0.999989  1
  Si  Si18  1  0.167298  0.334598  0.999989  1
  Si  Si19  1  0.665402  0.832702  0.999989  1
  Ir  Ir20  1  0.333333  0.666667  0.468829  1
  Ir  Ir21  1  0.666667  0.333333  0.532607  1
  Ir  Ir22  1  0.666667  0.333333  0.966364  1
  Rh  Rh23  1  0.333333  0.666667  0.035564  1
