# generated using pymatgen
data_Dy2Ho6Re3TcB24
_symmetry_space_group_name_H-M   'P 1'
_cell_length_a   3.67530700
_cell_length_b   9.15878509
_cell_length_c   11.54054600
_cell_angle_alpha   90.02714973
_cell_angle_beta   90.00000000
_cell_angle_gamma   90.00000000
_symmetry_Int_Tables_number   1
_chemical_formula_structural   Dy2Ho6Re3TcB24
_chemical_formula_sum   'Dy2 Ho6 Re3 Tc1 B24'
_cell_volume   388.47027956
_cell_formula_units_Z   1
loop_
 _symmetry_equiv_pos_site_id
 _symmetry_equiv_pos_as_xyz
  1  'x, y, z'
loop_
 _atom_site_type_symbol
 _atom_site_label
 _atom_site_symmetry_multiplicity
 _atom_site_fract_x
 _atom_site_fract_y
 _atom_site_fract_z
 _atom_site_occupancy
  Dy  Dy0  1  0.000000  0.323877  0.413817  1
  Dy  Dy1  1  0.000000  0.676415  0.585892  1
  Ho  Ho2  1  0.000000  0.823723  0.086024  1
  Ho  Ho3  1  0.000000  0.176509  0.914008  1
  Ho  Ho4  1  0.000000  0.942067  0.369641  1
  Ho  Ho5  1  0.000000  0.056821  0.629812  1
  Ho  Ho6  1  0.000000  0.443743  0.130633  1
  Ho  Ho7  1  0.000000  0.556840  0.870314  1
  Re  Re8  1  0.000000  0.361199  0.679410  1
  Re  Re9  1  0.000000  0.138653  0.179249  1
  Re  Re10  1  0.000000  0.861423  0.820814  1
  Tc  Tc11  1  0.000000  0.638949  0.320501  1
  B  B12  1  0.500000  0.553557  0.432645  1
  B  B13  1  0.500000  0.446658  0.567042  1
  B  B14  1  0.500000  0.053365  0.066974  1
  B  B15  1  0.500000  0.946763  0.932996  1
  B  B16  1  0.500000  0.748911  0.418416  1
  B  B17  1  0.500000  0.250670  0.581372  1
  B  B18  1  0.500000  0.249442  0.081299  1
  B  B19  1  0.500000  0.750799  0.918756  1
  B  B20  1  0.500000  0.791893  0.265284  1
  B  B21  1  0.500000  0.207701  0.734535  1
  B  B22  1  0.500000  0.292168  0.234596  1
  B  B23  1  0.500000  0.707811  0.765582  1
  B  B24  1  0.500000  0.631135  0.185642  1
  B  B25  1  0.500000  0.369086  0.814503  1
  B  B26  1  0.500000  0.130629  0.314412  1
  B  B27  1  0.500000  0.869153  0.685592  1
  B  B28  1  0.500000  0.982119  0.211816  1
  B  B29  1  0.500000  0.017800  0.788047  1
  B  B30  1  0.500000  0.482705  0.288143  1
  B  B31  1  0.500000  0.517668  0.712069  1
  B  B32  1  0.500000  0.600279  0.028142  1
  B  B33  1  0.500000  0.399955  0.972262  1
  B  B34  1  0.500000  0.099603  0.471909  1
  B  B35  1  0.500000  0.899912  0.527849  1
