# generated using pymatgen
data_CaFeSb12RuPt2
_symmetry_space_group_name_H-M   'P 1'
_cell_length_a   8.20882001
_cell_length_b   8.17576653
_cell_length_c   8.17747538
_cell_angle_alpha   109.44449477
_cell_angle_beta   109.51000374
_cell_angle_gamma   109.47992209
_symmetry_Int_Tables_number   1
_chemical_formula_structural   CaFeSb12RuPt2
_chemical_formula_sum   'Ca1 Fe1 Sb12 Ru1 Pt2'
_cell_volume   422.37202916
_cell_formula_units_Z   1
loop_
 _symmetry_equiv_pos_site_id
 _symmetry_equiv_pos_as_xyz
  1  'x, y, z'
loop_
 _atom_site_type_symbol
 _atom_site_label
 _atom_site_symmetry_multiplicity
 _atom_site_fract_x
 _atom_site_fract_y
 _atom_site_fract_z
 _atom_site_occupancy
  Ca  Ca0  1  0.000000  0.000000  0.000000  1
  Fe  Fe1  1  0.500000  0.000000  0.000000  1
  Sb  Sb2  1  0.158624  0.494711  0.344654  1
  Sb  Sb3  1  0.508918  0.674972  0.844696  1
  Sb  Sb4  1  0.345951  0.852480  0.177501  1
  Sb  Sb5  1  0.806528  0.655439  0.150959  1
  Sb  Sb6  1  0.655166  0.841284  0.505262  1
  Sb  Sb7  1  0.193472  0.344561  0.849041  1
  Sb  Sb8  1  0.654049  0.147520  0.822499  1
  Sb  Sb9  1  0.344834  0.158716  0.494738  1
  Sb  Sb10  1  0.491082  0.325028  0.155304  1
  Sb  Sb11  1  0.841376  0.505289  0.655346  1
  Sb  Sb12  1  0.832212  0.177231  0.324613  1
  Sb  Sb13  1  0.167788  0.822769  0.675387  1
  Ru  Ru14  1  0.500000  0.500000  0.500000  1
  Pt  Pt15  1  0.000000  0.500000  0.000000  1
  Pt  Pt16  1  0.000000  0.000000  0.500000  1
