# generated using pymatgen
data_Rb2Ho5TmF20
_symmetry_space_group_name_H-M   'P 1'
_cell_length_a   8.22275616
_cell_length_b   8.22275581
_cell_length_c   8.22991900
_cell_angle_alpha   59.97091709
_cell_angle_beta   59.97091849
_cell_angle_gamma   60.05799583
_symmetry_Int_Tables_number   1
_chemical_formula_structural   Rb2Ho5TmF20
_chemical_formula_sum   'Rb2 Ho5 Tm1 F20'
_cell_volume   393.47228321
_cell_formula_units_Z   1
loop_
 _symmetry_equiv_pos_site_id
 _symmetry_equiv_pos_as_xyz
  1  'x, y, z'
loop_
 _atom_site_type_symbol
 _atom_site_label
 _atom_site_symmetry_multiplicity
 _atom_site_fract_x
 _atom_site_fract_y
 _atom_site_fract_z
 _atom_site_occupancy
  Rb  Rb0  1  0.750193  0.750193  0.749791  1
  Rb  Rb1  1  0.250190  0.250190  0.249830  1
  Ho  Ho2  1  0.240588  0.759573  0.240427  1
  Ho  Ho3  1  0.759573  0.240588  0.240427  1
  Ho  Ho4  1  0.240584  0.759574  0.759411  1
  Ho  Ho5  1  0.240442  0.240442  0.759556  1
  Ho  Ho6  1  0.759574  0.240584  0.759411  1
  Tm  Tm7  1  0.759410  0.759410  0.240594  1
  F  F8  1  0.829806  0.170182  0.500006  1
  F  F9  1  0.499975  0.170373  0.829622  1
  F  F10  1  0.828655  0.502252  0.171347  1
  F  F11  1  0.499974  0.170362  0.500027  1
  F  F12  1  0.828664  0.502251  0.497751  1
  F  F13  1  0.170373  0.499975  0.829622  1
  F  F14  1  0.502251  0.828664  0.497751  1
  F  F15  1  0.499991  0.499991  0.170194  1
  F  F16  1  0.889456  0.331500  0.889522  1
  F  F17  1  0.110477  0.110477  0.668502  1
  F  F18  1  0.669101  0.108425  0.111236  1
  F  F19  1  0.110480  0.110480  0.110543  1
  F  F20  1  0.331500  0.889456  0.889522  1
  F  F21  1  0.888766  0.888766  0.891574  1
  F  F22  1  0.888767  0.888767  0.330897  1
  F  F23  1  0.108425  0.669101  0.111236  1
  F  F24  1  0.170182  0.829806  0.500006  1
  F  F25  1  0.502252  0.828655  0.171347  1
  F  F26  1  0.170362  0.499974  0.500027  1
  F  F27  1  0.499993  0.499993  0.829818  1
