# generated using pymatgen
data_La2HoTm3Ta2O14
_symmetry_space_group_name_H-M   'P 1'
_cell_length_a   6.48998520
_cell_length_b   6.48668077
_cell_length_c   7.59684501
_cell_angle_alpha   90.00442423
_cell_angle_beta   90.00103183
_cell_angle_gamma   108.92894813
_symmetry_Int_Tables_number   1
_chemical_formula_structural   La2HoTm3Ta2O14
_chemical_formula_sum   'La2 Ho1 Tm3 Ta2 O14'
_cell_volume   302.52037524
_cell_formula_units_Z   1
loop_
 _symmetry_equiv_pos_site_id
 _symmetry_equiv_pos_as_xyz
  1  'x, y, z'
loop_
 _atom_site_type_symbol
 _atom_site_label
 _atom_site_symmetry_multiplicity
 _atom_site_fract_x
 _atom_site_fract_y
 _atom_site_fract_z
 _atom_site_occupancy
  La  La0  1  0.504250  0.504374  0.500437  1
  La  La1  1  0.496795  0.497136  0.999582  1
  Ho  Ho2  1  0.466883  0.998696  0.252255  1
  Tm  Tm3  1  0.001933  0.531463  0.247800  1
  Tm  Tm4  1  0.998231  0.468166  0.747839  1
  Tm  Tm5  1  0.532427  0.001825  0.752261  1
  Ta  Ta6  1  0.000253  0.000092  0.500521  1
  Ta  Ta7  1  0.999960  0.999785  0.999521  1
  O  O8  1  0.934668  0.066580  0.750014  1
  O  O9  1  0.064687  0.934121  0.249987  1
  O  O10  1  0.352839  0.644388  0.250040  1
  O  O11  1  0.647471  0.352967  0.749964  1
  O  O12  1  0.359372  0.640348  0.749998  1
  O  O13  1  0.641934  0.363185  0.249859  1
  O  O14  1  0.321674  0.068430  0.967251  1
  O  O15  1  0.677376  0.930501  0.471072  1
  O  O16  1  0.317373  0.063926  0.538541  1
  O  O17  1  0.681577  0.934909  0.034723  1
  O  O18  1  0.062870  0.317454  0.462637  1
  O  O19  1  0.937212  0.682057  0.962735  1
  O  O20  1  0.932794  0.677722  0.531431  1
  O  O21  1  0.067422  0.321876  0.031533  1
