# generated using pymatgen
data_Nd6ReIO16
_symmetry_space_group_name_H-M   'P 1'
_cell_length_a   6.28587100
_cell_length_b   7.51491856
_cell_length_c   7.51617718
_cell_angle_alpha   69.48179022
_cell_angle_beta   90.00000000
_cell_angle_gamma   90.00000000
_symmetry_Int_Tables_number   1
_chemical_formula_structural   Nd6ReIO16
_chemical_formula_sum   'Nd6 Re1 I1 O16'
_cell_volume   332.52380849
_cell_formula_units_Z   1
loop_
 _symmetry_equiv_pos_site_id
 _symmetry_equiv_pos_as_xyz
  1  'x, y, z'
loop_
 _atom_site_type_symbol
 _atom_site_label
 _atom_site_symmetry_multiplicity
 _atom_site_fract_x
 _atom_site_fract_y
 _atom_site_fract_z
 _atom_site_occupancy
  Nd  Nd0  1  0.750000  0.112805  0.658549  1
  Nd  Nd1  1  0.250000  0.891732  0.329265  1
  Nd  Nd2  1  0.250000  0.398210  0.398112  1
  Nd  Nd3  1  0.750000  0.600073  0.600156  1
  Nd  Nd4  1  0.250000  0.328986  0.891713  1
  Nd  Nd5  1  0.750000  0.658779  0.112813  1
  Re  Re6  1  0.750000  0.179869  0.179683  1
  I  I7  1  0.250000  0.817572  0.817670  1
  O  O8  1  0.000411  0.336870  0.664323  1
  O  O9  1  0.499514  0.664430  0.336944  1
  O  O10  1  0.000486  0.664430  0.336944  1
  O  O11  1  0.499589  0.336870  0.664323  1
  O  O12  1  0.948534  0.810911  0.810889  1
  O  O13  1  0.449904  0.194534  0.194612  1
  O  O14  1  0.050096  0.194534  0.194612  1
  O  O15  1  0.551466  0.810911  0.810889  1
  O  O16  1  0.750000  0.967317  0.411800  1
  O  O17  1  0.250000  0.030921  0.583669  1
  O  O18  1  0.750000  0.339777  0.339617  1
  O  O19  1  0.250000  0.663018  0.663123  1
  O  O20  1  0.750000  0.411949  0.967366  1
  O  O21  1  0.250000  0.583424  0.030984  1
  O  O22  1  0.750000  0.031852  0.031461  1
  O  O23  1  0.250000  0.970224  0.970483  1
