# generated using pymatgen
data_La3Pr(NdPt)3
_symmetry_space_group_name_H-M   'P 1'
_cell_length_a   6.54749700
_cell_length_b   10.29311457
_cell_length_c   10.29311477
_cell_angle_alpha   120.00558478
_cell_angle_beta   90.00000000
_cell_angle_gamma   90.00000000
_symmetry_Int_Tables_number   1
_chemical_formula_structural   La3Pr(NdPt)3
_chemical_formula_sum   'La6 Pr2 Nd6 Pt6'
_cell_volume   600.72418761
_cell_formula_units_Z   2
loop_
 _symmetry_equiv_pos_site_id
 _symmetry_equiv_pos_as_xyz
  1  'x, y, z'
loop_
 _atom_site_type_symbol
 _atom_site_label
 _atom_site_symmetry_multiplicity
 _atom_site_fract_x
 _atom_site_fract_y
 _atom_site_fract_z
 _atom_site_occupancy
  La  La0  1  0.243153  0.129316  0.870684  1
  La  La1  1  0.243146  0.741283  0.870634  1
  La  La2  1  0.243146  0.129366  0.258717  1
  La  La3  1  0.743153  0.870684  0.129316  1
  La  La4  1  0.743146  0.258717  0.129366  1
  La  La5  1  0.743146  0.870634  0.741283  1
  Pr  Pr6  1  0.459943  0.333324  0.666676  1
  Pr  Pr7  1  0.959943  0.666676  0.333324  1
  Nd  Nd8  1  0.439968  0.538236  0.461764  1
  Nd  Nd9  1  0.440036  0.923654  0.461781  1
  Nd  Nd10  1  0.440036  0.538219  0.076346  1
  Nd  Nd11  1  0.939968  0.461764  0.538236  1
  Nd  Nd12  1  0.940036  0.076346  0.538219  1
  Nd  Nd13  1  0.940036  0.461781  0.923654  1
  Pt  Pt14  1  0.194510  0.811959  0.188041  1
  Pt  Pt15  1  0.194530  0.376079  0.187990  1
  Pt  Pt16  1  0.194530  0.812010  0.623921  1
  Pt  Pt17  1  0.694510  0.188041  0.811959  1
  Pt  Pt18  1  0.694530  0.623921  0.812010  1
  Pt  Pt19  1  0.694530  0.187990  0.376079  1
