# generated using pymatgen
data_CsK3ZrTe4
_symmetry_space_group_name_H-M   'P 1'
_cell_length_a   9.21248200
_cell_length_b   11.10060500
_cell_length_c   16.57683600
_cell_angle_alpha   90.00000000
_cell_angle_beta   90.00000000
_cell_angle_gamma   90.00000000
_symmetry_Int_Tables_number   1
_chemical_formula_structural   CsK3ZrTe4
_chemical_formula_sum   'Cs4 K12 Zr4 Te16'
_cell_volume   1695.21560811
_cell_formula_units_Z   4
loop_
 _symmetry_equiv_pos_site_id
 _symmetry_equiv_pos_as_xyz
  1  'x, y, z'
loop_
 _atom_site_type_symbol
 _atom_site_label
 _atom_site_symmetry_multiplicity
 _atom_site_fract_x
 _atom_site_fract_y
 _atom_site_fract_z
 _atom_site_occupancy
  Cs  Cs0  1  0.000000  0.000000  0.000000  1
  Cs  Cs1  1  0.500000  0.000000  0.500000  1
  Cs  Cs2  1  0.000000  0.500000  0.000000  1
  Cs  Cs3  1  0.500000  0.500000  0.500000  1
  K  K4  1  0.971366  0.750000  0.433496  1
  K  K5  1  0.471366  0.250000  0.066504  1
  K  K6  1  0.028634  0.250000  0.566504  1
  K  K7  1  0.528634  0.750000  0.933496  1
  K  K8  1  0.841433  0.052739  0.267221  1
  K  K9  1  0.341433  0.947261  0.232779  1
  K  K10  1  0.158567  0.552739  0.732779  1
  K  K11  1  0.658567  0.447261  0.767221  1
  K  K12  1  0.158567  0.947261  0.732779  1
  K  K13  1  0.658567  0.052739  0.767221  1
  K  K14  1  0.841433  0.447261  0.267221  1
  K  K15  1  0.341433  0.552739  0.232779  1
  Zr  Zr16  1  0.769018  0.750000  0.674976  1
  Zr  Zr17  1  0.230982  0.250000  0.325024  1
  Zr  Zr18  1  0.730982  0.750000  0.174976  1
  Zr  Zr19  1  0.269018  0.250000  0.825024  1
  Te  Te20  1  0.969194  0.250000  0.817907  1
  Te  Te21  1  0.530806  0.250000  0.317907  1
  Te  Te22  1  0.469194  0.750000  0.682093  1
  Te  Te23  1  0.030806  0.750000  0.182093  1
  Te  Te24  1  0.634236  0.546039  0.097046  1
  Te  Te25  1  0.134236  0.453961  0.402954  1
  Te  Te26  1  0.365764  0.046039  0.902954  1
  Te  Te27  1  0.865764  0.953961  0.597046  1
  Te  Te28  1  0.365764  0.453961  0.902954  1
  Te  Te29  1  0.865764  0.546039  0.597046  1
  Te  Te30  1  0.634236  0.953961  0.097046  1
  Te  Te31  1  0.134236  0.046039  0.402954  1
  Te  Te32  1  0.620153  0.750000  0.330663  1
  Te  Te33  1  0.120153  0.250000  0.169337  1
  Te  Te34  1  0.379847  0.250000  0.669337  1
  Te  Te35  1  0.879847  0.750000  0.830663  1
