# generated using pymatgen
data_Dy3Tm2InSb2
_symmetry_space_group_name_H-M   'P 1'
_cell_length_a   8.94668100
_cell_length_b   8.92922179
_cell_length_c   6.43069100
_cell_angle_alpha   90.00000000
_cell_angle_beta   90.00000000
_cell_angle_gamma   120.06470526
_symmetry_Int_Tables_number   1
_chemical_formula_structural   Dy3Tm2InSb2
_chemical_formula_sum   'Dy6 Tm4 In2 Sb4'
_cell_volume   444.61110034
_cell_formula_units_Z   2
loop_
 _symmetry_equiv_pos_site_id
 _symmetry_equiv_pos_as_xyz
  1  'x, y, z'
loop_
 _atom_site_type_symbol
 _atom_site_label
 _atom_site_symmetry_multiplicity
 _atom_site_fract_x
 _atom_site_fract_y
 _atom_site_fract_z
 _atom_site_occupancy
  Dy  Dy0  1  0.237542  0.000000  0.250000  1
  Dy  Dy1  1  0.762458  0.000000  0.750000  1
  Dy  Dy2  1  0.993637  0.238636  0.250000  1
  Dy  Dy3  1  0.755001  0.761364  0.250000  1
  Dy  Dy4  1  0.244999  0.238636  0.750000  1
  Dy  Dy5  1  0.006363  0.761364  0.750000  1
  Tm  Tm6  1  0.334991  0.669984  0.000000  1
  Tm  Tm7  1  0.665009  0.330016  0.500000  1
  Tm  Tm8  1  0.665009  0.330016  0.000000  1
  Tm  Tm9  1  0.334991  0.669984  0.500000  1
  In  In10  1  0.599826  0.000000  0.250000  1
  In  In11  1  0.400174  0.000000  0.750000  1
  Sb  Sb12  1  0.997780  0.607413  0.250000  1
  Sb  Sb13  1  0.390367  0.392587  0.250000  1
  Sb  Sb14  1  0.609633  0.607413  0.750000  1
  Sb  Sb15  1  0.002220  0.392587  0.750000  1
