# generated using pymatgen
data_Lu2Th(InNi)3
_symmetry_space_group_name_H-M   'P 1'
_cell_length_a   7.33861057
_cell_length_b   7.33861110
_cell_length_c   3.85708200
_cell_angle_alpha   90.00000000
_cell_angle_beta   90.00000000
_cell_angle_gamma   118.65489994
_symmetry_Int_Tables_number   1
_chemical_formula_structural   Lu2Th(InNi)3
_chemical_formula_sum   'Lu2 Th1 In3 Ni3'
_cell_volume   182.28273657
_cell_formula_units_Z   1
loop_
 _symmetry_equiv_pos_site_id
 _symmetry_equiv_pos_as_xyz
  1  'x, y, z'
loop_
 _atom_site_type_symbol
 _atom_site_label
 _atom_site_symmetry_multiplicity
 _atom_site_fract_x
 _atom_site_fract_y
 _atom_site_fract_z
 _atom_site_occupancy
  Lu  Lu0  1  0.410517  0.999934  0.500000  1
  Lu  Lu1  1  0.999934  0.410517  0.500000  1
  Th  Th2  1  0.583898  0.583898  0.500000  1
  In  In3  1  0.749020  0.011382  0.000000  1
  In  In4  1  0.011382  0.749020  0.000000  1
  In  In5  1  0.241670  0.241670  0.000000  1
  Ni  Ni6  1  0.340378  0.666441  0.000000  1
  Ni  Ni7  1  0.666441  0.340378  0.000000  1
  Ni  Ni8  1  0.996759  0.996759  0.500000  1
