# generated using pymatgen
data_Ho4Er4Tc(B8Os)3
_symmetry_space_group_name_H-M   'P 1'
_cell_length_a   3.64335300
_cell_length_b   9.11194744
_cell_length_c   11.49412900
_cell_angle_alpha   89.95047616
_cell_angle_beta   90.00000000
_cell_angle_gamma   90.00000000
_symmetry_Int_Tables_number   1
_chemical_formula_structural   Ho4Er4Tc(B8Os)3
_chemical_formula_sum   'Ho4 Er4 Tc1 B24 Os3'
_cell_volume   381.58242360
_cell_formula_units_Z   1
loop_
 _symmetry_equiv_pos_site_id
 _symmetry_equiv_pos_as_xyz
  1  'x, y, z'
loop_
 _atom_site_type_symbol
 _atom_site_label
 _atom_site_symmetry_multiplicity
 _atom_site_fract_x
 _atom_site_fract_y
 _atom_site_fract_z
 _atom_site_occupancy
  Ho  Ho0  1  0.000000  0.323878  0.412959  1
  Ho  Ho1  1  0.000000  0.677193  0.583717  1
  Ho  Ho2  1  0.000000  0.820343  0.088171  1
  Ho  Ho3  1  0.000000  0.177715  0.914720  1
  Er  Er4  1  0.000000  0.942874  0.372567  1
  Er  Er5  1  0.000000  0.056601  0.627448  1
  Er  Er6  1  0.000000  0.444854  0.128153  1
  Er  Er7  1  0.000000  0.556375  0.872306  1
  Tc  Tc8  1  0.000000  0.637810  0.321181  1
  B  B9  1  0.500000  0.553001  0.433121  1
  B  B10  1  0.500000  0.446431  0.567211  1
  B  B11  1  0.500000  0.053686  0.067028  1
  B  B12  1  0.500000  0.946325  0.933188  1
  B  B13  1  0.500000  0.748348  0.419603  1
  B  B14  1  0.500000  0.251766  0.580297  1
  B  B15  1  0.500000  0.248594  0.080219  1
  B  B16  1  0.500000  0.751500  0.919736  1
  B  B17  1  0.500000  0.791731  0.266309  1
  B  B18  1  0.500000  0.208592  0.733624  1
  B  B19  1  0.500000  0.291378  0.233120  1
  B  B20  1  0.500000  0.708988  0.766322  1
  B  B21  1  0.500000  0.631615  0.185685  1
  B  B22  1  0.500000  0.368217  0.814754  1
  B  B23  1  0.500000  0.131556  0.314155  1
  B  B24  1  0.500000  0.868696  0.685401  1
  B  B25  1  0.500000  0.982834  0.212875  1
  B  B26  1  0.500000  0.017115  0.787407  1
  B  B27  1  0.500000  0.482396  0.287142  1
  B  B28  1  0.500000  0.516848  0.712956  1
  B  B29  1  0.500000  0.606887  0.029210  1
  B  B30  1  0.500000  0.392939  0.970174  1
  B  B31  1  0.500000  0.107313  0.470373  1
  B  B32  1  0.500000  0.893697  0.529958  1
  Os  Os33  1  0.000000  0.361795  0.679421  1
  Os  Os34  1  0.000000  0.137675  0.178183  1
  Os  Os35  1  0.000000  0.862438  0.821308  1
