# generated using pymatgen
data_SrBiRhF12
_symmetry_space_group_name_H-M   'P 1'
_cell_length_a   12.11671154
_cell_length_b   6.08260036
_cell_length_c   6.10074200
_cell_angle_alpha   57.34486394
_cell_angle_beta   56.92591618
_cell_angle_gamma   56.90261567
_symmetry_Int_Tables_number   1
_chemical_formula_structural   SrBiRhF12
_chemical_formula_sum   'Sr1 Bi1 Rh1 F12'
_cell_volume   296.36234982
_cell_formula_units_Z   1
loop_
 _symmetry_equiv_pos_site_id
 _symmetry_equiv_pos_as_xyz
  1  'x, y, z'
loop_
 _atom_site_type_symbol
 _atom_site_label
 _atom_site_symmetry_multiplicity
 _atom_site_fract_x
 _atom_site_fract_y
 _atom_site_fract_z
 _atom_site_occupancy
  Sr  Sr0  1  0.743728  0.504971  0.504283  1
  Bi  Bi1  1  0.020364  0.981076  0.990951  1
  Rh  Rh2  1  0.489034  0.010750  0.004444  1
  F  F3  1  0.180298  0.124789  0.755820  1
  F  F4  1  0.654296  0.121651  0.787599  1
  F  F5  1  0.057625  0.773710  0.350550  1
  F  F6  1  0.555898  0.791788  0.312979  1
  F  F7  1  0.118174  0.644249  0.877787  1
  F  F8  1  0.605398  0.685435  0.886050  1
  F  F9  1  0.439681  0.210999  0.688235  1
  F  F10  1  0.939905  0.223719  0.670518  1
  F  F11  1  0.334919  0.893503  0.215975  1
  F  F12  1  0.836280  0.884560  0.215375  1
  F  F13  1  0.386995  0.318484  0.122435  1
  F  F14  1  0.887407  0.330316  0.117002  1
