# generated using pymatgen
data_Hf9CrGaRe3
_symmetry_space_group_name_H-M   'P 1'
_cell_length_a   8.58754600
_cell_length_b   8.58754464
_cell_length_c   8.57019400
_cell_angle_alpha   90.00000000
_cell_angle_beta   90.00000000
_cell_angle_gamma   119.99999753
_symmetry_Int_Tables_number   1
_chemical_formula_structural   Hf9CrGaRe3
_chemical_formula_sum   'Hf18 Cr2 Ga2 Re6'
_cell_volume   547.34276221
_cell_formula_units_Z   2
loop_
 _symmetry_equiv_pos_site_id
 _symmetry_equiv_pos_as_xyz
  1  'x, y, z'
loop_
 _atom_site_type_symbol
 _atom_site_label
 _atom_site_symmetry_multiplicity
 _atom_site_fract_x
 _atom_site_fract_y
 _atom_site_fract_z
 _atom_site_occupancy
  Hf  Hf0  1  0.192928  0.807072  0.453058  1
  Hf  Hf1  1  0.192928  0.385854  0.453058  1
  Hf  Hf2  1  0.614146  0.807072  0.453058  1
  Hf  Hf3  1  0.807072  0.192928  0.546942  1
  Hf  Hf4  1  0.807072  0.614146  0.546942  1
  Hf  Hf5  1  0.385854  0.192928  0.546942  1
  Hf  Hf6  1  0.807072  0.192928  0.953058  1
  Hf  Hf7  1  0.807072  0.614146  0.953058  1
  Hf  Hf8  1  0.385854  0.192928  0.953058  1
  Hf  Hf9  1  0.192928  0.807072  0.046942  1
  Hf  Hf10  1  0.192928  0.385854  0.046942  1
  Hf  Hf11  1  0.614146  0.807072  0.046942  1
  Hf  Hf12  1  0.540043  0.459957  0.250000  1
  Hf  Hf13  1  0.540043  0.080085  0.250000  1
  Hf  Hf14  1  0.919915  0.459957  0.250000  1
  Hf  Hf15  1  0.459957  0.540043  0.750000  1
  Hf  Hf16  1  0.459957  0.919915  0.750000  1
  Hf  Hf17  1  0.080085  0.540043  0.750000  1
  Cr  Cr18  1  0.000000  0.000000  0.500000  1
  Cr  Cr19  1  0.000000  0.000000  0.000000  1
  Ga  Ga20  1  0.333333  0.666667  0.250000  1
  Ga  Ga21  1  0.666667  0.333333  0.750000  1
  Re  Re22  1  0.892586  0.107414  0.250000  1
  Re  Re23  1  0.892586  0.785172  0.250000  1
  Re  Re24  1  0.214828  0.107414  0.250000  1
  Re  Re25  1  0.107414  0.892586  0.750000  1
  Re  Re26  1  0.107414  0.214828  0.750000  1
  Re  Re27  1  0.785172  0.892586  0.750000  1
