# generated using pymatgen
data_Y3TaB4(Ru5W)2
_symmetry_space_group_name_H-M   'P 1'
_cell_length_a   9.59242326
_cell_length_b   9.59242251
_cell_length_c   3.08709800
_cell_angle_alpha   90.00000000
_cell_angle_beta   90.00000000
_cell_angle_gamma   90.31666834
_symmetry_Int_Tables_number   1
_chemical_formula_structural   Y3TaB4(Ru5W)2
_chemical_formula_sum   'Y3 Ta1 B4 Ru10 W2'
_cell_volume   284.05367772
_cell_formula_units_Z   1
loop_
 _symmetry_equiv_pos_site_id
 _symmetry_equiv_pos_as_xyz
  1  'x, y, z'
loop_
 _atom_site_type_symbol
 _atom_site_label
 _atom_site_symmetry_multiplicity
 _atom_site_fract_x
 _atom_site_fract_y
 _atom_site_fract_z
 _atom_site_occupancy
  Y  Y0  1  0.823888  0.675428  0.000000  1
  Y  Y1  1  0.175428  0.323888  0.000000  1
  Y  Y2  1  0.325552  0.825552  0.000000  1
  Ta  Ta3  1  0.676198  0.176198  0.000000  1
  B  B4  1  0.622456  0.881743  0.000000  1
  B  B5  1  0.381743  0.122456  0.000000  1
  B  B6  1  0.118161  0.618161  0.000000  1
  B  B7  1  0.876866  0.376866  0.000000  1
  Ru  Ru8  1  0.570037  0.719579  0.500000  1
  Ru  Ru9  1  0.441751  0.282485  0.500000  1
  Ru  Ru10  1  0.067904  0.783046  0.500000  1
  Ru  Ru11  1  0.916885  0.211267  0.500000  1
  Ru  Ru12  1  0.283046  0.567904  0.500000  1
  Ru  Ru13  1  0.711267  0.416885  0.500000  1
  Ru  Ru14  1  0.219579  0.070037  0.500000  1
  Ru  Ru15  1  0.782485  0.941751  0.500000  1
  Ru  Ru16  1  0.510144  0.010144  0.500000  1
  Ru  Ru17  1  0.995931  0.495931  0.500000  1
  W  W18  1  0.498085  0.502592  0.000000  1
  W  W19  1  0.002592  0.998085  0.000000  1
