# generated using pymatgen
data_TbEr2Tm5(CdPt)2
_symmetry_space_group_name_H-M   'P 1'
_cell_length_a   9.60370929
_cell_length_b   9.60371045
_cell_length_c   9.59697500
_cell_angle_alpha   60.02319393
_cell_angle_beta   60.02318994
_cell_angle_gamma   59.95360924
_symmetry_Int_Tables_number   1
_chemical_formula_structural   TbEr2Tm5(CdPt)2
_chemical_formula_sum   'Tb2 Er4 Tm10 Cd4 Pt4'
_cell_volume   625.88851036
_cell_formula_units_Z   2
loop_
 _symmetry_equiv_pos_site_id
 _symmetry_equiv_pos_as_xyz
  1  'x, y, z'
loop_
 _atom_site_type_symbol
 _atom_site_label
 _atom_site_symmetry_multiplicity
 _atom_site_fract_x
 _atom_site_fract_y
 _atom_site_fract_z
 _atom_site_occupancy
  Tb  Tb0  1  0.565191  0.565191  0.934809  1
  Tb  Tb1  1  0.934809  0.934809  0.565191  1
  Er  Er2  1  0.936096  0.563904  0.563904  1
  Er  Er3  1  0.563904  0.936096  0.936096  1
  Er  Er4  1  0.563904  0.936096  0.563904  1
  Er  Er5  1  0.936096  0.563904  0.936096  1
  Tm  Tm6  1  0.352093  0.352093  0.352452  1
  Tm  Tm7  1  0.352093  0.352093  0.943363  1
  Tm  Tm8  1  0.352452  0.943363  0.352093  1
  Tm  Tm9  1  0.943363  0.352452  0.352093  1
  Tm  Tm10  1  0.810479  0.189521  0.189521  1
  Tm  Tm11  1  0.189521  0.810479  0.810479  1
  Tm  Tm12  1  0.189521  0.810479  0.189521  1
  Tm  Tm13  1  0.810479  0.189521  0.810479  1
  Tm  Tm14  1  0.189499  0.189499  0.810501  1
  Tm  Tm15  1  0.810501  0.810501  0.189499  1
  Cd  Cd16  1  0.582023  0.582023  0.581083  1
  Cd  Cd17  1  0.582023  0.582023  0.254870  1
  Cd  Cd18  1  0.581083  0.254870  0.582023  1
  Cd  Cd19  1  0.254870  0.581083  0.582023  1
  Pt  Pt20  1  0.143427  0.143427  0.142622  1
  Pt  Pt21  1  0.143427  0.143427  0.570523  1
  Pt  Pt22  1  0.142622  0.570523  0.143427  1
  Pt  Pt23  1  0.570523  0.142622  0.143427  1
