# generated using pymatgen
data_La2Pr10Ir3AuI12
_symmetry_space_group_name_H-M   'P 1'
_cell_length_a   11.03578252
_cell_length_b   11.03598347
_cell_length_c   11.02939054
_cell_angle_alpha   109.53564052
_cell_angle_beta   110.19509911
_cell_angle_gamma   109.83494849
_symmetry_Int_Tables_number   1
_chemical_formula_structural   La2Pr10Ir3AuI12
_chemical_formula_sum   'La2 Pr10 Ir3 Au1 I12'
_cell_volume   1019.06338216
_cell_formula_units_Z   1
loop_
 _symmetry_equiv_pos_site_id
 _symmetry_equiv_pos_as_xyz
  1  'x, y, z'
loop_
 _atom_site_type_symbol
 _atom_site_label
 _atom_site_symmetry_multiplicity
 _atom_site_fract_x
 _atom_site_fract_y
 _atom_site_fract_z
 _atom_site_occupancy
  La  La0  1  0.456679  0.489446  0.218841  1
  La  La1  1  0.751386  0.227239  0.274413  1
  Pr  Pr2  1  0.751675  0.020626  0.482134  1
  Pr  Pr3  1  0.222778  0.458569  0.486890  1
  Pr  Pr4  1  0.274457  0.754417  0.229915  1
  Pr  Pr5  1  0.037269  0.273878  0.011065  1
  Pr  Pr6  1  0.013203  0.040009  0.275399  1
  Pr  Pr7  1  0.480780  0.751675  0.020996  1
  Pr  Pr8  1  0.488357  0.223188  0.459379  1
  Pr  Pr9  1  0.024580  0.482505  0.757108  1
  Pr  Pr10  1  0.274976  0.012055  0.038915  1
  Pr  Pr11  1  0.224361  0.269337  0.744325  1
  Ir  Ir12  1  0.503175  0.999864  0.250567  1
  Ir  Ir13  1  0.997146  0.250078  0.500882  1
  Ir  Ir14  1  0.251607  0.500903  0.000762  1
  Au  Au15  1  0.248585  0.248542  0.248592  1
  I  I16  1  0.249524  0.759343  0.739721  1
  I  I17  1  0.514506  0.505554  0.755877  1
  I  I18  1  0.984720  0.744294  0.994073  1
  I  I19  1  0.740223  0.249561  0.760228  1
  I  I20  1  0.993771  0.985225  0.744090  1
  I  I21  1  0.250825  0.993866  0.506547  1
  I  I22  1  0.756698  0.514710  0.508516  1
  I  I23  1  0.503537  0.248124  0.991386  1
  I  I24  1  0.761775  0.741838  0.250903  1
  I  I25  1  0.743386  0.992109  0.983670  1
  I  I26  1  0.994815  0.506281  0.249247  1
  I  I27  1  0.505203  0.756764  0.515558  1
