# generated using pymatgen
data_Li4Gd4PdRh3
_symmetry_space_group_name_H-M   'P 1'
_cell_length_a   3.96878800
_cell_length_b   7.06893840
_cell_length_c   8.56197900
_cell_angle_alpha   90.50484438
_cell_angle_beta   90.00000000
_cell_angle_gamma   90.00000000
_symmetry_Int_Tables_number   1
_chemical_formula_structural   Li4Gd4PdRh3
_chemical_formula_sum   'Li4 Gd4 Pd1 Rh3'
_cell_volume   240.19800596
_cell_formula_units_Z   1
loop_
 _symmetry_equiv_pos_site_id
 _symmetry_equiv_pos_as_xyz
  1  'x, y, z'
loop_
 _atom_site_type_symbol
 _atom_site_label
 _atom_site_symmetry_multiplicity
 _atom_site_fract_x
 _atom_site_fract_y
 _atom_site_fract_z
 _atom_site_occupancy
  Li  Li0  1  0.250000  0.122382  0.945294  1
  Li  Li1  1  0.250000  0.622755  0.550623  1
  Li  Li2  1  0.750000  0.875765  0.051652  1
  Li  Li3  1  0.750000  0.375886  0.448966  1
  Gd  Gd4  1  0.250000  0.047163  0.330580  1
  Gd  Gd5  1  0.250000  0.562616  0.178046  1
  Gd  Gd6  1  0.750000  0.949984  0.679501  1
  Gd  Gd7  1  0.750000  0.452686  0.816565  1
  Pd  Pd8  1  0.750000  0.257068  0.131073  1
  Rh  Rh9  1  0.250000  0.235684  0.633588  1
  Rh  Rh10  1  0.250000  0.735321  0.868166  1
  Rh  Rh11  1  0.750000  0.762691  0.365948  1
