# generated using pymatgen
data_Er10In3SnSb2
_symmetry_space_group_name_H-M   'P 1'
_cell_length_a   8.89959557
_cell_length_b   8.87653256
_cell_length_c   6.50683300
_cell_angle_alpha   90.00000000
_cell_angle_beta   90.00000000
_cell_angle_gamma   119.92866953
_symmetry_Int_Tables_number   1
_chemical_formula_structural   Er10In3SnSb2
_chemical_formula_sum   'Er10 In3 Sn1 Sb2'
_cell_volume   445.47734672
_cell_formula_units_Z   1
loop_
 _symmetry_equiv_pos_site_id
 _symmetry_equiv_pos_as_xyz
  1  'x, y, z'
loop_
 _atom_site_type_symbol
 _atom_site_label
 _atom_site_symmetry_multiplicity
 _atom_site_fract_x
 _atom_site_fract_y
 _atom_site_fract_z
 _atom_site_occupancy
  Er  Er0  1  0.001640  0.764651  0.750000  1
  Er  Er1  1  0.004214  0.237746  0.250000  1
  Er  Er2  1  0.764919  0.759263  0.250000  1
  Er  Er3  1  0.764564  0.005025  0.750000  1
  Er  Er4  1  0.234637  0.238466  0.750000  1
  Er  Er5  1  0.235914  0.998267  0.250000  1
  Er  Er6  1  0.330193  0.664215  0.499318  1
  Er  Er7  1  0.665276  0.333278  0.000544  1
  Er  Er8  1  0.665276  0.333278  0.499456  1
  Er  Er9  1  0.330193  0.664215  0.000682  1
  In  In10  1  0.397669  0.396050  0.250000  1
  In  In11  1  0.998688  0.599238  0.250000  1
  In  In12  1  0.997743  0.399263  0.750000  1
  Sn  Sn13  1  0.396097  0.000636  0.750000  1
  Sb  Sb14  1  0.606382  0.608450  0.750000  1
  Sb  Sb15  1  0.606597  0.997962  0.250000  1
