# generated using pymatgen
data_TbPrBeCoSi4
_symmetry_space_group_name_H-M   'P 1'
_cell_length_a   8.49368798
_cell_length_b   8.49368754
_cell_length_c   3.98898000
_cell_angle_alpha   90.00000000
_cell_angle_beta   90.00000000
_cell_angle_gamma   152.09715424
_symmetry_Int_Tables_number   1
_chemical_formula_structural   TbPrBeCoSi4
_chemical_formula_sum   'Tb1 Pr1 Be1 Co1 Si4'
_cell_volume   134.67156163
_cell_formula_units_Z   1
loop_
 _symmetry_equiv_pos_site_id
 _symmetry_equiv_pos_as_xyz
  1  'x, y, z'
loop_
 _atom_site_type_symbol
 _atom_site_label
 _atom_site_symmetry_multiplicity
 _atom_site_fract_x
 _atom_site_fract_y
 _atom_site_fract_z
 _atom_site_occupancy
  Tb  Tb0  1  0.897854  0.102146  0.750000  1
  Pr  Pr1  1  0.111825  0.888175  0.250000  1
  Be  Be2  1  0.673322  0.326678  0.750000  1
  Co  Co3  1  0.317763  0.682237  0.250000  1
  Si  Si4  1  0.755808  0.244192  0.250000  1
  Si  Si5  1  0.253705  0.746295  0.750000  1
  Si  Si6  1  0.535974  0.464026  0.750000  1
  Si  Si7  1  0.453749  0.546251  0.250000  1
