# generated using pymatgen
data_K4AlCrFe2F16
_symmetry_space_group_name_H-M   'P 1'
_cell_length_a   7.63660523
_cell_length_b   6.56754821
_cell_length_c   7.81077843
_cell_angle_alpha   72.51410594
_cell_angle_beta   89.98035662
_cell_angle_gamma   90.08448299
_symmetry_Int_Tables_number   1
_chemical_formula_structural   K4AlCrFe2F16
_chemical_formula_sum   'K4 Al1 Cr1 Fe2 F16'
_cell_volume   373.63754322
_cell_formula_units_Z   1
loop_
 _symmetry_equiv_pos_site_id
 _symmetry_equiv_pos_as_xyz
  1  'x, y, z'
loop_
 _atom_site_type_symbol
 _atom_site_label
 _atom_site_symmetry_multiplicity
 _atom_site_fract_x
 _atom_site_fract_y
 _atom_site_fract_z
 _atom_site_occupancy
  K  K0  1  0.246350  0.539723  0.868667  1
  K  K1  1  0.249636  0.552765  0.361827  1
  K  K2  1  0.753650  0.460277  0.131333  1
  K  K3  1  0.750364  0.447235  0.638173  1
  Al  Al4  1  0.000000  0.000000  0.000000  1
  Cr  Cr5  1  0.500000  0.000000  0.500000  1
  Fe  Fe6  1  0.500000  0.000000  0.000000  1
  Fe  Fe7  1  0.000000  0.000000  0.500000  1
  F  F8  1  0.250711  0.068049  0.508256  1
  F  F9  1  0.039457  0.719232  0.066404  1
  F  F10  1  0.454967  0.698317  0.581659  1
  F  F11  1  0.528617  0.004021  0.748332  1
  F  F12  1  0.759055  0.945082  0.034704  1
  F  F13  1  0.460011  0.700804  0.070895  1
  F  F14  1  0.960543  0.280768  0.933596  1
  F  F15  1  0.240945  0.054918  0.965296  1
  F  F16  1  0.545033  0.301683  0.418341  1
  F  F17  1  0.956645  0.298781  0.419869  1
  F  F18  1  0.022091  0.997340  0.242113  1
  F  F19  1  0.471383  0.995979  0.251668  1
  F  F20  1  0.977909  0.002660  0.757887  1
  F  F21  1  0.043355  0.701219  0.580131  1
  F  F22  1  0.539989  0.299196  0.929105  1
  F  F23  1  0.749289  0.931951  0.491744  1
