# generated using pymatgen
data_Li2Sm3Lu3(Co4P3)4
_symmetry_space_group_name_H-M   'P 1'
_cell_length_a   3.71819500
_cell_length_b   10.59063539
_cell_length_c   12.20542846
_cell_angle_alpha   90.03134680
_cell_angle_beta   90.00000000
_cell_angle_gamma   90.00000000
_symmetry_Int_Tables_number   1
_chemical_formula_structural   Li2Sm3Lu3(Co4P3)4
_chemical_formula_sum   'Li2 Sm3 Lu3 Co16 P12'
_cell_volume   480.62587054
_cell_formula_units_Z   1
loop_
 _symmetry_equiv_pos_site_id
 _symmetry_equiv_pos_as_xyz
  1  'x, y, z'
loop_
 _atom_site_type_symbol
 _atom_site_label
 _atom_site_symmetry_multiplicity
 _atom_site_fract_x
 _atom_site_fract_y
 _atom_site_fract_z
 _atom_site_occupancy
  Li  Li0  1  0.500000  0.499085  0.151245  1
  Li  Li1  1  0.000000  0.000329  0.848811  1
  Sm  Sm2  1  0.000000  0.499866  0.523685  1
  Sm  Sm3  1  0.500000  0.000594  0.477433  1
  Sm  Sm4  1  0.500000  0.820400  0.205938  1
  Lu  Lu5  1  0.500000  0.181118  0.205131  1
  Lu  Lu6  1  0.000000  0.678973  0.795363  1
  Lu  Lu7  1  0.000000  0.320257  0.793536  1
  Co  Co8  1  0.500000  0.499210  0.707836  1
  Co  Co9  1  0.000000  0.003991  0.292552  1
  Co  Co10  1  0.000000  0.498305  0.985920  1
  Co  Co11  1  0.500000  0.001857  0.010412  1
  Co  Co12  1  0.500000  0.332572  0.996605  1
  Co  Co13  1  0.500000  0.665671  0.994928  1
  Co  Co14  1  0.000000  0.168909  0.001401  1
  Co  Co15  1  0.000000  0.832652  0.001138  1
  Co  Co16  1  0.500000  0.296234  0.429865  1
  Co  Co17  1  0.500000  0.703303  0.433184  1
  Co  Co18  1  0.000000  0.204650  0.570015  1
  Co  Co19  1  0.000000  0.795846  0.572874  1
  Co  Co20  1  0.500000  0.877646  0.710049  1
  Co  Co21  1  0.500000  0.122338  0.708769  1
  Co  Co22  1  0.000000  0.619738  0.293147  1
  Co  Co23  1  0.000000  0.377222  0.290425  1
  P  P24  1  0.500000  0.498707  0.884617  1
  P  P25  1  0.000000  0.003250  0.112344  1
  P  P26  1  0.500000  0.500056  0.343716  1
  P  P27  1  0.000000  0.000188  0.657129  1
  P  P28  1  0.500000  0.308526  0.617877  1
  P  P29  1  0.500000  0.690656  0.620078  1
  P  P30  1  0.000000  0.192257  0.381963  1
  P  P31  1  0.000000  0.807436  0.386625  1
  P  P32  1  0.500000  0.841611  0.892900  1
  P  P33  1  0.500000  0.159293  0.891635  1
  P  P34  1  0.000000  0.655312  0.104102  1
  P  P35  1  0.000000  0.341941  0.106752  1
