# generated using pymatgen
data_Dy6Lu10Cd4Ir3Rh
_symmetry_space_group_name_H-M   'P 1'
_cell_length_a   9.52069067
_cell_length_b   9.52074565
_cell_length_c   9.52463249
_cell_angle_alpha   59.87641450
_cell_angle_beta   59.87781762
_cell_angle_gamma   59.86845675
_symmetry_Int_Tables_number   1
_chemical_formula_structural   Dy6Lu10Cd4Ir3Rh
_chemical_formula_sum   'Dy6 Lu10 Cd4 Ir3 Rh1'
_cell_volume   608.73950900
_cell_formula_units_Z   1
loop_
 _symmetry_equiv_pos_site_id
 _symmetry_equiv_pos_as_xyz
  1  'x, y, z'
loop_
 _atom_site_type_symbol
 _atom_site_label
 _atom_site_symmetry_multiplicity
 _atom_site_fract_x
 _atom_site_fract_y
 _atom_site_fract_z
 _atom_site_occupancy
  Dy  Dy0  1  0.190556  0.810259  0.810533  1
  Dy  Dy1  1  0.811661  0.189060  0.188979  1
  Dy  Dy2  1  0.810259  0.190557  0.810535  1
  Dy  Dy3  1  0.189041  0.811678  0.188963  1
  Dy  Dy4  1  0.810465  0.810479  0.190499  1
  Dy  Dy5  1  0.188985  0.188996  0.811836  1
  Lu  Lu6  1  0.598341  0.598353  0.597883  1
  Lu  Lu7  1  0.600042  0.600093  0.203470  1
  Lu  Lu8  1  0.600133  0.203900  0.599629  1
  Lu  Lu9  1  0.203941  0.600138  0.599631  1
  Lu  Lu10  1  0.060236  0.437437  0.438009  1
  Lu  Lu11  1  0.436133  0.062419  0.062233  1
  Lu  Lu12  1  0.437442  0.060236  0.438018  1
  Lu  Lu13  1  0.062413  0.436094  0.062255  1
  Lu  Lu14  1  0.437632  0.437621  0.060292  1
  Lu  Lu15  1  0.062281  0.062315  0.436436  1
  Cd  Cd16  1  0.830008  0.830017  0.830678  1
  Cd  Cd17  1  0.830192  0.830153  0.508836  1
  Cd  Cd18  1  0.830597  0.507334  0.831005  1
  Cd  Cd19  1  0.507420  0.830636  0.830974  1
  Ir  Ir20  1  0.392548  0.392561  0.824244  1
  Ir  Ir21  1  0.392709  0.824634  0.391881  1
  Ir  Ir22  1  0.824592  0.392698  0.391859  1
  Rh  Rh23  1  0.392374  0.392336  0.391323  1
