# generated using pymatgen
data_Sc9Al13Co7
_symmetry_space_group_name_H-M   'P 1'
_cell_length_a   8.68335615
_cell_length_b   8.68335472
_cell_length_c   8.68335474
_cell_angle_alpha   59.83549478
_cell_angle_beta   59.83550911
_cell_angle_gamma   59.83550809
_symmetry_Int_Tables_number   1
_chemical_formula_structural   Sc9Al13Co7
_chemical_formula_sum   'Sc9 Al13 Co7'
_cell_volume   461.23609111
_cell_formula_units_Z   1
loop_
 _symmetry_equiv_pos_site_id
 _symmetry_equiv_pos_as_xyz
  1  'x, y, z'
loop_
 _atom_site_type_symbol
 _atom_site_label
 _atom_site_symmetry_multiplicity
 _atom_site_fract_x
 _atom_site_fract_y
 _atom_site_fract_z
 _atom_site_occupancy
  Sc  Sc0  1  0.710049  0.295401  0.295401  1
  Sc  Sc1  1  0.698304  0.303893  0.698304  1
  Sc  Sc2  1  0.698304  0.698304  0.303893  1
  Sc  Sc3  1  0.303893  0.698304  0.698304  1
  Sc  Sc4  1  0.295401  0.710049  0.295401  1
  Sc  Sc5  1  0.295401  0.295401  0.710049  1
  Sc  Sc6  1  0.647564  0.117066  0.117066  1
  Sc  Sc7  1  0.117066  0.647564  0.117066  1
  Sc  Sc8  1  0.117066  0.117066  0.647564  1
  Al  Al9  1  0.118186  0.118186  0.118186  1
  Al  Al10  1  0.361408  0.880504  0.880504  1
  Al  Al11  1  0.880504  0.361408  0.880504  1
  Al  Al12  1  0.880504  0.880504  0.361408  1
  Al  Al13  1  0.878658  0.878658  0.878658  1
  Al  Al14  1  0.999796  0.331270  0.331270  1
  Al  Al15  1  0.331270  0.999796  0.331270  1
  Al  Al16  1  0.331270  0.331270  0.999796  1
  Al  Al17  1  0.333892  0.333892  0.333892  1
  Al  Al18  1  0.999896  0.666238  0.666238  1
  Al  Al19  1  0.666238  0.999896  0.666238  1
  Al  Al20  1  0.666238  0.666238  0.999896  1
  Al  Al21  1  0.666880  0.666880  0.666880  1
  Co  Co22  1  0.003734  0.003734  0.003734  1
  Co  Co23  1  0.496029  0.999585  0.999585  1
  Co  Co24  1  0.501032  0.001214  0.501032  1
  Co  Co25  1  0.501032  0.501032  0.001214  1
  Co  Co26  1  0.001214  0.501032  0.501032  1
  Co  Co27  1  0.999585  0.496029  0.999585  1
  Co  Co28  1  0.999585  0.999585  0.496029  1
