# generated using pymatgen
data_Sc2Fe3Ni7P6
_symmetry_space_group_name_H-M   'P 1'
_cell_length_a   3.62678500
_cell_length_b   10.18562000
_cell_length_c   11.76373600
_cell_angle_alpha   90.00000000
_cell_angle_beta   90.00000000
_cell_angle_gamma   90.00000000
_symmetry_Int_Tables_number   1
_chemical_formula_structural   Sc2Fe3Ni7P6
_chemical_formula_sum   'Sc4 Fe6 Ni14 P12'
_cell_volume   434.56480484
_cell_formula_units_Z   2
loop_
 _symmetry_equiv_pos_site_id
 _symmetry_equiv_pos_as_xyz
  1  'x, y, z'
loop_
 _atom_site_type_symbol
 _atom_site_label
 _atom_site_symmetry_multiplicity
 _atom_site_fract_x
 _atom_site_fract_y
 _atom_site_fract_z
 _atom_site_occupancy
  Sc  Sc0  1  0.250000  0.572126  0.706296  1
  Sc  Sc1  1  0.250000  0.927874  0.206296  1
  Sc  Sc2  1  0.750000  0.419345  0.292631  1
  Sc  Sc3  1  0.750000  0.080655  0.792631  1
  Fe  Fe4  1  0.750000  0.126400  0.297589  1
  Fe  Fe5  1  0.750000  0.373600  0.797589  1
  Fe  Fe6  1  0.250000  0.464477  0.931384  1
  Fe  Fe7  1  0.250000  0.035523  0.431384  1
  Fe  Fe8  1  0.750000  0.542066  0.070303  1
  Fe  Fe9  1  0.750000  0.957934  0.570303  1
  Ni  Ni10  1  0.250000  0.720915  0.998758  1
  Ni  Ni11  1  0.250000  0.779085  0.498758  1
  Ni  Ni12  1  0.750000  0.288135  0.008474  1
  Ni  Ni13  1  0.750000  0.211865  0.508474  1
  Ni  Ni14  1  0.250000  0.406284  0.481785  1
  Ni  Ni15  1  0.250000  0.093716  0.981785  1
  Ni  Ni16  1  0.750000  0.587236  0.514282  1
  Ni  Ni17  1  0.750000  0.912764  0.014282  1
  Ni  Ni18  1  0.250000  0.228168  0.171513  1
  Ni  Ni19  1  0.250000  0.271832  0.671513  1
  Ni  Ni20  1  0.750000  0.771975  0.824752  1
  Ni  Ni21  1  0.750000  0.728025  0.324752  1
  Ni  Ni22  1  0.250000  0.873075  0.704467  1
  Ni  Ni23  1  0.250000  0.626925  0.204467  1
  P  P24  1  0.250000  0.431057  0.113922  1
  P  P25  1  0.250000  0.068943  0.613922  1
  P  P26  1  0.750000  0.568972  0.884386  1
  P  P27  1  0.750000  0.931028  0.384386  1
  P  P28  1  0.250000  0.267679  0.863071  1
  P  P29  1  0.250000  0.232321  0.363071  1
  P  P30  1  0.750000  0.741257  0.133694  1
  P  P31  1  0.750000  0.758743  0.633694  1
  P  P32  1  0.250000  0.599393  0.391086  1
  P  P33  1  0.250000  0.900607  0.891086  1
  P  P34  1  0.750000  0.396148  0.611611  1
  P  P35  1  0.750000  0.103852  0.111611  1
