# generated using pymatgen
data_AcCo(As4Ru)3
_symmetry_space_group_name_H-M   'P 1'
_cell_length_a   7.41818534
_cell_length_b   7.41818553
_cell_length_c   7.41818533
_cell_angle_alpha   109.36239374
_cell_angle_beta   109.36240700
_cell_angle_gamma   109.36240944
_symmetry_Int_Tables_number   1
_chemical_formula_structural   AcCo(As4Ru)3
_chemical_formula_sum   'Ac1 Co1 As12 Ru3'
_cell_volume   315.50671708
_cell_formula_units_Z   1
loop_
 _symmetry_equiv_pos_site_id
 _symmetry_equiv_pos_as_xyz
  1  'x, y, z'
loop_
 _atom_site_type_symbol
 _atom_site_label
 _atom_site_symmetry_multiplicity
 _atom_site_fract_x
 _atom_site_fract_y
 _atom_site_fract_z
 _atom_site_occupancy
  Ac  Ac0  1  0.000000  0.000000  0.000000  1
  Co  Co1  1  0.500000  0.500000  0.500000  1
  As  As2  1  0.151184  0.800765  0.650110  1
  As  As3  1  0.848816  0.199235  0.349890  1
  As  As4  1  0.157994  0.500673  0.352285  1
  As  As5  1  0.842006  0.499327  0.647715  1
  As  As6  1  0.650110  0.151184  0.800765  1
  As  As7  1  0.349890  0.848816  0.199235  1
  As  As8  1  0.352285  0.157994  0.500673  1
  As  As9  1  0.647715  0.842006  0.499327  1
  As  As10  1  0.800765  0.650110  0.151184  1
  As  As11  1  0.199235  0.349890  0.848816  1
  As  As12  1  0.500673  0.352285  0.157994  1
  As  As13  1  0.499327  0.647715  0.842006  1
  Ru  Ru14  1  0.500000  0.000000  0.000000  1
  Ru  Ru15  1  0.000000  0.000000  0.500000  1
  Ru  Ru16  1  0.000000  0.500000  0.000000  1
