# generated using pymatgen
data_Sc8Re11Si16Mo
_symmetry_space_group_name_H-M   'P 1'
_cell_length_a   6.64510825
_cell_length_b   6.64510768
_cell_length_c   12.45713151
_cell_angle_alpha   89.94630820
_cell_angle_beta   90.05369111
_cell_angle_gamma   90.06127525
_symmetry_Int_Tables_number   1
_chemical_formula_structural   Sc8Re11Si16Mo
_chemical_formula_sum   'Sc8 Re11 Si16 Mo1'
_cell_volume   550.07448773
_cell_formula_units_Z   1
loop_
 _symmetry_equiv_pos_site_id
 _symmetry_equiv_pos_as_xyz
  1  'x, y, z'
loop_
 _atom_site_type_symbol
 _atom_site_label
 _atom_site_symmetry_multiplicity
 _atom_site_fract_x
 _atom_site_fract_y
 _atom_site_fract_z
 _atom_site_occupancy
  Sc  Sc0  1  0.007539  0.657049  0.030559  1
  Sc  Sc1  1  0.992689  0.340652  0.531010  1
  Sc  Sc2  1  0.340652  0.992689  0.468990  1
  Sc  Sc3  1  0.157324  0.492285  0.781497  1
  Sc  Sc4  1  0.841209  0.506658  0.280185  1
  Sc  Sc5  1  0.492285  0.157324  0.218503  1
  Sc  Sc6  1  0.506658  0.841209  0.719815  1
  Sc  Sc7  1  0.657049  0.007539  0.969441  1
  Re  Re8  1  0.166879  0.831952  0.249863  1
  Re  Re9  1  0.331735  0.331735  0.000000  1
  Re  Re10  1  0.015701  0.817746  0.631656  1
  Re  Re11  1  0.979776  0.187167  0.133739  1
  Re  Re12  1  0.817746  0.015701  0.368344  1
  Re  Re13  1  0.318476  0.482386  0.382209  1
  Re  Re14  1  0.685747  0.518727  0.882950  1
  Re  Re15  1  0.482386  0.318476  0.617791  1
  Re  Re16  1  0.518727  0.685747  0.117050  1
  Re  Re17  1  0.187167  0.979776  0.866261  1
  Re  Re18  1  0.831952  0.166879  0.750137  1
  Si  Si19  1  0.028335  0.716883  0.436050  1
  Si  Si20  1  0.623618  0.302505  0.430163  1
  Si  Si21  1  0.380094  0.694859  0.930320  1
  Si  Si22  1  0.196445  0.122113  0.679921  1
  Si  Si23  1  0.302505  0.623618  0.569837  1
  Si  Si24  1  0.694859  0.380094  0.069680  1
  Si  Si25  1  0.804714  0.879586  0.180525  1
  Si  Si26  1  0.122113  0.196445  0.320079  1
  Si  Si27  1  0.974524  0.275336  0.938160  1
  Si  Si28  1  0.716883  0.028335  0.563950  1
  Si  Si29  1  0.222002  0.474281  0.187693  1
  Si  Si30  1  0.780271  0.526260  0.687920  1
  Si  Si31  1  0.474281  0.222002  0.812307  1
  Si  Si32  1  0.526260  0.780271  0.312080  1
  Si  Si33  1  0.275336  0.974524  0.061840  1
  Si  Si34  1  0.879586  0.804714  0.819475  1
  Mo  Mo35  1  0.666475  0.666475  0.500000  1
