# generated using pymatgen
data_Hf6Zr4Sn5Ge2Sb
_symmetry_space_group_name_H-M   'P 1'
_cell_length_a   8.65926516
_cell_length_b   8.67051231
_cell_length_c   5.87682700
_cell_angle_alpha   90.00000000
_cell_angle_beta   90.00000000
_cell_angle_gamma   120.04297686
_symmetry_Int_Tables_number   1
_chemical_formula_structural   Hf6Zr4Sn5Ge2Sb
_chemical_formula_sum   'Hf6 Zr4 Sn5 Ge2 Sb1'
_cell_volume   381.95402924
_cell_formula_units_Z   1
loop_
 _symmetry_equiv_pos_site_id
 _symmetry_equiv_pos_as_xyz
  1  'x, y, z'
loop_
 _atom_site_type_symbol
 _atom_site_label
 _atom_site_symmetry_multiplicity
 _atom_site_fract_x
 _atom_site_fract_y
 _atom_site_fract_z
 _atom_site_occupancy
  Hf  Hf0  1  0.667629  0.333942  0.999131  1
  Hf  Hf1  1  0.332371  0.666314  0.999131  1
  Hf  Hf2  1  0.332371  0.666314  0.500869  1
  Hf  Hf3  1  0.667629  0.333942  0.500869  1
  Hf  Hf4  1  0.734186  0.734677  0.750000  1
  Hf  Hf5  1  0.265814  0.000491  0.750000  1
  Zr  Zr6  1  0.000000  0.266356  0.750000  1
  Zr  Zr7  1  0.261254  0.261504  0.250000  1
  Zr  Zr8  1  0.738746  0.000250  0.250000  1
  Zr  Zr9  1  0.000000  0.736469  0.250000  1
  Sn  Sn10  1  0.393880  0.392950  0.750000  1
  Sn  Sn11  1  0.606120  0.999070  0.750000  1
  Sn  Sn12  1  0.000000  0.609750  0.750000  1
  Sn  Sn13  1  0.605785  0.605924  0.250000  1
  Sn  Sn14  1  0.394215  0.000139  0.250000  1
  Ge  Ge15  1  0.000000  0.998495  0.995463  1
  Ge  Ge16  1  0.000000  0.998495  0.504537  1
  Sb  Sb17  1  0.000000  0.394919  0.250000  1
