# generated using pymatgen
data_Nd8CoHg2Ru
_symmetry_space_group_name_H-M   'P 1'
_cell_length_a   9.83918025
_cell_length_b   9.81059831
_cell_length_c   9.83917924
_cell_angle_alpha   60.09604896
_cell_angle_beta   60.30476571
_cell_angle_gamma   60.09604745
_symmetry_Int_Tables_number   1
_chemical_formula_structural   Nd8CoHg2Ru
_chemical_formula_sum   'Nd16 Co2 Hg4 Ru2'
_cell_volume   674.09404335
_cell_formula_units_Z   2
loop_
 _symmetry_equiv_pos_site_id
 _symmetry_equiv_pos_as_xyz
  1  'x, y, z'
loop_
 _atom_site_type_symbol
 _atom_site_label
 _atom_site_symmetry_multiplicity
 _atom_site_fract_x
 _atom_site_fract_y
 _atom_site_fract_z
 _atom_site_occupancy
  Nd  Nd0  1  0.937195  0.941801  0.559792  1
  Nd  Nd1  1  0.561654  0.938346  0.561654  1
  Nd  Nd2  1  0.559792  0.941801  0.937195  1
  Nd  Nd3  1  0.687489  0.694275  0.308822  1
  Nd  Nd4  1  0.156279  0.150286  0.543148  1
  Nd  Nd5  1  0.308822  0.694275  0.687489  1
  Nd  Nd6  1  0.154416  0.146947  0.154416  1
  Nd  Nd7  1  0.543148  0.150286  0.156279  1
  Nd  Nd8  1  0.309481  0.690519  0.309481  1
  Nd  Nd9  1  0.308822  0.309414  0.687489  1
  Nd  Nd10  1  0.691114  0.308886  0.691114  1
  Nd  Nd11  1  0.937195  0.561212  0.559792  1
  Nd  Nd12  1  0.559792  0.561212  0.937195  1
  Nd  Nd13  1  0.154416  0.544219  0.154416  1
  Nd  Nd14  1  0.687489  0.309414  0.308822  1
  Nd  Nd15  1  0.940358  0.559642  0.940358  1
  Co  Co16  1  0.361007  0.919234  0.361007  1
  Co  Co17  1  0.361007  0.358752  0.361007  1
  Hg  Hg18  1  0.249769  0.916957  0.916317  1
  Hg  Hg19  1  0.917184  0.917582  0.917184  1
  Hg  Hg20  1  0.916317  0.916957  0.249769  1
  Hg  Hg21  1  0.917184  0.248050  0.917184  1
  Ru  Ru22  1  0.918615  0.359966  0.361453  1
  Ru  Ru23  1  0.361453  0.359966  0.918615  1
