# generated using pymatgen
data_Sm2Dy7Er(In2Pt)4
_symmetry_space_group_name_H-M   'P 1'
_cell_length_a   3.63224500
_cell_length_b   8.19866404
_cell_length_c   18.36544833
_cell_angle_alpha   90.05775031
_cell_angle_beta   90.00000000
_cell_angle_gamma   90.00000000
_symmetry_Int_Tables_number   1
_chemical_formula_structural   Sm2Dy7Er(In2Pt)4
_chemical_formula_sum   'Sm2 Dy7 Er1 In8 Pt4'
_cell_volume   546.91462790
_cell_formula_units_Z   1
loop_
 _symmetry_equiv_pos_site_id
 _symmetry_equiv_pos_as_xyz
  1  'x, y, z'
loop_
 _atom_site_type_symbol
 _atom_site_label
 _atom_site_symmetry_multiplicity
 _atom_site_fract_x
 _atom_site_fract_y
 _atom_site_fract_z
 _atom_site_occupancy
  Sm  Sm0  1  0.000000  0.000014  0.000033  1
  Sm  Sm1  1  0.000000  0.499985  0.499991  1
  Dy  Dy2  1  0.000000  0.117379  0.414175  1
  Dy  Dy3  1  0.000000  0.882507  0.585769  1
  Dy  Dy4  1  0.000000  0.382508  0.914250  1
  Dy  Dy5  1  0.000000  0.617513  0.085879  1
  Dy  Dy6  1  0.000000  0.242996  0.220086  1
  Dy  Dy7  1  0.000000  0.757000  0.779935  1
  Dy  Dy8  1  0.000000  0.257044  0.720069  1
  Er  Er9  1  0.000000  0.743272  0.279636  1
  In  In10  1  0.500000  0.423307  0.349726  1
  In  In11  1  0.500000  0.576930  0.650216  1
  In  In12  1  0.500000  0.076947  0.849789  1
  In  In13  1  0.500000  0.922869  0.150356  1
  In  In14  1  0.500000  0.295279  0.067250  1
  In  In15  1  0.500000  0.704779  0.932800  1
  In  In16  1  0.500000  0.204821  0.567203  1
  In  In17  1  0.500000  0.795092  0.432598  1
  Pt  Pt18  1  0.500000  0.023307  0.303248  1
  Pt  Pt19  1  0.500000  0.975694  0.696680  1
  Pt  Pt20  1  0.500000  0.475718  0.803322  1
  Pt  Pt21  1  0.500000  0.525038  0.196990  1
