# generated using pymatgen
data_Lu20Cd6OsRu
_symmetry_space_group_name_H-M   'P 1'
_cell_length_a   9.36079200
_cell_length_b   9.36079228
_cell_length_c   9.69079700
_cell_angle_alpha   90.00000000
_cell_angle_beta   90.00000000
_cell_angle_gamma   119.99999899
_symmetry_Int_Tables_number   1
_chemical_formula_structural   Lu20Cd6OsRu
_chemical_formula_sum   'Lu20 Cd6 Os1 Ru1'
_cell_volume   735.38596302
_cell_formula_units_Z   1
loop_
 _symmetry_equiv_pos_site_id
 _symmetry_equiv_pos_as_xyz
  1  'x, y, z'
loop_
 _atom_site_type_symbol
 _atom_site_label
 _atom_site_symmetry_multiplicity
 _atom_site_fract_x
 _atom_site_fract_y
 _atom_site_fract_z
 _atom_site_occupancy
  Lu  Lu0  1  0.000000  0.000000  0.499722  1
  Lu  Lu1  1  0.000000  0.000000  0.000278  1
  Lu  Lu2  1  0.209967  0.790033  0.442747  1
  Lu  Lu3  1  0.209967  0.419935  0.442747  1
  Lu  Lu4  1  0.580065  0.790033  0.442747  1
  Lu  Lu5  1  0.789945  0.210055  0.557824  1
  Lu  Lu6  1  0.789945  0.579888  0.557824  1
  Lu  Lu7  1  0.420112  0.210055  0.557824  1
  Lu  Lu8  1  0.789945  0.210055  0.942176  1
  Lu  Lu9  1  0.789945  0.579888  0.942176  1
  Lu  Lu10  1  0.420112  0.210055  0.942176  1
  Lu  Lu11  1  0.209967  0.790033  0.057253  1
  Lu  Lu12  1  0.209967  0.419935  0.057253  1
  Lu  Lu13  1  0.580065  0.790033  0.057253  1
  Lu  Lu14  1  0.538885  0.461115  0.250000  1
  Lu  Lu15  1  0.538885  0.077770  0.250000  1
  Lu  Lu16  1  0.922230  0.461115  0.250000  1
  Lu  Lu17  1  0.459496  0.540504  0.750000  1
  Lu  Lu18  1  0.459496  0.918991  0.750000  1
  Lu  Lu19  1  0.081009  0.540504  0.750000  1
  Cd  Cd20  1  0.886197  0.113803  0.250000  1
  Cd  Cd21  1  0.886197  0.772396  0.250000  1
  Cd  Cd22  1  0.227604  0.113803  0.250000  1
  Cd  Cd23  1  0.113430  0.886570  0.750000  1
  Cd  Cd24  1  0.113430  0.226860  0.750000  1
  Cd  Cd25  1  0.773140  0.886570  0.750000  1
  Os  Os26  1  0.333333  0.666667  0.250000  1
  Ru  Ru27  1  0.666667  0.333333  0.750000  1
