# generated using pymatgen
data_Dy11ErCo6Bi
_symmetry_space_group_name_H-M   'P 1'
_cell_length_a   8.33849246
_cell_length_b   8.33849264
_cell_length_c   8.34140100
_cell_angle_alpha   109.47203292
_cell_angle_beta   109.51080332
_cell_angle_gamma   109.41669002
_symmetry_Int_Tables_number   1
_chemical_formula_structural   Dy11ErCo6Bi
_chemical_formula_sum   'Dy11 Er1 Co6 Bi1'
_cell_volume   446.54755734
_cell_formula_units_Z   1
loop_
 _symmetry_equiv_pos_site_id
 _symmetry_equiv_pos_as_xyz
  1  'x, y, z'
loop_
 _atom_site_type_symbol
 _atom_site_label
 _atom_site_symmetry_multiplicity
 _atom_site_fract_x
 _atom_site_fract_y
 _atom_site_fract_z
 _atom_site_occupancy
  Dy  Dy0  1  0.195674  0.305261  0.500933  1
  Dy  Dy1  1  0.195358  0.694803  0.890161  1
  Dy  Dy2  1  0.804178  0.305425  0.109603  1
  Dy  Dy3  1  0.694862  0.499348  0.804040  1
  Dy  Dy4  1  0.305811  0.501005  0.196000  1
  Dy  Dy5  1  0.694993  0.890188  0.196000  1
  Dy  Dy6  1  0.304693  0.109178  0.804040  1
  Dy  Dy7  1  0.499375  0.804163  0.694713  1
  Dy  Dy8  1  0.501223  0.196330  0.305381  1
  Dy  Dy9  1  0.109051  0.804157  0.305381  1
  Dy  Dy10  1  0.890550  0.195339  0.694713  1
  Er  Er11  1  0.804536  0.694160  0.498698  1
  Co  Co12  1  0.886144  0.387115  0.500008  1
  Co  Co13  1  0.112892  0.613864  0.500008  1
  Co  Co14  1  0.386564  0.499868  0.886433  1
  Co  Co15  1  0.613945  0.500146  0.114091  1
  Co  Co16  1  0.500345  0.886327  0.386672  1
  Co  Co17  1  0.500002  0.113561  0.613563  1
  Bi  Bi18  1  0.999803  0.999761  0.999564  1
