# generated using pymatgen
data_Li12Pr12ReTe4(MoO16)3
_symmetry_space_group_name_H-M   'P 1'
_cell_length_a   11.02466046
_cell_length_b   10.98339096
_cell_length_c   11.02466100
_cell_angle_alpha   109.39541202
_cell_angle_beta   109.54692336
_cell_angle_gamma   109.39540741
_symmetry_Int_Tables_number   1
_chemical_formula_structural   Li12Pr12ReTe4(MoO16)3
_chemical_formula_sum   'Li12 Pr12 Re1 Te4 Mo3 O48'
_cell_volume   1028.60943246
_cell_formula_units_Z   1
loop_
 _symmetry_equiv_pos_site_id
 _symmetry_equiv_pos_as_xyz
  1  'x, y, z'
loop_
 _atom_site_type_symbol
 _atom_site_label
 _atom_site_symmetry_multiplicity
 _atom_site_fract_x
 _atom_site_fract_y
 _atom_site_fract_z
 _atom_site_occupancy
  Li  Li0  1  0.874082  0.749980  0.124400  1
  Li  Li1  1  0.250214  0.875451  0.126014  1
  Li  Li2  1  0.875800  0.125236  0.249787  1
  Li  Li3  1  0.375601  0.625580  0.249683  1
  Li  Li4  1  0.749683  0.624103  0.374080  1
  Li  Li5  1  0.626014  0.250564  0.375800  1
  Li  Li6  1  0.373986  0.749437  0.624200  1
  Li  Li7  1  0.250317  0.375898  0.625919  1
  Li  Li8  1  0.124202  0.874764  0.750213  1
  Li  Li9  1  0.624398  0.374420  0.750317  1
  Li  Li10  1  0.125920  0.250022  0.875601  1
  Li  Li11  1  0.749787  0.124551  0.873988  1
  Pr  Pr12  1  0.750399  0.372562  0.122825  1
  Pr  Pr13  1  0.377174  0.249736  0.127574  1
  Pr  Pr14  1  0.627574  0.877837  0.250397  1
  Pr  Pr15  1  0.127555  0.377487  0.250209  1
  Pr  Pr16  1  0.249791  0.127281  0.377346  1
  Pr  Pr17  1  0.122654  0.749933  0.372446  1
  Pr  Pr18  1  0.750207  0.872719  0.622652  1
  Pr  Pr19  1  0.877347  0.250068  0.627555  1
  Pr  Pr20  1  0.372427  0.122161  0.749600  1
  Pr  Pr21  1  0.872445  0.622513  0.749792  1
  Pr  Pr22  1  0.249601  0.627438  0.877174  1
  Pr  Pr23  1  0.622826  0.750264  0.872427  1
  Re  Re24  1  0.500002  0.000000  0.000000  1
  Te  Te25  1  0.000000  0.000000  0.000000  1
  Te  Te26  1  0.500000  0.500001  0.000000  1
  Te  Te27  1  0.500000  0.000000  0.500000  1
  Te  Te28  1  0.000000  0.500001  0.500000  1
  Mo  Mo29  1  0.000000  0.500002  0.000000  1
  Mo  Mo30  1  0.000000  0.000000  0.499999  1
  Mo  Mo31  1  0.499999  0.499999  0.499999  1
  O  O32  1  0.908091  0.328475  0.022237  1
  O  O33  1  0.116714  0.193661  0.023000  1
  O  O34  1  0.408501  0.886355  0.079106  1
  O  O35  1  0.670473  0.693530  0.076857  1
  O  O36  1  0.670605  0.977856  0.091500  1
  O  O37  1  0.423145  0.616674  0.093615  1
  O  O38  1  0.920902  0.592006  0.114089  1
  O  O39  1  0.193028  0.022316  0.116304  1
  O  O40  1  0.579104  0.192751  0.170605  1
  O  O41  1  0.593616  0.476942  0.170472  1
  O  O42  1  0.171165  0.579175  0.193023  1
  O  O43  1  0.022799  0.116201  0.193226  1
  O  O44  1  0.385911  0.477917  0.306811  1
  O  O45  1  0.923276  0.329289  0.306972  1
  O  O46  1  0.306773  0.922975  0.329575  1
  O  O47  1  0.021859  0.908009  0.328835  1
  O  O48  1  0.906287  0.576949  0.383286  1
  O  O49  1  0.477763  0.306238  0.385853  1
  O  O50  1  0.523001  0.829339  0.406286  1
  O  O51  1  0.885852  0.079614  0.408090  1
  O  O52  1  0.806812  0.828896  0.420901  1
  O  O53  1  0.616305  0.093987  0.423277  1
  O  O54  1  0.306976  0.386151  0.478140  1
  O  O55  1  0.170424  0.593402  0.477200  1
  O  O56  1  0.693023  0.613849  0.521858  1
  O  O57  1  0.829575  0.406599  0.522800  1
  O  O58  1  0.193190  0.171106  0.579100  1
  O  O59  1  0.383696  0.906013  0.576724  1
  O  O60  1  0.114148  0.920385  0.591910  1
  O  O61  1  0.477000  0.170662  0.593714  1
  O  O62  1  0.522238  0.693762  0.614148  1
  O  O63  1  0.093714  0.423051  0.616715  1
  O  O64  1  0.978141  0.091991  0.671164  1
  O  O65  1  0.693225  0.077023  0.670424  1
  O  O66  1  0.614089  0.522083  0.693188  1
  O  O67  1  0.076725  0.670713  0.693028  1
  O  O68  1  0.977199  0.883798  0.806773  1
  O  O69  1  0.828834  0.420825  0.806977  1
  O  O70  1  0.406383  0.523059  0.829529  1
  O  O71  1  0.420896  0.807248  0.829395  1
  O  O72  1  0.806972  0.977683  0.883695  1
  O  O73  1  0.079100  0.407995  0.885911  1
  O  O74  1  0.576856  0.383325  0.906384  1
  O  O75  1  0.329395  0.022145  0.908499  1
  O  O76  1  0.329528  0.306470  0.923145  1
  O  O77  1  0.591501  0.113647  0.920895  1
  O  O78  1  0.091910  0.671526  0.977761  1
  O  O79  1  0.883286  0.806338  0.977000  1
