# generated using pymatgen
data_Ca3PrAl8
_symmetry_space_group_name_H-M   'P 1'
_cell_length_a   9.74717328
_cell_length_b   9.74717282
_cell_length_c   9.74717126
_cell_angle_alpha   33.90144961
_cell_angle_beta   33.90145430
_cell_angle_gamma   33.90145408
_symmetry_Int_Tables_number   1
_chemical_formula_structural   Ca3PrAl8
_chemical_formula_sum   'Ca3 Pr1 Al8'
_cell_volume   256.76163254
_cell_formula_units_Z   1
loop_
 _symmetry_equiv_pos_site_id
 _symmetry_equiv_pos_as_xyz
  1  'x, y, z'
loop_
 _atom_site_type_symbol
 _atom_site_label
 _atom_site_symmetry_multiplicity
 _atom_site_fract_x
 _atom_site_fract_y
 _atom_site_fract_z
 _atom_site_occupancy
  Ca  Ca0  1  0.624152  0.624152  0.624152  1
  Ca  Ca1  1  0.999716  0.999716  0.999716  1
  Ca  Ca2  1  0.501130  0.501130  0.501130  1
  Pr  Pr3  1  0.125471  0.125471  0.125471  1
  Al  Al4  1  0.561999  0.561999  0.064182  1
  Al  Al5  1  0.063190  0.063190  0.559914  1
  Al  Al6  1  0.561999  0.064182  0.561999  1
  Al  Al7  1  0.063190  0.559914  0.063190  1
  Al  Al8  1  0.812867  0.812867  0.812867  1
  Al  Al9  1  0.312193  0.312193  0.312193  1
  Al  Al10  1  0.064182  0.561999  0.561999  1
  Al  Al11  1  0.559914  0.063190  0.063190  1
