# generated using pymatgen
data_Er6Al22Fe3Si2Os5
_symmetry_space_group_name_H-M   'P 1'
_cell_length_a   8.68773700
_cell_length_b   8.66196710
_cell_length_c   9.48884429
_cell_angle_alpha   90.13161572
_cell_angle_beta   90.00000000
_cell_angle_gamma   120.09845173
_symmetry_Int_Tables_number   1
_chemical_formula_structural   Er6Al22Fe3Si2Os5
_chemical_formula_sum   'Er6 Al22 Fe3 Si2 Os5'
_cell_volume   617.78009619
_cell_formula_units_Z   1
loop_
 _symmetry_equiv_pos_site_id
 _symmetry_equiv_pos_as_xyz
  1  'x, y, z'
loop_
 _atom_site_type_symbol
 _atom_site_label
 _atom_site_symmetry_multiplicity
 _atom_site_fract_x
 _atom_site_fract_y
 _atom_site_fract_z
 _atom_site_occupancy
  Er  Er0  1  0.196576  0.393151  0.244900  1
  Er  Er1  1  0.803424  0.606849  0.755100  1
  Er  Er2  1  0.608900  0.803074  0.247783  1
  Er  Er3  1  0.391100  0.196926  0.752217  1
  Er  Er4  1  0.194174  0.803074  0.247783  1
  Er  Er5  1  0.805826  0.196926  0.752217  1
  Al  Al6  1  0.666594  0.333187  0.518116  1
  Al  Al7  1  0.333406  0.666813  0.481884  1
  Al  Al8  1  0.159789  0.319578  0.574873  1
  Al  Al9  1  0.840211  0.680422  0.425127  1
  Al  Al10  1  0.680515  0.840911  0.576004  1
  Al  Al11  1  0.838768  0.677535  0.077329  1
  Al  Al12  1  0.319485  0.159089  0.423996  1
  Al  Al13  1  0.161232  0.322465  0.922671  1
  Al  Al14  1  0.160395  0.840911  0.576004  1
  Al  Al15  1  0.323367  0.157928  0.076370  1
  Al  Al16  1  0.839605  0.159089  0.423996  1
  Al  Al17  1  0.676633  0.842072  0.923630  1
  Al  Al18  1  0.834562  0.157928  0.076370  1
  Al  Al19  1  0.165438  0.842072  0.923630  1
  Al  Al20  1  0.560344  0.120689  0.244691  1
  Al  Al21  1  0.439656  0.879311  0.755309  1
  Al  Al22  1  0.872967  0.435545  0.249824  1
  Al  Al23  1  0.127033  0.564455  0.750176  1
  Al  Al24  1  0.562577  0.435545  0.249824  1
  Al  Al25  1  0.437423  0.564455  0.750176  1
  Al  Al26  1  0.000098  0.000194  0.249963  1
  Al  Al27  1  0.999902  0.999806  0.750037  1
  Fe  Fe28  1  0.500000  0.000000  0.000000  1
  Fe  Fe29  1  0.000000  0.000000  0.000000  1
  Fe  Fe30  1  0.000000  0.000000  0.500000  1
  Si  Si31  1  0.337777  0.675555  0.031851  1
  Si  Si32  1  0.662223  0.324445  0.968149  1
  Os  Os33  1  0.000000  0.500000  0.000000  1
  Os  Os34  1  0.500000  0.000000  0.500000  1
  Os  Os35  1  0.500000  0.500000  0.000000  1
  Os  Os36  1  0.000000  0.500000  0.500000  1
  Os  Os37  1  0.500000  0.500000  0.500000  1
