# generated using pymatgen
data_Er6Zn18PPt5
_symmetry_space_group_name_H-M   'P 1'
_cell_length_a   8.99502592
_cell_length_b   8.99517477
_cell_length_c   9.00251300
_cell_angle_alpha   59.97293397
_cell_angle_beta   59.97292187
_cell_angle_gamma   60.45609335
_symmetry_Int_Tables_number   1
_chemical_formula_structural   Er6Zn18PPt5
_chemical_formula_sum   'Er6 Zn18 P1 Pt5'
_cell_volume   516.60233616
_cell_formula_units_Z   1
loop_
 _symmetry_equiv_pos_site_id
 _symmetry_equiv_pos_as_xyz
  1  'x, y, z'
loop_
 _atom_site_type_symbol
 _atom_site_label
 _atom_site_symmetry_multiplicity
 _atom_site_fract_x
 _atom_site_fract_y
 _atom_site_fract_z
 _atom_site_occupancy
  Er  Er0  1  0.718430  0.281539  0.287067  1
  Er  Er1  1  0.718434  0.281530  0.712968  1
  Er  Er2  1  0.715246  0.715307  0.284721  1
  Er  Er3  1  0.281570  0.718461  0.712933  1
  Er  Er4  1  0.281566  0.718470  0.287032  1
  Er  Er5  1  0.284754  0.284693  0.715279  1
  Zn  Zn6  1  0.627493  0.122970  0.124768  1
  Zn  Zn7  1  0.122962  0.627496  0.124770  1
  Zn  Zn8  1  0.124257  0.124261  0.627132  1
  Zn  Zn9  1  0.124259  0.124260  0.124351  1
  Zn  Zn10  1  0.372507  0.877030  0.875232  1
  Zn  Zn11  1  0.877038  0.372504  0.875230  1
  Zn  Zn12  1  0.875743  0.875739  0.372868  1
  Zn  Zn13  1  0.875741  0.875740  0.875649  1
  Zn  Zn14  1  0.500000  0.500000  0.000000  1
  Zn  Zn15  1  0.000000  0.000000  0.000000  1
  Zn  Zn16  1  0.006278  0.331369  0.331175  1
  Zn  Zn17  1  0.331367  0.006277  0.331174  1
  Zn  Zn18  1  0.332028  0.332031  0.004591  1
  Zn  Zn19  1  0.332031  0.332028  0.331351  1
  Zn  Zn20  1  0.993722  0.668631  0.668825  1
  Zn  Zn21  1  0.668633  0.993723  0.668826  1
  Zn  Zn22  1  0.667972  0.667969  0.995409  1
  Zn  Zn23  1  0.667969  0.667972  0.668649  1
  P  P24  1  0.500000  0.500000  0.500000  1
  Pt  Pt25  1  0.500000  0.000000  0.000000  1
  Pt  Pt26  1  0.500000  0.000000  0.500000  1
  Pt  Pt27  1  0.000000  0.500000  0.500000  1
  Pt  Pt28  1  0.000000  0.500000  0.000000  1
  Pt  Pt29  1  0.000000  0.000000  0.500000  1
