# generated using pymatgen
data_Y7Ho12Mg(Cd3Ru)2
_symmetry_space_group_name_H-M   'P 1'
_cell_length_a   9.56328100
_cell_length_b   9.56328013
_cell_length_c   9.73038300
_cell_angle_alpha   90.00000000
_cell_angle_beta   90.00000000
_cell_angle_gamma   120.00000646
_symmetry_Int_Tables_number   1
_chemical_formula_structural   Y7Ho12Mg(Cd3Ru)2
_chemical_formula_sum   'Y7 Ho12 Mg1 Cd6 Ru2'
_cell_volume   770.68043337
_cell_formula_units_Z   1
loop_
 _symmetry_equiv_pos_site_id
 _symmetry_equiv_pos_as_xyz
  1  'x, y, z'
loop_
 _atom_site_type_symbol
 _atom_site_label
 _atom_site_symmetry_multiplicity
 _atom_site_fract_x
 _atom_site_fract_y
 _atom_site_fract_z
 _atom_site_occupancy
  Y  Y0  1  0.000000  0.000000  0.000000  1
  Y  Y1  1  0.541110  0.458890  0.251722  1
  Y  Y2  1  0.541110  0.082219  0.251722  1
  Y  Y3  1  0.917781  0.458890  0.251722  1
  Y  Y4  1  0.458890  0.541110  0.748278  1
  Y  Y5  1  0.458890  0.917781  0.748278  1
  Y  Y6  1  0.082219  0.541110  0.748278  1
  Ho  Ho7  1  0.207973  0.792027  0.439493  1
  Ho  Ho8  1  0.207973  0.415948  0.439493  1
  Ho  Ho9  1  0.584052  0.792027  0.439493  1
  Ho  Ho10  1  0.792027  0.207973  0.560507  1
  Ho  Ho11  1  0.792027  0.584052  0.560507  1
  Ho  Ho12  1  0.415948  0.207973  0.560507  1
  Ho  Ho13  1  0.789148  0.210852  0.941132  1
  Ho  Ho14  1  0.789148  0.578296  0.941132  1
  Ho  Ho15  1  0.421704  0.210852  0.941132  1
  Ho  Ho16  1  0.210852  0.789148  0.058868  1
  Ho  Ho17  1  0.210852  0.421704  0.058868  1
  Ho  Ho18  1  0.578296  0.789148  0.058868  1
  Mg  Mg19  1  0.000000  0.000000  0.500000  1
  Cd  Cd20  1  0.887113  0.112887  0.256270  1
  Cd  Cd21  1  0.887113  0.774229  0.256270  1
  Cd  Cd22  1  0.225771  0.112887  0.256270  1
  Cd  Cd23  1  0.112887  0.887113  0.743730  1
  Cd  Cd24  1  0.112887  0.225771  0.743730  1
  Cd  Cd25  1  0.774229  0.887113  0.743730  1
  Ru  Ru26  1  0.333333  0.666667  0.250507  1
  Ru  Ru27  1  0.666667  0.333333  0.749493  1
