# generated using pymatgen
data_Ca3NdSc(MoO4)3
_symmetry_space_group_name_H-M   'P 1'
_cell_length_a   5.55777847
_cell_length_b   5.74559490
_cell_length_c   8.01281763
_cell_angle_alpha   89.80499403
_cell_angle_beta   89.79401084
_cell_angle_gamma   89.44544149
_symmetry_Int_Tables_number   1
_chemical_formula_structural   Ca3NdSc(MoO4)3
_chemical_formula_sum   'Ca3 Nd1 Sc1 Mo3 O12'
_cell_volume   255.85616097
_cell_formula_units_Z   1
loop_
 _symmetry_equiv_pos_site_id
 _symmetry_equiv_pos_as_xyz
  1  'x, y, z'
loop_
 _atom_site_type_symbol
 _atom_site_label
 _atom_site_symmetry_multiplicity
 _atom_site_fract_x
 _atom_site_fract_y
 _atom_site_fract_z
 _atom_site_occupancy
  Ca  Ca0  1  0.516439  0.450377  0.254969  1
  Ca  Ca1  1  0.481755  0.551495  0.744359  1
  Ca  Ca2  1  0.993768  0.952030  0.253776  1
  Nd  Nd3  1  0.009216  0.053447  0.747050  1
  Sc  Sc4  1  0.501353  0.999487  0.494833  1
  Mo  Mo5  1  0.501283  0.998351  0.003102  1
  Mo  Mo6  1  0.999605  0.501074  0.003962  1
  Mo  Mo7  1  0.998485  0.502310  0.497857  1
  O  O8  1  0.289985  0.296200  0.556336  1
  O  O9  1  0.811002  0.200604  0.456409  1
  O  O10  1  0.192725  0.795757  0.944162  1
  O  O11  1  0.698287  0.704713  0.057334  1
  O  O12  1  0.702075  0.696701  0.447944  1
  O  O13  1  0.193744  0.795356  0.548963  1
  O  O14  1  0.815445  0.198198  0.051326  1
  O  O15  1  0.294489  0.289048  0.937842  1
  O  O16  1  0.889687  0.459449  0.754644  1
  O  O17  1  0.404422  0.045415  0.243666  1
  O  O18  1  0.593964  0.961793  0.755271  1
  O  O19  1  0.112270  0.548195  0.246195  1
