# generated using pymatgen
data_La3NdAu8
_symmetry_space_group_name_H-M   'P 1'
_cell_length_a   4.79446300
_cell_length_b   4.79446346
_cell_length_c   14.81789800
_cell_angle_alpha   90.00000000
_cell_angle_beta   90.00000000
_cell_angle_gamma   120.00000371
_symmetry_Int_Tables_number   1
_chemical_formula_structural   La3NdAu8
_chemical_formula_sum   'La3 Nd1 Au8'
_cell_volume   294.98314465
_cell_formula_units_Z   1
loop_
 _symmetry_equiv_pos_site_id
 _symmetry_equiv_pos_as_xyz
  1  'x, y, z'
loop_
 _atom_site_type_symbol
 _atom_site_label
 _atom_site_symmetry_multiplicity
 _atom_site_fract_x
 _atom_site_fract_y
 _atom_site_fract_z
 _atom_site_occupancy
  La  La0  1  0.000000  0.000000  0.501468  1
  La  La1  1  0.000000  0.000000  0.998532  1
  La  La2  1  0.000000  0.000000  0.250000  1
  Nd  Nd3  1  0.000000  0.000000  0.750000  1
  Au  Au4  1  0.333333  0.666667  0.378877  1
  Au  Au5  1  0.666667  0.333333  0.626634  1
  Au  Au6  1  0.666667  0.333333  0.873366  1
  Au  Au7  1  0.333333  0.666667  0.121123  1
  Au  Au8  1  0.666667  0.333333  0.374340  1
  Au  Au9  1  0.333333  0.666667  0.628788  1
  Au  Au10  1  0.333333  0.666667  0.871212  1
  Au  Au11  1  0.666667  0.333333  0.125660  1
