# generated using pymatgen
data_NdEu3(GaPd)4
_symmetry_space_group_name_H-M   'P 1'
_cell_length_a   4.51520100
_cell_length_b   7.26841017
_cell_length_c   7.85510262
_cell_angle_alpha   90.25258781
_cell_angle_beta   90.00000000
_cell_angle_gamma   90.00000000
_symmetry_Int_Tables_number   1
_chemical_formula_structural   NdEu3(GaPd)4
_chemical_formula_sum   'Nd1 Eu3 Ga4 Pd4'
_cell_volume   257.78886734
_cell_formula_units_Z   1
loop_
 _symmetry_equiv_pos_site_id
 _symmetry_equiv_pos_as_xyz
  1  'x, y, z'
loop_
 _atom_site_type_symbol
 _atom_site_label
 _atom_site_symmetry_multiplicity
 _atom_site_fract_x
 _atom_site_fract_y
 _atom_site_fract_z
 _atom_site_occupancy
  Nd  Nd0  1  0.750000  0.477176  0.191252  1
  Eu  Eu1  1  0.250000  0.020196  0.690982  1
  Eu  Eu2  1  0.250000  0.520768  0.807465  1
  Eu  Eu3  1  0.750000  0.980434  0.310398  1
  Ga  Ga4  1  0.250000  0.162810  0.074865  1
  Ga  Ga5  1  0.250000  0.665068  0.424259  1
  Ga  Ga6  1  0.750000  0.835768  0.926819  1
  Ga  Ga7  1  0.750000  0.335082  0.574625  1
  Pd  Pd8  1  0.250000  0.295326  0.395411  1
  Pd  Pd9  1  0.250000  0.787127  0.104285  1
  Pd  Pd10  1  0.750000  0.708112  0.601005  1
  Pd  Pd11  1  0.750000  0.212131  0.898634  1
