# generated using pymatgen
data_Na6Ti2S7
_symmetry_space_group_name_H-M   'P 1'
_cell_length_a   6.98233002
_cell_length_b   6.98233076
_cell_length_c   15.32614065
_cell_angle_alpha   80.07600842
_cell_angle_beta   80.07600769
_cell_angle_gamma   96.77851287
_symmetry_Int_Tables_number   1
_chemical_formula_structural   Na6Ti2S7
_chemical_formula_sum   'Na12 Ti4 S14'
_cell_volume   716.54883063
_cell_formula_units_Z   2
loop_
 _symmetry_equiv_pos_site_id
 _symmetry_equiv_pos_as_xyz
  1  'x, y, z'
loop_
 _atom_site_type_symbol
 _atom_site_label
 _atom_site_symmetry_multiplicity
 _atom_site_fract_x
 _atom_site_fract_y
 _atom_site_fract_z
 _atom_site_occupancy
  Na  Na0  1  0.964354  0.258830  0.427232  1
  Na  Na1  1  0.741170  0.035646  0.072768  1
  Na  Na2  1  0.035646  0.741170  0.572768  1
  Na  Na3  1  0.258830  0.964354  0.927232  1
  Na  Na4  1  0.504314  0.950396  0.639141  1
  Na  Na5  1  0.049604  0.495686  0.860859  1
  Na  Na6  1  0.423126  0.576874  0.250000  1
  Na  Na7  1  0.576874  0.423126  0.750000  1
  Na  Na8  1  0.500000  0.500000  0.000000  1
  Na  Na9  1  0.500000  0.500000  0.500000  1
  Na  Na10  1  0.495686  0.049604  0.360859  1
  Na  Na11  1  0.950396  0.504314  0.139141  1
  Ti  Ti12  1  0.234339  0.077002  0.139666  1
  Ti  Ti13  1  0.922998  0.765661  0.360334  1
  Ti  Ti14  1  0.765661  0.922998  0.860334  1
  Ti  Ti15  1  0.077002  0.234339  0.639666  1
  S  S16  1  0.791305  0.311451  0.604665  1
  S  S17  1  0.208695  0.688549  0.395335  1
  S  S18  1  0.860170  0.739067  0.977582  1
  S  S19  1  0.260933  0.139830  0.522418  1
  S  S20  1  0.139830  0.260933  0.022418  1
  S  S21  1  0.739067  0.860170  0.477582  1
  S  S22  1  0.754702  0.503887  0.323587  1
  S  S23  1  0.496113  0.245298  0.176413  1
  S  S24  1  0.245298  0.496113  0.676413  1
  S  S25  1  0.503887  0.754702  0.823587  1
  S  S26  1  0.951994  0.048006  0.250000  1
  S  S27  1  0.048006  0.951994  0.750000  1
  S  S28  1  0.311451  0.791305  0.104665  1
  S  S29  1  0.688549  0.208695  0.895335  1
