# generated using pymatgen
data_Y2Tm2ReB12Ru
_symmetry_space_group_name_H-M   'P 1'
_cell_length_a   3.64998200
_cell_length_b   9.11955987
_cell_length_c   11.51752802
_cell_angle_alpha   89.81360424
_cell_angle_beta   90.00000000
_cell_angle_gamma   90.00000000
_symmetry_Int_Tables_number   1
_chemical_formula_structural   Y2Tm2ReB12Ru
_chemical_formula_sum   'Y4 Tm4 Re2 B24 Ru2'
_cell_volume   383.37305049
_cell_formula_units_Z   2
loop_
 _symmetry_equiv_pos_site_id
 _symmetry_equiv_pos_as_xyz
  1  'x, y, z'
loop_
 _atom_site_type_symbol
 _atom_site_label
 _atom_site_symmetry_multiplicity
 _atom_site_fract_x
 _atom_site_fract_y
 _atom_site_fract_z
 _atom_site_occupancy
  Y  Y0  1  0.000000  0.323935  0.415334  1
  Y  Y1  1  0.000000  0.676065  0.584666  1
  Y  Y2  1  0.000000  0.820616  0.087436  1
  Y  Y3  1  0.000000  0.179384  0.912564  1
  Tm  Tm4  1  0.000000  0.942951  0.370859  1
  Tm  Tm5  1  0.000000  0.057049  0.629141  1
  Tm  Tm6  1  0.000000  0.442897  0.129349  1
  Tm  Tm7  1  0.000000  0.557103  0.870651  1
  Re  Re8  1  0.000000  0.638966  0.319561  1
  Re  Re9  1  0.000000  0.361034  0.680439  1
  B  B10  1  0.500000  0.553350  0.432738  1
  B  B11  1  0.500000  0.446650  0.567262  1
  B  B12  1  0.500000  0.054167  0.067334  1
  B  B13  1  0.500000  0.945833  0.932666  1
  B  B14  1  0.500000  0.749910  0.418595  1
  B  B15  1  0.500000  0.250090  0.581405  1
  B  B16  1  0.500000  0.249466  0.081488  1
  B  B17  1  0.500000  0.750534  0.918512  1
  B  B18  1  0.500000  0.792278  0.265263  1
  B  B19  1  0.500000  0.207722  0.734737  1
  B  B20  1  0.500000  0.291022  0.234011  1
  B  B21  1  0.500000  0.708978  0.765989  1
  B  B22  1  0.500000  0.630529  0.184658  1
  B  B23  1  0.500000  0.369471  0.815342  1
  B  B24  1  0.500000  0.130257  0.314353  1
  B  B25  1  0.500000  0.869743  0.685647  1
  B  B26  1  0.500000  0.983050  0.212449  1
  B  B27  1  0.500000  0.016950  0.787551  1
  B  B28  1  0.500000  0.482156  0.286888  1
  B  B29  1  0.500000  0.517844  0.713112  1
  B  B30  1  0.500000  0.601679  0.027864  1
  B  B31  1  0.500000  0.398321  0.972136  1
  B  B32  1  0.500000  0.101383  0.471862  1
  B  B33  1  0.500000  0.898617  0.528138  1
  Ru  Ru34  1  0.000000  0.138324  0.179264  1
  Ru  Ru35  1  0.000000  0.861676  0.820736  1
