# generated using pymatgen
data_Cd9Sn4Hg5
_symmetry_space_group_name_H-M   'P 1'
_cell_length_a   20.58033280
_cell_length_b   20.58033219
_cell_length_c   6.29535330
_cell_angle_alpha   107.10127898
_cell_angle_beta   107.10127903
_cell_angle_gamma   10.08293712
_symmetry_Int_Tables_number   1
_chemical_formula_structural   Cd9Sn4Hg5
_chemical_formula_sum   'Cd9 Sn4 Hg5'
_cell_volume   446.01166386
_cell_formula_units_Z   1
loop_
 _symmetry_equiv_pos_site_id
 _symmetry_equiv_pos_as_xyz
  1  'x, y, z'
loop_
 _atom_site_type_symbol
 _atom_site_label
 _atom_site_symmetry_multiplicity
 _atom_site_fract_x
 _atom_site_fract_y
 _atom_site_fract_z
 _atom_site_occupancy
  Cd  Cd0  1  0.552059  0.552059  0.293773  1
  Cd  Cd1  1  0.777590  0.777590  0.408561  1
  Cd  Cd2  1  0.003637  0.003637  0.476331  1
  Cd  Cd3  1  0.223376  0.223376  0.593664  1
  Cd  Cd4  1  0.446972  0.446972  0.712127  1
  Cd  Cd5  1  0.554374  0.554374  0.787975  1
  Cd  Cd6  1  0.663284  0.663284  0.797973  1
  Cd  Cd7  1  0.777210  0.777210  0.886458  1
  Cd  Cd8  1  0.888229  0.888229  0.894320  1
  Sn  Sn9  1  0.108965  0.108965  0.121292  1
  Sn  Sn10  1  0.222606  0.222606  0.085698  1
  Sn  Sn11  1  0.333003  0.333003  0.211680  1
  Sn  Sn12  1  0.445135  0.445135  0.201919  1
  Hg  Hg13  1  0.002983  0.002983  0.965509  1
  Hg  Hg14  1  0.670012  0.670012  0.327182  1
  Hg  Hg15  1  0.894874  0.894874  0.427803  1
  Hg  Hg16  1  0.104877  0.104877  0.605046  1
  Hg  Hg17  1  0.330811  0.330811  0.702687  1
