# generated using pymatgen
data_Cs6InTe4I
_symmetry_space_group_name_H-M   'P 1'
_cell_length_a   12.30033300
_cell_length_b   12.30033338
_cell_length_c   9.19038600
_cell_angle_alpha   90.00000000
_cell_angle_beta   90.00000000
_cell_angle_gamma   120.00000167
_symmetry_Int_Tables_number   1
_chemical_formula_structural   Cs6InTe4I
_chemical_formula_sum   'Cs12 In2 Te8 I2'
_cell_volume   1204.19862790
_cell_formula_units_Z   2
loop_
 _symmetry_equiv_pos_site_id
 _symmetry_equiv_pos_as_xyz
  1  'x, y, z'
loop_
 _atom_site_type_symbol
 _atom_site_label
 _atom_site_symmetry_multiplicity
 _atom_site_fract_x
 _atom_site_fract_y
 _atom_site_fract_z
 _atom_site_occupancy
  Cs  Cs0  1  0.140187  0.859813  0.514828  1
  Cs  Cs1  1  0.719624  0.859813  0.514828  1
  Cs  Cs2  1  0.951850  0.475925  0.320488  1
  Cs  Cs3  1  0.524075  0.475925  0.320488  1
  Cs  Cs4  1  0.859813  0.719624  0.014828  1
  Cs  Cs5  1  0.280376  0.140187  0.014828  1
  Cs  Cs6  1  0.524075  0.048150  0.320488  1
  Cs  Cs7  1  0.140187  0.280376  0.514828  1
  Cs  Cs8  1  0.859813  0.140187  0.014828  1
  Cs  Cs9  1  0.048150  0.524075  0.820488  1
  Cs  Cs10  1  0.475925  0.951850  0.820488  1
  Cs  Cs11  1  0.475925  0.524075  0.820488  1
  In  In12  1  0.666667  0.333333  0.707679  1
  In  In13  1  0.333333  0.666667  0.207679  1
  Te  Te14  1  0.411905  0.205953  0.610941  1
  Te  Te15  1  0.588095  0.794047  0.110941  1
  Te  Te16  1  0.666667  0.333333  0.022912  1
  Te  Te17  1  0.794047  0.588095  0.610941  1
  Te  Te18  1  0.205953  0.411905  0.110941  1
  Te  Te19  1  0.333333  0.666667  0.522912  1
  Te  Te20  1  0.205953  0.794047  0.110941  1
  Te  Te21  1  0.794047  0.205953  0.610941  1
  I  I22  1  0.000000  0.000000  0.271240  1
  I  I23  1  0.000000  0.000000  0.771240  1
