# generated using pymatgen
data_Hf3PaB8
_symmetry_space_group_name_H-M   'P 1'
_cell_length_a   3.14886100
_cell_length_b   3.14886208
_cell_length_c   14.60637300
_cell_angle_alpha   90.00000000
_cell_angle_beta   90.00000000
_cell_angle_gamma   120.00002017
_symmetry_Int_Tables_number   1
_chemical_formula_structural   Hf3PaB8
_chemical_formula_sum   'Hf3 Pa1 B8'
_cell_volume   125.42383026
_cell_formula_units_Z   1
loop_
 _symmetry_equiv_pos_site_id
 _symmetry_equiv_pos_as_xyz
  1  'x, y, z'
loop_
 _atom_site_type_symbol
 _atom_site_label
 _atom_site_symmetry_multiplicity
 _atom_site_fract_x
 _atom_site_fract_y
 _atom_site_fract_z
 _atom_site_occupancy
  Hf  Hf0  1  0.000000  0.000000  0.738597  1
  Hf  Hf1  1  0.000000  0.000000  0.500000  1
  Hf  Hf2  1  0.000000  0.000000  0.261403  1
  Pa  Pa3  1  0.000000  0.000000  0.000000  1
  B  B4  1  0.666667  0.333333  0.858319  1
  B  B5  1  0.666667  0.333333  0.619188  1
  B  B6  1  0.666667  0.333333  0.380812  1
  B  B7  1  0.666667  0.333333  0.141681  1
  B  B8  1  0.333333  0.666667  0.858319  1
  B  B9  1  0.333333  0.666667  0.619188  1
  B  B10  1  0.333333  0.666667  0.380812  1
  B  B11  1  0.333333  0.666667  0.141681  1
