# generated using pymatgen
data_Hf4Mn7Si
_symmetry_space_group_name_H-M   'P 1'
_cell_length_a   4.91276700
_cell_length_b   4.91276673
_cell_length_c   8.08001800
_cell_angle_alpha   90.00000000
_cell_angle_beta   90.00000000
_cell_angle_gamma   119.99999509
_symmetry_Int_Tables_number   1
_chemical_formula_structural   Hf4Mn7Si
_chemical_formula_sum   'Hf4 Mn7 Si1'
_cell_volume   168.88663853
_cell_formula_units_Z   1
loop_
 _symmetry_equiv_pos_site_id
 _symmetry_equiv_pos_as_xyz
  1  'x, y, z'
loop_
 _atom_site_type_symbol
 _atom_site_label
 _atom_site_symmetry_multiplicity
 _atom_site_fract_x
 _atom_site_fract_y
 _atom_site_fract_z
 _atom_site_occupancy
  Hf  Hf0  1  0.333333  0.666667  0.436343  1
  Hf  Hf1  1  0.666667  0.333333  0.933605  1
  Hf  Hf2  1  0.666667  0.333333  0.563657  1
  Hf  Hf3  1  0.333333  0.666667  0.066395  1
  Mn  Mn4  1  0.171120  0.342241  0.749421  1
  Mn  Mn5  1  0.828880  0.171120  0.250579  1
  Mn  Mn6  1  0.342241  0.171120  0.250579  1
  Mn  Mn7  1  0.657759  0.828880  0.749421  1
  Mn  Mn8  1  0.000000  0.000000  0.500000  1
  Mn  Mn9  1  0.828880  0.657759  0.250579  1
  Mn  Mn10  1  0.171120  0.828880  0.749421  1
  Si  Si11  1  0.000000  0.000000  0.000000  1
