# generated using pymatgen
data_Lu10Si4IrPb
_symmetry_space_group_name_H-M   'P 1'
_cell_length_a   8.67907891
_cell_length_b   8.67907818
_cell_length_c   8.67908000
_cell_angle_alpha   129.64171511
_cell_angle_beta   129.64171112
_cell_angle_gamma   73.98020026
_symmetry_Int_Tables_number   1
_chemical_formula_structural   Lu10Si4IrPb
_chemical_formula_sum   'Lu10 Si4 Ir1 Pb1'
_cell_volume   378.07930732
_cell_formula_units_Z   1
loop_
 _symmetry_equiv_pos_site_id
 _symmetry_equiv_pos_as_xyz
  1  'x, y, z'
loop_
 _atom_site_type_symbol
 _atom_site_label
 _atom_site_symmetry_multiplicity
 _atom_site_fract_x
 _atom_site_fract_y
 _atom_site_fract_z
 _atom_site_occupancy
  Lu  Lu0  1  0.983903  0.983903  0.000000  1
  Lu  Lu1  1  0.516097  0.516097  0.000000  1
  Lu  Lu2  1  0.835275  0.289363  0.839629  1
  Lu  Lu3  1  0.210637  0.664725  0.160371  1
  Lu  Lu4  1  0.449735  0.995647  0.160371  1
  Lu  Lu5  1  0.289363  0.449735  0.454088  1
  Lu  Lu6  1  0.050265  0.210637  0.545912  1
  Lu  Lu7  1  0.504353  0.050265  0.839629  1
  Lu  Lu8  1  0.664725  0.504353  0.454088  1
  Lu  Lu9  1  0.995647  0.835275  0.545912  1
  Si  Si10  1  0.128156  0.628156  0.756314  1
  Si  Si11  1  0.871844  0.371844  0.243686  1
  Si  Si12  1  0.628156  0.871844  0.500000  1
  Si  Si13  1  0.371844  0.128156  0.500000  1
  Ir  Ir14  1  0.250000  0.250000  0.000000  1
  Pb  Pb15  1  0.750000  0.750000  0.000000  1
