# generated using pymatgen
data_Er10Tm10Ir5Rh7
_symmetry_space_group_name_H-M   'P 1'
_cell_length_a   10.76631217
_cell_length_b   10.76573480
_cell_length_c   6.31276202
_cell_angle_alpha   89.99719387
_cell_angle_beta   90.00062151
_cell_angle_gamma   90.06931383
_symmetry_Int_Tables_number   1
_chemical_formula_structural   Er10Tm10Ir5Rh7
_chemical_formula_sum   'Er10 Tm10 Ir5 Rh7'
_cell_volume   731.69442188
_cell_formula_units_Z   1
loop_
 _symmetry_equiv_pos_site_id
 _symmetry_equiv_pos_as_xyz
  1  'x, y, z'
loop_
 _atom_site_type_symbol
 _atom_site_label
 _atom_site_symmetry_multiplicity
 _atom_site_fract_x
 _atom_site_fract_y
 _atom_site_fract_z
 _atom_site_occupancy
  Er  Er0  1  0.290563  0.087922  0.376724  1
  Er  Er1  1  0.290463  0.910254  0.878054  1
  Er  Er2  1  0.708932  0.089449  0.877643  1
  Er  Er3  1  0.708740  0.910454  0.377066  1
  Er  Er4  1  0.587201  0.789757  0.877971  1
  Er  Er5  1  0.587083  0.210211  0.377798  1
  Er  Er6  1  0.411540  0.790086  0.377940  1
  Er  Er7  1  0.412824  0.210040  0.877825  1
  Er  Er8  1  0.209958  0.412973  0.621954  1
  Er  Er9  1  0.209712  0.588409  0.122062  1
  Tm  Tm10  1  0.790147  0.413177  0.121940  1
  Tm  Tm11  1  0.790249  0.587028  0.621943  1
  Tm  Tm12  1  0.912169  0.709108  0.123055  1
  Tm  Tm13  1  0.910643  0.291440  0.622155  1
  Tm  Tm14  1  0.089485  0.709301  0.621648  1
  Tm  Tm15  1  0.089243  0.291531  0.122734  1
  Tm  Tm16  1  0.000164  0.999777  0.500163  1
  Tm  Tm17  1  0.000211  0.999804  0.000065  1
  Tm  Tm18  1  0.500050  0.499775  0.000227  1
  Tm  Tm19  1  0.500324  0.500135  0.500010  1
  Ir  Ir20  1  0.152884  0.846730  0.250224  1
  Ir  Ir21  1  0.654812  0.345705  0.750120  1
  Ir  Ir22  1  0.654911  0.654214  0.250014  1
  Ir  Ir23  1  0.345444  0.345392  0.250003  1
  Ir  Ir24  1  0.346050  0.653827  0.749901  1
  Rh  Rh25  1  0.847023  0.153450  0.250137  1
  Rh  Rh26  1  0.846327  0.846580  0.750055  1
  Rh  Rh27  1  0.152918  0.154000  0.750295  1
  Rh  Rh28  1  0.500540  0.000245  0.122756  1
  Rh  Rh29  1  0.500451  0.000209  0.623271  1
  Rh  Rh30  1  0.999470  0.499551  0.876863  1
  Rh  Rh31  1  0.999467  0.499467  0.377384  1
