# generated using pymatgen
data_Tb3YPa4(ReB6)4
_symmetry_space_group_name_H-M   'P 1'
_cell_length_a   3.71865200
_cell_length_b   9.22250723
_cell_length_c   11.54136829
_cell_angle_alpha   89.97431072
_cell_angle_beta   90.00000000
_cell_angle_gamma   90.00000000
_symmetry_Int_Tables_number   1
_chemical_formula_structural   Tb3YPa4(ReB6)4
_chemical_formula_sum   'Tb3 Y1 Pa4 Re4 B24'
_cell_volume   395.81458999
_cell_formula_units_Z   1
loop_
 _symmetry_equiv_pos_site_id
 _symmetry_equiv_pos_as_xyz
  1  'x, y, z'
loop_
 _atom_site_type_symbol
 _atom_site_label
 _atom_site_symmetry_multiplicity
 _atom_site_fract_x
 _atom_site_fract_y
 _atom_site_fract_z
 _atom_site_occupancy
  Tb  Tb0  1  0.000000  0.054163  0.624480  1
  Tb  Tb1  1  0.000000  0.445922  0.124442  1
  Tb  Tb2  1  0.000000  0.554098  0.875606  1
  Y  Y3  1  0.000000  0.945884  0.375502  1
  Pa  Pa4  1  0.000000  0.324571  0.412535  1
  Pa  Pa5  1  0.000000  0.675431  0.587343  1
  Pa  Pa6  1  0.000000  0.824648  0.087476  1
  Pa  Pa7  1  0.000000  0.175309  0.912588  1
  Re  Re8  1  0.000000  0.638835  0.322167  1
  Re  Re9  1  0.000000  0.361240  0.677780  1
  Re  Re10  1  0.000000  0.138676  0.177835  1
  Re  Re11  1  0.000000  0.861311  0.822161  1
  B  B12  1  0.500000  0.552487  0.433075  1
  B  B13  1  0.500000  0.447710  0.566874  1
  B  B14  1  0.500000  0.052106  0.067016  1
  B  B15  1  0.500000  0.947763  0.933134  1
  B  B16  1  0.500000  0.746804  0.420843  1
  B  B17  1  0.500000  0.253385  0.579101  1
  B  B18  1  0.500000  0.246317  0.079163  1
  B  B19  1  0.500000  0.753620  0.920860  1
  B  B20  1  0.500000  0.794125  0.267218  1
  B  B21  1  0.500000  0.206125  0.732804  1
  B  B22  1  0.500000  0.293658  0.232888  1
  B  B23  1  0.500000  0.706200  0.767126  1
  B  B24  1  0.500000  0.635643  0.186377  1
  B  B25  1  0.500000  0.364473  0.813678  1
  B  B26  1  0.500000  0.135168  0.313823  1
  B  B27  1  0.500000  0.864660  0.686215  1
  B  B28  1  0.500000  0.983342  0.213848  1
  B  B29  1  0.500000  0.016464  0.786316  1
  B  B30  1  0.500000  0.483646  0.286330  1
  B  B31  1  0.500000  0.516385  0.713696  1
  B  B32  1  0.500000  0.620320  0.033393  1
  B  B33  1  0.500000  0.379691  0.966666  1
  B  B34  1  0.500000  0.119014  0.466767  1
  B  B35  1  0.500000  0.880807  0.532873  1
