# generated using pymatgen
data_Tb5HoAl24Os5Pd3
_symmetry_space_group_name_H-M   'P 1'
_cell_length_a   8.83372205
_cell_length_b   8.85080882
_cell_length_c   9.55974215
_cell_angle_alpha   90.13258541
_cell_angle_beta   89.70718759
_cell_angle_gamma   119.48223758
_symmetry_Int_Tables_number   1
_chemical_formula_structural   Tb5HoAl24Os5Pd3
_chemical_formula_sum   'Tb5 Ho1 Al24 Os5 Pd3'
_cell_volume   650.63902389
_cell_formula_units_Z   1
loop_
 _symmetry_equiv_pos_site_id
 _symmetry_equiv_pos_as_xyz
  1  'x, y, z'
loop_
 _atom_site_type_symbol
 _atom_site_label
 _atom_site_symmetry_multiplicity
 _atom_site_fract_x
 _atom_site_fract_y
 _atom_site_fract_z
 _atom_site_occupancy
  Tb  Tb0  1  0.187214  0.381851  0.250891  1
  Tb  Tb1  1  0.812783  0.617847  0.749191  1
  Tb  Tb2  1  0.614894  0.814726  0.252933  1
  Tb  Tb3  1  0.385576  0.185355  0.747105  1
  Tb  Tb4  1  0.194833  0.809222  0.251421  1
  Ho  Ho5  1  0.803933  0.191353  0.748198  1
  Al  Al6  1  0.335132  0.670914  0.027512  1
  Al  Al7  1  0.665277  0.329080  0.971694  1
  Al  Al8  1  0.669272  0.331470  0.526437  1
  Al  Al9  1  0.330865  0.668363  0.474251  1
  Al  Al10  1  0.157038  0.325051  0.575824  1
  Al  Al11  1  0.842422  0.674567  0.424608  1
  Al  Al12  1  0.673827  0.841508  0.576517  1
  Al  Al13  1  0.836472  0.676209  0.078685  1
  Al  Al14  1  0.326530  0.158993  0.423895  1
  Al  Al15  1  0.162999  0.323513  0.920930  1
  Al  Al16  1  0.163718  0.834862  0.575913  1
  Al  Al17  1  0.325545  0.158652  0.076408  1
  Al  Al18  1  0.836278  0.165081  0.424693  1
  Al  Al19  1  0.674829  0.841875  0.923173  1
  Al  Al20  1  0.831219  0.159015  0.077903  1
  Al  Al21  1  0.168904  0.841057  0.921474  1
  Al  Al22  1  0.561620  0.125941  0.249956  1
  Al  Al23  1  0.439070  0.874453  0.750058  1
  Al  Al24  1  0.873945  0.437261  0.252493  1
  Al  Al25  1  0.125611  0.562018  0.747710  1
  Al  Al26  1  0.561545  0.437273  0.249918  1
  Al  Al27  1  0.438383  0.562794  0.750115  1
  Al  Al28  1  0.998398  0.002916  0.250314  1
  Al  Al29  1  0.001135  0.997629  0.749707  1
  Os  Os30  1  0.500388  0.000234  0.999731  1
  Os  Os31  1  0.500290  0.000137  0.500265  1
  Os  Os32  1  0.999856  0.499692  0.500263  1
  Os  Os33  1  0.000055  0.999991  0.999970  1
  Os  Os34  1  0.000026  0.999930  0.500038  1
  Pd  Pd35  1  0.999820  0.499519  0.999763  1
  Pd  Pd36  1  0.500146  0.499820  0.999914  1
  Pd  Pd37  1  0.500149  0.499827  0.500130  1
