# generated using pymatgen
data_BeNb5Ga3
_symmetry_space_group_name_H-M   'P 1'
_cell_length_a   7.87110300
_cell_length_b   7.87110262
_cell_length_c   5.39796200
_cell_angle_alpha   90.00000000
_cell_angle_beta   90.00000000
_cell_angle_gamma   119.99999741
_symmetry_Int_Tables_number   1
_chemical_formula_structural   BeNb5Ga3
_chemical_formula_sum   'Be2 Nb10 Ga6'
_cell_volume   289.62205846
_cell_formula_units_Z   2
loop_
 _symmetry_equiv_pos_site_id
 _symmetry_equiv_pos_as_xyz
  1  'x, y, z'
loop_
 _atom_site_type_symbol
 _atom_site_label
 _atom_site_symmetry_multiplicity
 _atom_site_fract_x
 _atom_site_fract_y
 _atom_site_fract_z
 _atom_site_occupancy
  Be  Be0  1  0.000000  0.000000  0.000000  1
  Be  Be1  1  0.000000  0.000000  0.500000  1
  Nb  Nb2  1  0.666667  0.333333  0.000000  1
  Nb  Nb3  1  0.333333  0.666667  0.000000  1
  Nb  Nb4  1  0.333333  0.666667  0.500000  1
  Nb  Nb5  1  0.666667  0.333333  0.500000  1
  Nb  Nb6  1  0.741076  0.741076  0.750000  1
  Nb  Nb7  1  0.258924  0.000000  0.750000  1
  Nb  Nb8  1  0.000000  0.258924  0.750000  1
  Nb  Nb9  1  0.258924  0.258924  0.250000  1
  Nb  Nb10  1  0.741076  0.000000  0.250000  1
  Nb  Nb11  1  0.000000  0.741076  0.250000  1
  Ga  Ga12  1  0.388578  0.388578  0.750000  1
  Ga  Ga13  1  0.611422  0.000000  0.750000  1
  Ga  Ga14  1  0.000000  0.611422  0.750000  1
  Ga  Ga15  1  0.611422  0.611422  0.250000  1
  Ga  Ga16  1  0.388578  0.000000  0.250000  1
  Ga  Ga17  1  0.000000  0.388578  0.250000  1
