# generated using pymatgen
data_Eu7DyP6
_symmetry_space_group_name_H-M   'P 1'
_cell_length_a   7.71019100
_cell_length_b   7.71090895
_cell_length_c   7.64466105
_cell_angle_alpha   109.30895563
_cell_angle_beta   109.28835840
_cell_angle_gamma   109.64394891
_symmetry_Int_Tables_number   1
_chemical_formula_structural   Eu7DyP6
_chemical_formula_sum   'Eu7 Dy1 P6'
_cell_volume   350.60950549
_cell_formula_units_Z   1
loop_
 _symmetry_equiv_pos_site_id
 _symmetry_equiv_pos_as_xyz
  1  'x, y, z'
loop_
 _atom_site_type_symbol
 _atom_site_label
 _atom_site_symmetry_multiplicity
 _atom_site_fract_x
 _atom_site_fract_y
 _atom_site_fract_z
 _atom_site_occupancy
  Eu  Eu0  1  0.634519  0.634716  0.633925  1
  Eu  Eu1  1  0.003416  0.369365  0.500633  1
  Eu  Eu2  1  0.365924  0.496604  0.997230  1
  Eu  Eu3  1  0.000218  0.865454  0.499412  1
  Eu  Eu4  1  0.865248  0.499744  0.999140  1
  Eu  Eu5  1  0.500069  0.000053  0.867895  1
  Eu  Eu6  1  0.130675  0.134091  0.131272  1
  Dy  Dy7  1  0.500025  0.000003  0.372264  1
  P  P8  1  0.864873  0.122547  0.738866  1
  P  P9  1  0.377456  0.242366  0.616305  1
  P  P10  1  0.132357  0.755199  0.885574  1
  P  P11  1  0.744760  0.877123  0.130342  1
  P  P12  1  0.257635  0.635111  0.373945  1
  P  P13  1  0.622826  0.367623  0.253195  1
