# generated using pymatgen
data_TiNb4Si2P
_symmetry_space_group_name_H-M   'P 1'
_cell_length_a   7.48860480
_cell_length_b   7.48860309
_cell_length_c   7.48860739
_cell_angle_alpha   128.12557852
_cell_angle_beta   128.14753815
_cell_angle_gamma   76.40388400
_symmetry_Int_Tables_number   1
_chemical_formula_structural   TiNb4Si2P
_chemical_formula_sum   'Ti2 Nb8 Si4 P2'
_cell_volume   252.43704694
_cell_formula_units_Z   2
loop_
 _symmetry_equiv_pos_site_id
 _symmetry_equiv_pos_as_xyz
  1  'x, y, z'
loop_
 _atom_site_type_symbol
 _atom_site_label
 _atom_site_symmetry_multiplicity
 _atom_site_fract_x
 _atom_site_fract_y
 _atom_site_fract_z
 _atom_site_occupancy
  Ti  Ti0  1  0.499229  0.503102  0.002331  1
  Ti  Ti1  1  0.999228  0.996896  0.996123  1
  Nb  Nb2  1  0.017835  0.190338  0.502002  1
  Nb  Nb3  1  0.517839  0.015831  0.827500  1
  Nb  Nb4  1  0.189702  0.687927  0.168348  1
  Nb  Nb5  1  0.480422  0.978647  0.168348  1
  Nb  Nb6  1  0.689707  0.521362  0.501788  1
  Nb  Nb7  1  0.980426  0.812081  0.501788  1
  Nb  Nb8  1  0.311664  0.484168  0.502002  1
  Nb  Nb9  1  0.811669  0.309661  0.827500  1
  Si  Si10  1  0.367271  0.133704  0.500975  1
  Si  Si11  1  0.867310  0.366260  0.233569  1
  Si  Si12  1  0.752257  0.750005  0.002254  1
  Si  Si13  1  0.252249  0.249997  0.002254  1
  P  P14  1  0.131585  0.630893  0.762480  1
  P  P15  1  0.631608  0.869129  0.500737  1
