# generated using pymatgen
data_NaSr(Al2Au3)2
_symmetry_space_group_name_H-M   'P 1'
_cell_length_a   5.47931900
_cell_length_b   7.07158600
_cell_length_c   13.20586100
_cell_angle_alpha   90.00000000
_cell_angle_beta   90.00000000
_cell_angle_gamma   90.00000000
_symmetry_Int_Tables_number   1
_chemical_formula_structural   NaSr(Al2Au3)2
_chemical_formula_sum   'Na2 Sr2 Al8 Au12'
_cell_volume   511.69377595
_cell_formula_units_Z   2
loop_
 _symmetry_equiv_pos_site_id
 _symmetry_equiv_pos_as_xyz
  1  'x, y, z'
loop_
 _atom_site_type_symbol
 _atom_site_label
 _atom_site_symmetry_multiplicity
 _atom_site_fract_x
 _atom_site_fract_y
 _atom_site_fract_z
 _atom_site_occupancy
  Na  Na0  1  0.250000  0.655852  0.907473  1
  Na  Na1  1  0.250000  0.844148  0.407473  1
  Sr  Sr2  1  0.750000  0.354835  0.079737  1
  Sr  Sr3  1  0.750000  0.145165  0.579737  1
  Al  Al4  1  0.999250  0.139794  0.846006  1
  Al  Al5  1  0.500750  0.360206  0.346006  1
  Al  Al6  1  0.498372  0.857049  0.155390  1
  Al  Al7  1  0.001628  0.642951  0.655390  1
  Al  Al8  1  0.001628  0.857049  0.155390  1
  Al  Al9  1  0.498372  0.642951  0.655390  1
  Al  Al10  1  0.500750  0.139794  0.846006  1
  Al  Al11  1  0.999250  0.360206  0.346006  1
  Au  Au12  1  0.250000  0.349455  0.717382  1
  Au  Au13  1  0.250000  0.150545  0.217382  1
  Au  Au14  1  0.750000  0.657754  0.285500  1
  Au  Au15  1  0.750000  0.842246  0.785500  1
  Au  Au16  1  0.250000  0.943041  0.696386  1
  Au  Au17  1  0.250000  0.556959  0.196386  1
  Au  Au18  1  0.750000  0.060141  0.310682  1
  Au  Au19  1  0.750000  0.439859  0.810682  1
  Au  Au20  1  0.250000  0.423582  0.505680  1
  Au  Au21  1  0.250000  0.076418  0.005680  1
  Au  Au22  1  0.750000  0.613708  0.494368  1
  Au  Au23  1  0.750000  0.886292  0.994368  1
