# generated using pymatgen
data_Np4Re(GeRu)6
_symmetry_space_group_name_H-M   'P 1'
_cell_length_a   7.18239910
_cell_length_b   7.18239958
_cell_length_c   7.18239896
_cell_angle_alpha   109.22962180
_cell_angle_beta   109.59215745
_cell_angle_gamma   109.59215461
_symmetry_Int_Tables_number   1
_chemical_formula_structural   Np4Re(GeRu)6
_chemical_formula_sum   'Np4 Re1 Ge6 Ru6'
_cell_volume   285.22062732
_cell_formula_units_Z   1
loop_
 _symmetry_equiv_pos_site_id
 _symmetry_equiv_pos_as_xyz
  1  'x, y, z'
loop_
 _atom_site_type_symbol
 _atom_site_label
 _atom_site_symmetry_multiplicity
 _atom_site_fract_x
 _atom_site_fract_y
 _atom_site_fract_z
 _atom_site_occupancy
  Np  Np0  1  0.499998  0.501110  0.498886  1
  Np  Np1  1  0.997776  0.998888  0.498886  1
  Np  Np2  1  0.499998  0.998888  0.001112  1
  Np  Np3  1  0.002224  0.501110  0.001112  1
  Re  Re4  1  0.500001  0.750000  0.249999  1
  Ge  Ge5  1  0.000000  0.306177  0.306177  1
  Ge  Ge6  1  0.000000  0.693822  0.693822  1
  Ge  Ge7  1  0.305475  0.000439  0.305914  1
  Ge  Ge8  1  0.305475  0.305036  0.999561  1
  Ge  Ge9  1  0.694524  0.000439  0.694963  1
  Ge  Ge10  1  0.694524  0.694085  0.999561  1
  Ru  Ru11  1  0.000000  0.000000  0.000000  1
  Ru  Ru12  1  0.500001  0.249999  0.750000  1
  Ru  Ru13  1  0.250054  0.499928  0.749982  1
  Ru  Ru14  1  0.749945  0.250017  0.500074  1
  Ru  Ru15  1  0.749945  0.499928  0.249870  1
  Ru  Ru16  1  0.250054  0.750129  0.500074  1
