# generated using pymatgen
data_HoZrMn12P7
_symmetry_space_group_name_H-M   'P 1'
_cell_length_a   9.23090600
_cell_length_b   9.23090642
_cell_length_c   3.56531300
_cell_angle_alpha   90.00000000
_cell_angle_beta   90.00000000
_cell_angle_gamma   120.00000567
_symmetry_Int_Tables_number   1
_chemical_formula_structural   HoZrMn12P7
_chemical_formula_sum   'Ho1 Zr1 Mn12 P7'
_cell_volume   263.09763620
_cell_formula_units_Z   1
loop_
 _symmetry_equiv_pos_site_id
 _symmetry_equiv_pos_as_xyz
  1  'x, y, z'
loop_
 _atom_site_type_symbol
 _atom_site_label
 _atom_site_symmetry_multiplicity
 _atom_site_fract_x
 _atom_site_fract_y
 _atom_site_fract_z
 _atom_site_occupancy
  Ho  Ho0  1  0.333333  0.666667  0.500000  1
  Zr  Zr1  1  0.666667  0.333333  0.000000  1
  Mn  Mn2  1  0.047959  0.425884  0.000000  1
  Mn  Mn3  1  0.574116  0.622076  0.000000  1
  Mn  Mn4  1  0.377924  0.952041  0.000000  1
  Mn  Mn5  1  0.279319  0.157699  0.000000  1
  Mn  Mn6  1  0.842301  0.121619  0.000000  1
  Mn  Mn7  1  0.878381  0.720681  0.000000  1
  Mn  Mn8  1  0.439364  0.390957  0.500000  1
  Mn  Mn9  1  0.609043  0.048406  0.500000  1
  Mn  Mn10  1  0.951594  0.560636  0.500000  1
  Mn  Mn11  1  0.103665  0.227925  0.500000  1
  Mn  Mn12  1  0.772075  0.875741  0.500000  1
  Mn  Mn13  1  0.124259  0.896335  0.500000  1
  P  P14  1  0.290348  0.410923  0.000000  1
  P  P15  1  0.589077  0.879425  0.000000  1
  P  P16  1  0.120575  0.709652  0.000000  1
  P  P17  1  0.412207  0.129698  0.500000  1
  P  P18  1  0.870302  0.282509  0.500000  1
  P  P19  1  0.717491  0.587793  0.500000  1
  P  P20  1  0.000000  0.000000  0.000000  1
