# generated using pymatgen
data_YbTa4O8
_symmetry_space_group_name_H-M   'P 1'
_cell_length_a   7.07159257
_cell_length_b   7.07159209
_cell_length_c   9.71113290
_cell_angle_alpha   86.85790629
_cell_angle_beta   93.14208971
_cell_angle_gamma   86.72212464
_symmetry_Int_Tables_number   1
_chemical_formula_structural   YbTa4O8
_chemical_formula_sum   'Yb3 Ta12 O24'
_cell_volume   483.28673768
_cell_formula_units_Z   3
loop_
 _symmetry_equiv_pos_site_id
 _symmetry_equiv_pos_as_xyz
  1  'x, y, z'
loop_
 _atom_site_type_symbol
 _atom_site_label
 _atom_site_symmetry_multiplicity
 _atom_site_fract_x
 _atom_site_fract_y
 _atom_site_fract_z
 _atom_site_occupancy
  Yb  Yb0  1  0.623831  0.376169  0.121545  1
  Yb  Yb1  1  0.895477  0.104523  0.395139  1
  Yb  Yb2  1  0.371309  0.628691  0.873669  1
  Ta  Ta3  1  0.099052  0.900948  0.098060  1
  Ta  Ta4  1  0.597211  0.402789  0.598169  1
  Ta  Ta5  1  0.397725  0.602275  0.399611  1
  Ta  Ta6  1  0.900608  0.099392  0.898856  1
  Ta  Ta7  1  0.600859  0.831781  0.614011  1
  Ta  Ta8  1  0.105844  0.330011  0.114495  1
  Ta  Ta9  1  0.669989  0.894156  0.114495  1
  Ta  Ta10  1  0.168220  0.399141  0.614011  1
  Ta  Ta11  1  0.329342  0.105263  0.882440  1
  Ta  Ta12  1  0.832629  0.601520  0.389274  1
  Ta  Ta13  1  0.398480  0.167371  0.389274  1
  Ta  Ta14  1  0.894737  0.670658  0.882440  1
  O  O15  1  0.599324  0.090883  0.251650  1
  O  O16  1  0.086267  0.583575  0.753981  1
  O  O17  1  0.416425  0.913733  0.753981  1
  O  O18  1  0.909117  0.400676  0.251650  1
  O  O19  1  0.827330  0.826342  0.500239  1
  O  O20  1  0.334270  0.335372  0.999813  1
  O  O21  1  0.173658  0.172670  0.500239  1
  O  O22  1  0.664628  0.665730  0.999813  1
  O  O23  1  0.177676  0.092169  0.239107  1
  O  O24  1  0.670481  0.593270  0.740005  1
  O  O25  1  0.126121  0.590809  0.451511  1
  O  O26  1  0.627723  0.106530  0.963425  1
  O  O27  1  0.091924  0.188660  0.766868  1
  O  O28  1  0.596535  0.670279  0.260869  1
  O  O29  1  0.607654  0.127145  0.541906  1
  O  O30  1  0.103723  0.626805  0.039131  1
  O  O31  1  0.811340  0.908076  0.766868  1
  O  O32  1  0.329721  0.403465  0.260869  1
  O  O33  1  0.872855  0.392346  0.541906  1
  O  O34  1  0.373195  0.896277  0.039131  1
  O  O35  1  0.907831  0.822324  0.239107  1
  O  O36  1  0.406730  0.329519  0.740005  1
  O  O37  1  0.409191  0.873879  0.451511  1
  O  O38  1  0.893470  0.372277  0.963425  1
