# generated using pymatgen
data_Th4Ni3Ir11
_symmetry_space_group_name_H-M   'P 1'
_cell_length_a   5.34101489
_cell_length_b   5.34101521
_cell_length_c   13.20101207
_cell_angle_alpha   78.32877011
_cell_angle_beta   78.32877009
_cell_angle_gamma   59.99999780
_symmetry_Int_Tables_number   1
_chemical_formula_structural   Th4Ni3Ir11
_chemical_formula_sum   'Th4 Ni3 Ir11'
_cell_volume   317.10374370
_cell_formula_units_Z   1
loop_
 _symmetry_equiv_pos_site_id
 _symmetry_equiv_pos_as_xyz
  1  'x, y, z'
loop_
 _atom_site_type_symbol
 _atom_site_label
 _atom_site_symmetry_multiplicity
 _atom_site_fract_x
 _atom_site_fract_y
 _atom_site_fract_z
 _atom_site_occupancy
  Th  Th0  1  0.949797  0.949797  0.150610  1
  Th  Th1  1  0.050059  0.050059  0.849823  1
  Th  Th2  1  0.853276  0.853276  0.440174  1
  Th  Th3  1  0.147474  0.147474  0.557578  1
  Ni  Ni4  1  0.278718  0.278718  0.163848  1
  Ni  Ni5  1  0.612011  0.612011  0.163967  1
  Ni  Ni6  1  0.386770  0.386770  0.839688  1
  Ir  Ir7  1  0.390909  0.390909  0.322141  1
  Ir  Ir8  1  0.896042  0.390909  0.322141  1
  Ir  Ir9  1  0.390909  0.896042  0.322141  1
  Ir  Ir10  1  0.607737  0.607737  0.673494  1
  Ir  Ir11  1  0.111032  0.607737  0.673494  1
  Ir  Ir12  1  0.607737  0.111032  0.673494  1
  Ir  Ir13  1  0.000823  0.497294  0.004589  1
  Ir  Ir14  1  0.497294  0.000823  0.004589  1
  Ir  Ir15  1  0.497294  0.497294  0.004589  1
  Ir  Ir16  1  0.720652  0.720652  0.838042  1
  Ir  Ir17  1  0.501468  0.501468  0.495597  1
