# generated using pymatgen
data_Li2CaYbSb2
_symmetry_space_group_name_H-M   'P 1'
_cell_length_a   4.64698000
_cell_length_b   7.65645000
_cell_length_c   8.31731500
_cell_angle_alpha   90.00000000
_cell_angle_beta   90.00000000
_cell_angle_gamma   90.00000000
_symmetry_Int_Tables_number   1
_chemical_formula_structural   Li2CaYbSb2
_chemical_formula_sum   'Li4 Ca2 Yb2 Sb4'
_cell_volume   295.92482797
_cell_formula_units_Z   2
loop_
 _symmetry_equiv_pos_site_id
 _symmetry_equiv_pos_as_xyz
  1  'x, y, z'
loop_
 _atom_site_type_symbol
 _atom_site_label
 _atom_site_symmetry_multiplicity
 _atom_site_fract_x
 _atom_site_fract_y
 _atom_site_fract_z
 _atom_site_occupancy
  Li  Li0  1  0.750000  0.848733  0.427949  1
  Li  Li1  1  0.250000  0.151235  0.572169  1
  Li  Li2  1  0.250000  0.651235  0.927831  1
  Li  Li3  1  0.750000  0.348733  0.072051  1
  Ca  Ca4  1  0.250000  0.510133  0.298048  1
  Ca  Ca5  1  0.250000  0.010133  0.201952  1
  Yb  Yb6  1  0.750000  0.489897  0.702076  1
  Yb  Yb7  1  0.750000  0.989897  0.797924  1
  Sb  Sb8  1  0.750000  0.730446  0.100070  1
  Sb  Sb9  1  0.250000  0.269556  0.899377  1
  Sb  Sb10  1  0.750000  0.230446  0.399930  1
  Sb  Sb11  1  0.250000  0.769556  0.600623  1
