# generated using pymatgen
data_Nd20Ir5Ru2Rh5
_symmetry_space_group_name_H-M   'P 1'
_cell_length_a   11.27466800
_cell_length_b   11.27466800
_cell_length_c   6.58973400
_cell_angle_alpha   90.00000000
_cell_angle_beta   90.00000000
_cell_angle_gamma   90.00000000
_symmetry_Int_Tables_number   1
_chemical_formula_structural   Nd20Ir5Ru2Rh5
_chemical_formula_sum   'Nd20 Ir5 Ru2 Rh5'
_cell_volume   837.67471936
_cell_formula_units_Z   1
loop_
 _symmetry_equiv_pos_site_id
 _symmetry_equiv_pos_as_xyz
  1  'x, y, z'
loop_
 _atom_site_type_symbol
 _atom_site_label
 _atom_site_symmetry_multiplicity
 _atom_site_fract_x
 _atom_site_fract_y
 _atom_site_fract_z
 _atom_site_occupancy
  Nd  Nd0  1  0.088225  0.292730  0.118811  1
  Nd  Nd1  1  0.792730  0.411775  0.118811  1
  Nd  Nd2  1  0.207270  0.588225  0.118811  1
  Nd  Nd3  1  0.911775  0.707270  0.118811  1
  Nd  Nd4  1  0.411374  0.792177  0.380207  1
  Nd  Nd5  1  0.588626  0.207823  0.380207  1
  Nd  Nd6  1  0.292177  0.088626  0.380207  1
  Nd  Nd7  1  0.707823  0.911374  0.380207  1
  Nd  Nd8  1  0.410338  0.208075  0.887425  1
  Nd  Nd9  1  0.708075  0.089662  0.887425  1
  Nd  Nd10  1  0.291925  0.910338  0.887425  1
  Nd  Nd11  1  0.589662  0.791925  0.887425  1
  Nd  Nd12  1  0.089598  0.707539  0.614261  1
  Nd  Nd13  1  0.910402  0.292461  0.614261  1
  Nd  Nd14  1  0.207539  0.410402  0.614261  1
  Nd  Nd15  1  0.792461  0.589598  0.614261  1
  Nd  Nd16  1  0.000000  0.000000  0.999265  1
  Nd  Nd17  1  0.500000  0.500000  0.999265  1
  Nd  Nd18  1  0.500000  0.500000  0.501022  1
  Nd  Nd19  1  0.000000  0.000000  0.501022  1
  Ir  Ir20  1  0.153731  0.846797  0.249762  1
  Ir  Ir21  1  0.346797  0.346269  0.249762  1
  Ir  Ir22  1  0.653203  0.653731  0.249762  1
  Ir  Ir23  1  0.846269  0.153203  0.249762  1
  Ir  Ir24  1  0.000000  0.500000  0.876801  1
  Ru  Ru25  1  0.000000  0.500000  0.379567  1
  Ru  Ru26  1  0.500000  0.000000  0.120901  1
  Rh  Rh27  1  0.346908  0.654095  0.749628  1
  Rh  Rh28  1  0.154095  0.153092  0.749628  1
  Rh  Rh29  1  0.845905  0.846908  0.749628  1
  Rh  Rh30  1  0.653092  0.345905  0.749628  1
  Rh  Rh31  1  0.500000  0.000000  0.621782  1
