# generated using pymatgen
data_Ho2Er10Fe2I17
_symmetry_space_group_name_H-M   'P 1'
_cell_length_a   9.68748651
_cell_length_b   11.62531919
_cell_length_c   11.64339589
_cell_angle_alpha   93.55665180
_cell_angle_beta   104.77653060
_cell_angle_gamma   113.94483735
_symmetry_Int_Tables_number   1
_chemical_formula_structural   Ho2Er10Fe2I17
_chemical_formula_sum   'Ho2 Er10 Fe2 I17'
_cell_volume   1138.27802065
_cell_formula_units_Z   1
loop_
 _symmetry_equiv_pos_site_id
 _symmetry_equiv_pos_as_xyz
  1  'x, y, z'
loop_
 _atom_site_type_symbol
 _atom_site_label
 _atom_site_symmetry_multiplicity
 _atom_site_fract_x
 _atom_site_fract_y
 _atom_site_fract_z
 _atom_site_occupancy
  Ho  Ho0  1  0.050422  0.500774  0.318768  1
  Ho  Ho1  1  0.992504  0.808206  0.589945  1
  Er  Er2  1  0.658060  0.241674  0.279582  1
  Er  Er3  1  0.006786  0.191529  0.409199  1
  Er  Er4  1  0.217626  0.672364  0.980441  1
  Er  Er5  1  0.253036  0.975624  0.888089  1
  Er  Er6  1  0.342108  0.757889  0.720313  1
  Er  Er7  1  0.950318  0.500089  0.681872  1
  Er  Er8  1  0.747168  0.024558  0.112298  1
  Er  Er9  1  0.137960  0.285636  0.153924  1
  Er  Er10  1  0.781981  0.327522  0.019094  1
  Er  Er11  1  0.861847  0.714048  0.846318  1
  Fe  Fe12  1  0.104022  0.738285  0.785930  1
  Fe  Fe13  1  0.895892  0.261695  0.213992  1
  I  I14  1  0.784852  0.528029  0.417863  1
  I  I15  1  0.648244  0.420782  0.764302  1
  I  I16  1  0.845204  0.897794  0.327849  1
  I  I17  1  0.326651  0.214326  0.366977  1
  I  I18  1  0.155054  0.102848  0.672186  1
  I  I19  1  0.584497  0.052780  0.843902  1
  I  I20  1  0.760693  0.191262  0.538127  1
  I  I21  1  0.551779  0.713079  0.953776  1
  I  I22  1  0.352022  0.579034  0.235436  1
  I  I23  1  0.214559  0.471258  0.582332  1
  I  I24  1  0.056282  0.368230  0.897650  1
  I  I25  1  0.448393  0.286918  0.046328  1
  I  I26  1  0.999963  0.000073  0.000022  1
  I  I27  1  0.240241  0.809222  0.461840  1
  I  I28  1  0.415613  0.947284  0.156177  1
  I  I29  1  0.672805  0.785550  0.633148  1
  I  I30  1  0.943418  0.631640  0.102317  1
