# generated using pymatgen
data_TbYb2Ga3Ge2Ir
_symmetry_space_group_name_H-M   'P 1'
_cell_length_a   6.96623800
_cell_length_b   7.01405158
_cell_length_c   4.22861900
_cell_angle_alpha   90.00000000
_cell_angle_beta   90.00000000
_cell_angle_gamma   119.77473739
_symmetry_Int_Tables_number   1
_chemical_formula_structural   TbYb2Ga3Ge2Ir
_chemical_formula_sum   'Tb1 Yb2 Ga3 Ge2 Ir1'
_cell_volume   179.34025630
_cell_formula_units_Z   1
loop_
 _symmetry_equiv_pos_site_id
 _symmetry_equiv_pos_as_xyz
  1  'x, y, z'
loop_
 _atom_site_type_symbol
 _atom_site_label
 _atom_site_symmetry_multiplicity
 _atom_site_fract_x
 _atom_site_fract_y
 _atom_site_fract_z
 _atom_site_occupancy
  Tb  Tb0  1  0.417145  0.000000  0.000000  1
  Yb  Yb1  1  0.000187  0.418399  0.000000  1
  Yb  Yb2  1  0.581788  0.581601  0.000000  1
  Ga  Ga3  1  0.767450  0.000000  0.500000  1
  Ga  Ga4  1  0.231482  0.235177  0.500000  1
  Ga  Ga5  1  0.996306  0.764823  0.500000  1
  Ge  Ge6  1  0.663949  0.329464  0.500000  1
  Ge  Ge7  1  0.334485  0.670536  0.500000  1
  Ir  Ir8  1  0.007205  0.000000  0.000000  1
