# generated using pymatgen
data_Dy4Co18Si5P7Ru2
_symmetry_space_group_name_H-M   'P 1'
_cell_length_a   3.68621900
_cell_length_b   10.38100569
_cell_length_c   11.83332879
_cell_angle_alpha   90.04172327
_cell_angle_beta   90.00000000
_cell_angle_gamma   90.00000000
_symmetry_Int_Tables_number   1
_chemical_formula_structural   Dy4Co18Si5P7Ru2
_chemical_formula_sum   'Dy4 Co18 Si5 P7 Ru2'
_cell_volume   452.82185401
_cell_formula_units_Z   1
loop_
 _symmetry_equiv_pos_site_id
 _symmetry_equiv_pos_as_xyz
  1  'x, y, z'
loop_
 _atom_site_type_symbol
 _atom_site_label
 _atom_site_symmetry_multiplicity
 _atom_site_fract_x
 _atom_site_fract_y
 _atom_site_fract_z
 _atom_site_occupancy
  Dy  Dy0  1  0.250000  0.581878  0.702853  1
  Dy  Dy1  1  0.250000  0.920564  0.200928  1
  Dy  Dy2  1  0.750000  0.415638  0.297075  1
  Dy  Dy3  1  0.750000  0.084954  0.795940  1
  Co  Co4  1  0.750000  0.286697  0.011463  1
  Co  Co5  1  0.750000  0.210071  0.506327  1
  Co  Co6  1  0.250000  0.403766  0.484974  1
  Co  Co7  1  0.250000  0.095646  0.987252  1
  Co  Co8  1  0.750000  0.590749  0.507941  1
  Co  Co9  1  0.750000  0.913043  0.009730  1
  Co  Co10  1  0.250000  0.220205  0.175156  1
  Co  Co11  1  0.250000  0.277649  0.674921  1
  Co  Co12  1  0.750000  0.787842  0.825848  1
  Co  Co13  1  0.750000  0.713399  0.324810  1
  Co  Co14  1  0.250000  0.889217  0.702392  1
  Co  Co15  1  0.250000  0.611218  0.202620  1
  Co  Co16  1  0.750000  0.120153  0.299728  1
  Co  Co17  1  0.750000  0.377747  0.804318  1
  Co  Co18  1  0.250000  0.459898  0.935093  1
  Co  Co19  1  0.250000  0.038925  0.432803  1
  Co  Co20  1  0.750000  0.525384  0.071045  1
  Co  Co21  1  0.750000  0.974525  0.570028  1
  Si  Si22  1  0.750000  0.581867  0.889005  1
  Si  Si23  1  0.750000  0.917682  0.387856  1
  Si  Si24  1  0.750000  0.727847  0.131958  1
  Si  Si25  1  0.750000  0.772558  0.632077  1
  Si  Si26  1  0.750000  0.396254  0.608058  1
  P  P27  1  0.250000  0.417939  0.114172  1
  P  P28  1  0.250000  0.081833  0.612472  1
  P  P29  1  0.250000  0.269826  0.866084  1
  P  P30  1  0.250000  0.229697  0.366515  1
  P  P31  1  0.250000  0.596875  0.391613  1
  P  P32  1  0.250000  0.903589  0.891411  1
  P  P33  1  0.750000  0.103741  0.108104  1
  Ru  Ru34  1  0.250000  0.710208  0.988829  1
  Ru  Ru35  1  0.250000  0.790914  0.488600  1
