# generated using pymatgen
data_Cs4Ge2PdO7
_symmetry_space_group_name_H-M   'P 1'
_cell_length_a   6.70789095
_cell_length_b   7.76433230
_cell_length_c   7.76294065
_cell_angle_alpha   114.87067669
_cell_angle_beta   108.63692317
_cell_angle_gamma   98.63774059
_symmetry_Int_Tables_number   1
_chemical_formula_structural   Cs4Ge2PdO7
_chemical_formula_sum   'Cs4 Ge2 Pd1 O7'
_cell_volume   327.98327000
_cell_formula_units_Z   1
loop_
 _symmetry_equiv_pos_site_id
 _symmetry_equiv_pos_as_xyz
  1  'x, y, z'
loop_
 _atom_site_type_symbol
 _atom_site_label
 _atom_site_symmetry_multiplicity
 _atom_site_fract_x
 _atom_site_fract_y
 _atom_site_fract_z
 _atom_site_occupancy
  Cs  Cs0  1  0.329778  0.724097  0.098811  1
  Cs  Cs1  1  0.945191  0.227869  0.457144  1
  Cs  Cs2  1  0.054809  0.772131  0.542856  1
  Cs  Cs3  1  0.670224  0.275902  0.901190  1
  Ge  Ge4  1  0.217263  0.224133  0.079072  1
  Ge  Ge5  1  0.782735  0.775865  0.920926  1
  Pd  Pd6  1  0.500001  0.500001  0.500001  1
  O  O7  1  0.000000  0.000000  0.000000  1
  O  O8  1  0.800624  0.765933  0.144427  1
  O  O9  1  0.482496  0.238816  0.250858  1
  O  O10  1  0.186598  0.437010  0.275686  1
  O  O11  1  0.813400  0.562990  0.724312  1
  O  O12  1  0.517504  0.761185  0.749142  1
  O  O13  1  0.199376  0.234067  0.855573  1
