# generated using pymatgen
data_La3Nd2Sn2BiCl
_symmetry_space_group_name_H-M   'P 1'
_cell_length_a   9.67803900
_cell_length_b   9.65206859
_cell_length_c   6.77791200
_cell_angle_alpha   90.00000000
_cell_angle_beta   90.00000000
_cell_angle_gamma   120.08903591
_symmetry_Int_Tables_number   1
_chemical_formula_structural   La3Nd2Sn2BiCl
_chemical_formula_sum   'La6 Nd4 Sn4 Bi2 Cl2'
_cell_volume   547.82769400
_cell_formula_units_Z   2
loop_
 _symmetry_equiv_pos_site_id
 _symmetry_equiv_pos_as_xyz
  1  'x, y, z'
loop_
 _atom_site_type_symbol
 _atom_site_label
 _atom_site_symmetry_multiplicity
 _atom_site_fract_x
 _atom_site_fract_y
 _atom_site_fract_z
 _atom_site_occupancy
  La  La0  1  0.738232  0.004654  0.750000  1
  La  La1  1  0.734626  0.738838  0.250000  1
  La  La2  1  0.000383  0.259831  0.250000  1
  La  La3  1  0.004212  0.738838  0.750000  1
  La  La4  1  0.259448  0.259831  0.750000  1
  La  La5  1  0.266422  0.004654  0.250000  1
  Nd  Nd6  1  0.664546  0.329091  0.000000  1
  Nd  Nd7  1  0.333977  0.667955  0.500000  1
  Nd  Nd8  1  0.664546  0.329091  0.500000  1
  Nd  Nd9  1  0.333977  0.667955  0.000000  1
  Sn  Sn10  1  0.611709  0.000281  0.250000  1
  Sn  Sn11  1  0.388572  0.000281  0.750000  1
  Sn  Sn12  1  0.000631  0.388766  0.750000  1
  Sn  Sn13  1  0.388136  0.388766  0.250000  1
  Bi  Bi14  1  0.613509  0.613277  0.750000  1
  Bi  Bi15  1  0.999768  0.613277  0.250000  1
  Cl  Cl16  1  0.998653  0.997307  0.500000  1
  Cl  Cl17  1  0.998653  0.997307  0.000000  1
