# generated using pymatgen
data_Ac4Ge7
_symmetry_space_group_name_H-M   'P 1'
_cell_length_a   8.00827298
_cell_length_b   8.00827210
_cell_length_c   12.78847500
_cell_angle_alpha   90.00000000
_cell_angle_beta   90.00000000
_cell_angle_gamma   132.86426685
_symmetry_Int_Tables_number   1
_chemical_formula_structural   Ac4Ge7
_chemical_formula_sum   'Ac8 Ge14'
_cell_volume   601.14750044
_cell_formula_units_Z   2
loop_
 _symmetry_equiv_pos_site_id
 _symmetry_equiv_pos_as_xyz
  1  'x, y, z'
loop_
 _atom_site_type_symbol
 _atom_site_label
 _atom_site_symmetry_multiplicity
 _atom_site_fract_x
 _atom_site_fract_y
 _atom_site_fract_z
 _atom_site_occupancy
  Ac  Ac0  1  0.989868  0.483316  0.380265  1
  Ac  Ac1  1  0.010132  0.516684  0.880265  1
  Ac  Ac2  1  0.516684  0.010132  0.119735  1
  Ac  Ac3  1  0.483316  0.989868  0.619735  1
  Ac  Ac4  1  0.497776  0.502224  0.250000  1
  Ac  Ac5  1  0.502224  0.497776  0.750000  1
  Ac  Ac6  1  0.008015  0.008015  0.000000  1
  Ac  Ac7  1  0.991985  0.991985  0.500000  1
  Ge  Ge8  1  0.924349  0.075651  0.250000  1
  Ge  Ge9  1  0.075651  0.924349  0.750000  1
  Ge  Ge10  1  0.074197  0.416821  0.127402  1
  Ge  Ge11  1  0.925803  0.583179  0.627402  1
  Ge  Ge12  1  0.583179  0.925803  0.372598  1
  Ge  Ge13  1  0.416821  0.074197  0.872598  1
  Ge  Ge14  1  0.963031  0.649913  0.151902  1
  Ge  Ge15  1  0.036969  0.350087  0.651902  1
  Ge  Ge16  1  0.350087  0.036969  0.348098  1
  Ge  Ge17  1  0.649913  0.963031  0.848098  1
  Ge  Ge18  1  0.598194  0.427832  0.009196  1
  Ge  Ge19  1  0.401806  0.572168  0.509196  1
  Ge  Ge20  1  0.572168  0.401806  0.490804  1
  Ge  Ge21  1  0.427832  0.598194  0.990804  1
