# generated using pymatgen
data_Ti3Be2Nb7Ge6
_symmetry_space_group_name_H-M   'P 1'
_cell_length_a   7.79442800
_cell_length_b   7.79442830
_cell_length_c   5.31193500
_cell_angle_alpha   90.00000000
_cell_angle_beta   90.00000000
_cell_angle_gamma   119.99999874
_symmetry_Int_Tables_number   1
_chemical_formula_structural   Ti3Be2Nb7Ge6
_chemical_formula_sum   'Ti3 Be2 Nb7 Ge6'
_cell_volume   279.48075337
_cell_formula_units_Z   1
loop_
 _symmetry_equiv_pos_site_id
 _symmetry_equiv_pos_as_xyz
  1  'x, y, z'
loop_
 _atom_site_type_symbol
 _atom_site_label
 _atom_site_symmetry_multiplicity
 _atom_site_fract_x
 _atom_site_fract_y
 _atom_site_fract_z
 _atom_site_occupancy
  Ti  Ti0  1  0.666667  0.333333  0.500000  1
  Ti  Ti1  1  0.333333  0.666667  0.500000  1
  Ti  Ti2  1  0.333333  0.666667  0.000000  1
  Be  Be3  1  0.000000  0.000000  0.500000  1
  Be  Be4  1  0.000000  0.000000  0.000000  1
  Nb  Nb5  1  0.666667  0.333333  0.000000  1
  Nb  Nb6  1  0.742149  0.741530  0.248436  1
  Nb  Nb7  1  0.258470  0.000619  0.248436  1
  Nb  Nb8  1  0.999381  0.257851  0.248436  1
  Nb  Nb9  1  0.258470  0.257851  0.751564  1
  Nb  Nb10  1  0.742149  0.000619  0.751564  1
  Nb  Nb11  1  0.999381  0.741530  0.751564  1
  Ge  Ge12  1  0.392266  0.395242  0.252941  1
  Ge  Ge13  1  0.604758  0.997025  0.252941  1
  Ge  Ge14  1  0.002975  0.607734  0.252941  1
  Ge  Ge15  1  0.604758  0.607734  0.747059  1
  Ge  Ge16  1  0.392266  0.997025  0.747059  1
  Ge  Ge17  1  0.002975  0.395242  0.747059  1
