# generated using pymatgen
data_NdYCo5(NiAs)7
_symmetry_space_group_name_H-M   'P 1'
_cell_length_a   3.80456400
_cell_length_b   9.43385617
_cell_length_c   9.41206480
_cell_angle_alpha   120.09238052
_cell_angle_beta   90.00000000
_cell_angle_gamma   90.00000000
_symmetry_Int_Tables_number   1
_chemical_formula_structural   NdYCo5(NiAs)7
_chemical_formula_sum   'Nd1 Y1 Co5 Ni7 As7'
_cell_volume   292.28373787
_cell_formula_units_Z   1
loop_
 _symmetry_equiv_pos_site_id
 _symmetry_equiv_pos_as_xyz
  1  'x, y, z'
loop_
 _atom_site_type_symbol
 _atom_site_label
 _atom_site_symmetry_multiplicity
 _atom_site_fract_x
 _atom_site_fract_y
 _atom_site_fract_z
 _atom_site_occupancy
  Nd  Nd0  1  0.500000  0.335412  0.667002  1
  Y  Y1  1  0.000000  0.665234  0.333529  1
  Co  Co2  1  0.000000  0.873839  0.152387  1
  Co  Co3  1  0.000000  0.276379  0.124427  1
  Co  Co4  1  0.000000  0.849321  0.723446  1
  Co  Co5  1  0.500000  0.427119  0.049864  1
  Co  Co6  1  0.500000  0.622952  0.571837  1
  Ni  Ni7  1  0.000000  0.562593  0.943036  1
  Ni  Ni8  1  0.000000  0.382357  0.436317  1
  Ni  Ni9  1  0.000000  0.055987  0.617979  1
  Ni  Ni10  1  0.500000  0.790695  0.907633  1
  Ni  Ni11  1  0.500000  0.119037  0.211371  1
  Ni  Ni12  1  0.500000  0.091734  0.884544  1
  Ni  Ni13  1  0.500000  0.948255  0.378213  1
  As  As14  1  0.000000  0.999564  0.001281  1
  As  As15  1  0.500000  0.703599  0.109108  1
  As  As16  1  0.500000  0.404982  0.292658  1
  As  As17  1  0.500000  0.887153  0.597481  1
  As  As18  1  0.000000  0.600099  0.709773  1
  As  As19  1  0.000000  0.113858  0.399347  1
  As  As20  1  0.000000  0.289833  0.888765  1
