# generated using pymatgen
data_Pr2NdTh(Zn5Ge)2
_symmetry_space_group_name_H-M   'P 1'
_cell_length_a   8.41032532
_cell_length_b   8.41032558
_cell_length_c   8.92108900
_cell_angle_alpha   90.00000000
_cell_angle_beta   90.00000000
_cell_angle_gamma   149.28196033
_symmetry_Int_Tables_number   1
_chemical_formula_structural   Pr2NdTh(Zn5Ge)2
_chemical_formula_sum   'Pr2 Nd1 Th1 Zn10 Ge2'
_cell_volume   322.33387037
_cell_formula_units_Z   1
loop_
 _symmetry_equiv_pos_site_id
 _symmetry_equiv_pos_as_xyz
  1  'x, y, z'
loop_
 _atom_site_type_symbol
 _atom_site_label
 _atom_site_symmetry_multiplicity
 _atom_site_fract_x
 _atom_site_fract_y
 _atom_site_fract_z
 _atom_site_occupancy
  Pr  Pr0  1  0.000117  0.999883  0.503189  1
  Pr  Pr1  1  0.000117  0.999883  0.996811  1
  Nd  Nd2  1  0.797059  0.202941  0.750000  1
  Th  Th3  1  0.202961  0.797039  0.250000  1
  Zn  Zn4  1  0.813456  0.186544  0.393803  1
  Zn  Zn5  1  0.185237  0.814763  0.608080  1
  Zn  Zn6  1  0.813456  0.186544  0.106197  1
  Zn  Zn7  1  0.185237  0.814763  0.891920  1
  Zn  Zn8  1  0.653515  0.346485  0.479300  1
  Zn  Zn9  1  0.347563  0.652437  0.521349  1
  Zn  Zn10  1  0.653515  0.346485  0.020700  1
  Zn  Zn11  1  0.347563  0.652437  0.978651  1
  Zn  Zn12  1  0.402179  0.597821  0.250000  1
  Zn  Zn13  1  0.598032  0.401968  0.750000  1
  Ge  Ge14  1  0.557225  0.442775  0.250000  1
  Ge  Ge15  1  0.442766  0.557234  0.750000  1
