# generated using pymatgen
data_Dy9ErGa3NiBi2
_symmetry_space_group_name_H-M   'P 1'
_cell_length_a   8.54698332
_cell_length_b   8.54698381
_cell_length_c   8.73559563
_cell_angle_alpha   124.25713785
_cell_angle_beta   124.25092824
_cell_angle_gamma   81.34013256
_symmetry_Int_Tables_number   1
_chemical_formula_structural   Dy9ErGa3NiBi2
_chemical_formula_sum   'Dy9 Er1 Ga3 Ni1 Bi2'
_cell_volume   422.86521556
_cell_formula_units_Z   1
loop_
 _symmetry_equiv_pos_site_id
 _symmetry_equiv_pos_as_xyz
  1  'x, y, z'
loop_
 _atom_site_type_symbol
 _atom_site_label
 _atom_site_symmetry_multiplicity
 _atom_site_fract_x
 _atom_site_fract_y
 _atom_site_fract_z
 _atom_site_occupancy
  Dy  Dy0  1  0.502811  0.505599  0.008410  1
  Dy  Dy1  1  0.779728  0.296204  0.795105  1
  Dy  Dy2  1  0.203222  0.720576  0.204603  1
  Dy  Dy3  1  0.484026  0.001380  0.204603  1
  Dy  Dy4  1  0.303431  0.459086  0.499399  1
  Dy  Dy5  1  0.040313  0.195968  0.499399  1
  Dy  Dy6  1  0.498902  0.015378  0.795105  1
  Dy  Dy7  1  0.705557  0.516083  0.500253  1
  Dy  Dy8  1  0.984170  0.794696  0.500253  1
  Er  Er9  1  0.995099  0.997288  0.992387  1
  Ga  Ga10  1  0.146851  0.645375  0.792227  1
  Ga  Ga11  1  0.855595  0.352297  0.207892  1
  Ga  Ga12  1  0.635145  0.865885  0.501030  1
  Ni  Ni13  1  0.377068  0.122936  0.500004  1
  Bi  Bi14  1  0.243536  0.255120  0.999665  1
  Bi  Bi15  1  0.744545  0.756129  0.999665  1
