# generated using pymatgen
data_HoEr3Ga4(NiIr)2
_symmetry_space_group_name_H-M   'P 1'
_cell_length_a   4.28013500
_cell_length_b   6.72792102
_cell_length_c   7.60334902
_cell_angle_alpha   89.99110007
_cell_angle_beta   90.00007784
_cell_angle_gamma   90.00005232
_symmetry_Int_Tables_number   1
_chemical_formula_structural   HoEr3Ga4(NiIr)2
_chemical_formula_sum   'Ho1 Er3 Ga4 Ni2 Ir2'
_cell_volume   218.94915499
_cell_formula_units_Z   1
loop_
 _symmetry_equiv_pos_site_id
 _symmetry_equiv_pos_as_xyz
  1  'x, y, z'
loop_
 _atom_site_type_symbol
 _atom_site_label
 _atom_site_symmetry_multiplicity
 _atom_site_fract_x
 _atom_site_fract_y
 _atom_site_fract_z
 _atom_site_occupancy
  Ho  Ho0  1  0.750002  0.023656  0.686679  1
  Er  Er1  1  0.249999  0.978218  0.312437  1
  Er  Er2  1  0.250002  0.478199  0.187191  1
  Er  Er3  1  0.750007  0.523740  0.813427  1
  Ga  Ga4  1  0.250008  0.345916  0.576292  1
  Ga  Ga5  1  0.249996  0.845133  0.923987  1
  Ga  Ga6  1  0.749992  0.660262  0.441497  1
  Ga  Ga7  1  0.750000  0.160767  0.058709  1
  Ni  Ni8  1  0.249980  0.222636  0.886499  1
  Ni  Ni9  1  0.250000  0.721426  0.613802  1
  Ir  Ir10  1  0.750005  0.769769  0.111929  1
  Ir  Ir11  1  0.750009  0.270278  0.387550  1
