# generated using pymatgen
data_Sc2PaFe2
_symmetry_space_group_name_H-M   'P 1'
_cell_length_a   3.95719513
_cell_length_b   5.26395081
_cell_length_c   5.45117084
_cell_angle_alpha   118.87023653
_cell_angle_beta   111.28255538
_cell_angle_gamma   90.00000667
_symmetry_Int_Tables_number   1
_chemical_formula_structural   Sc2PaFe2
_chemical_formula_sum   'Sc2 Pa1 Fe2'
_cell_volume   90.49427549
_cell_formula_units_Z   1
loop_
 _symmetry_equiv_pos_site_id
 _symmetry_equiv_pos_as_xyz
  1  'x, y, z'
loop_
 _atom_site_type_symbol
 _atom_site_label
 _atom_site_symmetry_multiplicity
 _atom_site_fract_x
 _atom_site_fract_y
 _atom_site_fract_z
 _atom_site_occupancy
  Sc  Sc0  1  0.800992  0.300992  0.601985  1
  Sc  Sc1  1  0.199008  0.699008  0.398015  1
  Pa  Pa2  1  0.000000  0.000000  0.000000  1
  Fe  Fe3  1  0.500000  0.268369  0.000000  1
  Fe  Fe4  1  0.500000  0.731631  0.000000  1
