# generated using pymatgen
data_Li4P3Pd4
_symmetry_space_group_name_H-M   'P 1'
_cell_length_a   10.12475976
_cell_length_b   10.12476049
_cell_length_c   7.19909419
_cell_angle_alpha   72.35409694
_cell_angle_beta   72.35410141
_cell_angle_gamma   29.08253586
_symmetry_Int_Tables_number   1
_chemical_formula_structural   Li4P3Pd4
_chemical_formula_sum   'Li8 P6 Pd8'
_cell_volume   340.66784663
_cell_formula_units_Z   2
loop_
 _symmetry_equiv_pos_site_id
 _symmetry_equiv_pos_as_xyz
  1  'x, y, z'
loop_
 _atom_site_type_symbol
 _atom_site_label
 _atom_site_symmetry_multiplicity
 _atom_site_fract_x
 _atom_site_fract_y
 _atom_site_fract_z
 _atom_site_occupancy
  Li  Li0  1  0.949416  0.189730  0.318716  1
  Li  Li1  1  0.050584  0.810270  0.681284  1
  Li  Li2  1  0.810270  0.050584  0.181284  1
  Li  Li3  1  0.475433  0.189794  0.899549  1
  Li  Li4  1  0.810206  0.524567  0.600451  1
  Li  Li5  1  0.189794  0.475433  0.399549  1
  Li  Li6  1  0.189730  0.949416  0.818716  1
  Li  Li7  1  0.524567  0.810206  0.100451  1
  P  P8  1  0.293594  0.035326  0.449739  1
  P  P9  1  0.348875  0.651125  0.250000  1
  P  P10  1  0.035326  0.293594  0.949739  1
  P  P11  1  0.706406  0.964674  0.550261  1
  P  P12  1  0.964674  0.706406  0.050261  1
  P  P13  1  0.651125  0.348875  0.750000  1
  Pd  Pd14  1  0.566524  0.309489  0.514963  1
  Pd  Pd15  1  0.690511  0.433476  0.985037  1
  Pd  Pd16  1  0.309489  0.566524  0.014963  1
  Pd  Pd17  1  0.433476  0.690511  0.485037  1
  Pd  Pd18  1  0.637651  0.913078  0.313910  1
  Pd  Pd19  1  0.913078  0.637651  0.813910  1
  Pd  Pd20  1  0.362349  0.086922  0.686090  1
  Pd  Pd21  1  0.086922  0.362349  0.186090  1
