# generated using pymatgen
data_Co5Si7(BW6)2
_symmetry_space_group_name_H-M   'P 1'
_cell_length_a   7.77298124
_cell_length_b   7.77298016
_cell_length_c   7.77298014
_cell_angle_alpha   60.27789844
_cell_angle_beta   60.27789949
_cell_angle_gamma   60.27790624
_symmetry_Int_Tables_number   1
_chemical_formula_structural   Co5Si7(BW6)2
_chemical_formula_sum   'Co5 Si7 B2 W12'
_cell_volume   334.17250726
_cell_formula_units_Z   1
loop_
 _symmetry_equiv_pos_site_id
 _symmetry_equiv_pos_as_xyz
  1  'x, y, z'
loop_
 _atom_site_type_symbol
 _atom_site_label
 _atom_site_symmetry_multiplicity
 _atom_site_fract_x
 _atom_site_fract_y
 _atom_site_fract_z
 _atom_site_occupancy
  Co  Co0  1  0.829360  0.829360  0.829360  1
  Co  Co1  1  0.617060  0.617060  0.143637  1
  Co  Co2  1  0.617060  0.143637  0.617060  1
  Co  Co3  1  0.143637  0.617060  0.617060  1
  Co  Co4  1  0.627881  0.627881  0.627881  1
  Si  Si5  1  0.415388  0.415388  0.756075  1
  Si  Si6  1  0.415388  0.756075  0.415388  1
  Si  Si7  1  0.756075  0.415388  0.415388  1
  Si  Si8  1  0.414001  0.414001  0.414001  1
  Si  Si9  1  0.836404  0.836404  0.504257  1
  Si  Si10  1  0.836404  0.504257  0.836404  1
  Si  Si11  1  0.504257  0.836404  0.836404  1
  B  B12  1  0.249040  0.249040  0.249040  1
  B  B13  1  0.998759  0.998759  0.998759  1
  W  W14  1  0.048692  0.048692  0.453414  1
  W  W15  1  0.447137  0.052251  0.447137  1
  W  W16  1  0.052251  0.447137  0.447137  1
  W  W17  1  0.447137  0.447137  0.052251  1
  W  W18  1  0.048692  0.453414  0.048692  1
  W  W19  1  0.453414  0.048692  0.048692  1
  W  W20  1  0.194810  0.194810  0.804016  1
  W  W21  1  0.802872  0.192584  0.802872  1
  W  W22  1  0.192584  0.802872  0.802872  1
  W  W23  1  0.802872  0.802872  0.192584  1
  W  W24  1  0.194810  0.804016  0.194810  1
  W  W25  1  0.804016  0.194810  0.194810  1
