# generated using pymatgen
data_CsTb6Tm4(C2Br9)2
_symmetry_space_group_name_H-M   'P 1'
_cell_length_a   10.67109735
_cell_length_b   10.75439226
_cell_length_c   10.87139080
_cell_angle_alpha   113.35159221
_cell_angle_beta   87.48850355
_cell_angle_gamma   118.86908929
_symmetry_Int_Tables_number   1
_chemical_formula_structural   CsTb6Tm4(C2Br9)2
_chemical_formula_sum   'Cs1 Tb6 Tm4 C4 Br18'
_cell_volume   986.03710102
_cell_formula_units_Z   1
loop_
 _symmetry_equiv_pos_site_id
 _symmetry_equiv_pos_as_xyz
  1  'x, y, z'
loop_
 _atom_site_type_symbol
 _atom_site_label
 _atom_site_symmetry_multiplicity
 _atom_site_fract_x
 _atom_site_fract_y
 _atom_site_fract_z
 _atom_site_occupancy
  Cs  Cs0  1  0.499896  0.999545  0.499798  1
  Tb  Tb1  1  0.907452  0.592152  0.698314  1
  Tb  Tb2  1  0.112282  0.942361  0.001244  1
  Tb  Tb3  1  0.040357  0.963768  0.665497  1
  Tb  Tb4  1  0.338107  0.283234  0.298294  1
  Tb  Tb5  1  0.716410  0.634593  0.988360  1
  Tb  Tb6  1  0.887878  0.058839  0.999412  1
  Tm  Tm7  1  0.664600  0.717951  0.704093  1
  Tm  Tm8  1  0.280407  0.362527  0.013253  1
  Tm  Tm9  1  0.093958  0.404434  0.299287  1
  Tm  Tm10  1  0.960850  0.037397  0.331188  1
  C  C11  1  0.156971  0.229645  0.124522  1
  C  C12  1  0.841086  0.771022  0.875126  1
  C  C13  1  0.920144  0.850358  0.794459  1
  C  C14  1  0.077753  0.150160  0.205285  1
  Br  Br15  1  0.449562  0.530269  0.832306  1
  Br  Br16  1  0.385397  0.038591  0.160013  1
  Br  Br17  1  0.776050  0.856750  0.500419  1
  Br  Br18  1  0.840793  0.314814  0.157666  1
  Br  Br19  1  0.546240  0.468603  0.165154  1
  Br  Br20  1  0.219511  0.142215  0.496978  1
  Br  Br21  1  0.316688  0.103057  0.831482  1
  Br  Br22  1  0.687006  0.903109  0.174260  1
  Br  Br23  1  0.975324  0.763711  0.176061  1
  Br  Br24  1  0.934156  0.299756  0.497970  1
  Br  Br25  1  0.028750  0.243049  0.829639  1
  Br  Br26  1  0.068666  0.696550  0.496743  1
  Br  Br27  1  0.259306  0.618874  0.185739  1
  Br  Br28  1  0.739109  0.374437  0.812933  1
  Br  Br29  1  0.637830  0.436755  0.501275  1
  Br  Br30  1  0.163647  0.687858  0.845745  1
  Br  Br31  1  0.614994  0.956405  0.837226  1
  Br  Br32  1  0.358823  0.567212  0.500261  1
