# generated using pymatgen
data_LiDy16Ag3Rh4
_symmetry_space_group_name_H-M   'P 1'
_cell_length_a   9.56992376
_cell_length_b   9.56754955
_cell_length_c   9.56755000
_cell_angle_alpha   59.99999845
_cell_angle_beta   60.00820487
_cell_angle_gamma   60.00820890
_symmetry_Int_Tables_number   1
_chemical_formula_structural   LiDy16Ag3Rh4
_chemical_formula_sum   'Li1 Dy16 Ag3 Rh4'
_cell_volume   619.51067946
_cell_formula_units_Z   1
loop_
 _symmetry_equiv_pos_site_id
 _symmetry_equiv_pos_as_xyz
  1  'x, y, z'
loop_
 _atom_site_type_symbol
 _atom_site_label
 _atom_site_symmetry_multiplicity
 _atom_site_fract_x
 _atom_site_fract_y
 _atom_site_fract_z
 _atom_site_occupancy
  Li  Li0  1  0.710259  0.429914  0.429914  1
  Dy  Dy1  1  0.066754  0.435889  0.435889  1
  Dy  Dy2  1  0.647117  0.054847  0.649018  1
  Dy  Dy3  1  0.814323  0.814307  0.185685  1
  Dy  Dy4  1  0.436462  0.064520  0.064520  1
  Dy  Dy5  1  0.436462  0.434500  0.064520  1
  Dy  Dy6  1  0.189234  0.186972  0.811897  1
  Dy  Dy7  1  0.814323  0.185685  0.185685  1
  Dy  Dy8  1  0.066754  0.435889  0.061469  1
  Dy  Dy9  1  0.436462  0.064520  0.434500  1
  Dy  Dy10  1  0.065717  0.644761  0.644761  1
  Dy  Dy11  1  0.189234  0.811897  0.811897  1
  Dy  Dy12  1  0.647117  0.649018  0.054847  1
  Dy  Dy13  1  0.189234  0.811897  0.186972  1
  Dy  Dy14  1  0.066754  0.061469  0.435889  1
  Dy  Dy15  1  0.814323  0.185685  0.814307  1
  Dy  Dy16  1  0.647117  0.649018  0.649018  1
  Ag  Ag17  1  0.417792  0.416171  0.749866  1
  Ag  Ag18  1  0.417792  0.416171  0.416171  1
  Ag  Ag19  1  0.417792  0.749866  0.416171  1
  Rh  Rh20  1  0.859137  0.430912  0.854976  1
  Rh  Rh21  1  0.431570  0.856144  0.856144  1
  Rh  Rh22  1  0.859137  0.854976  0.430912  1
  Rh  Rh23  1  0.859137  0.854976  0.854976  1
