# generated using pymatgen
data_Tb5Pb3N
_symmetry_space_group_name_H-M   'P 1'
_cell_length_a   9.22106874
_cell_length_b   9.22105460
_cell_length_c   9.22106162
_cell_angle_alpha   126.01028653
_cell_angle_beta   126.01049872
_cell_angle_gamma   79.87094073
_symmetry_Int_Tables_number   1
_chemical_formula_structural   Tb5Pb3N
_chemical_formula_sum   'Tb10 Pb6 N2'
_cell_volume   495.45657914
_cell_formula_units_Z   2
loop_
 _symmetry_equiv_pos_site_id
 _symmetry_equiv_pos_as_xyz
  1  'x, y, z'
loop_
 _atom_site_type_symbol
 _atom_site_label
 _atom_site_symmetry_multiplicity
 _atom_site_fract_x
 _atom_site_fract_y
 _atom_site_fract_z
 _atom_site_occupancy
  Tb  Tb0  1  0.505716  0.298937  0.500001  1
  Tb  Tb1  1  0.798935  0.005716  0.499999  1
  Tb  Tb2  1  0.005715  0.505714  0.206778  1
  Tb  Tb3  1  0.298935  0.798935  0.793220  1
  Tb  Tb4  1  0.496194  0.702869  0.500000  1
  Tb  Tb5  1  0.202869  0.996193  0.500000  1
  Tb  Tb6  1  0.996195  0.496196  0.793327  1
  Tb  Tb7  1  0.702868  0.202870  0.206674  1
  Tb  Tb8  1  0.503673  0.503674  0.000000  1
  Tb  Tb9  1  0.003674  0.003673  0.999999  1
  Pb  Pb10  1  0.150750  0.350653  0.499999  1
  Pb  Pb11  1  0.850653  0.650750  0.499999  1
  Pb  Pb12  1  0.650753  0.150752  0.800099  1
  Pb  Pb13  1  0.350653  0.850653  0.199902  1
  Pb  Pb14  1  0.751789  0.751787  0.000001  1
  Pb  Pb15  1  0.251787  0.251788  0.000000  1
  N  N16  1  0.750840  0.250839  0.499999  1
  N  N17  1  0.250841  0.750842  0.500003  1
