# generated using pymatgen
data_Ce5(In2Rh)2
_symmetry_space_group_name_H-M   'P 1'
_cell_length_a   3.73414500
_cell_length_b   8.13565800
_cell_length_c   18.29822000
_cell_angle_alpha   90.00000000
_cell_angle_beta   90.00000000
_cell_angle_gamma   90.00000000
_symmetry_Int_Tables_number   1
_chemical_formula_structural   Ce5(In2Rh)2
_chemical_formula_sum   'Ce10 In8 Rh4'
_cell_volume   555.89492164
_cell_formula_units_Z   2
loop_
 _symmetry_equiv_pos_site_id
 _symmetry_equiv_pos_as_xyz
  1  'x, y, z'
loop_
 _atom_site_type_symbol
 _atom_site_label
 _atom_site_symmetry_multiplicity
 _atom_site_fract_x
 _atom_site_fract_y
 _atom_site_fract_z
 _atom_site_occupancy
  Ce  Ce0  1  0.000000  0.500000  0.500000  1
  Ce  Ce1  1  0.000000  0.000000  0.000000  1
  Ce  Ce2  1  0.000000  0.750108  0.277056  1
  Ce  Ce3  1  0.000000  0.249892  0.722944  1
  Ce  Ce4  1  0.000000  0.749892  0.777056  1
  Ce  Ce5  1  0.000000  0.250108  0.222944  1
  Ce  Ce6  1  0.000000  0.630544  0.082903  1
  Ce  Ce7  1  0.000000  0.369456  0.917097  1
  Ce  Ce8  1  0.000000  0.869456  0.582903  1
  Ce  Ce9  1  0.000000  0.130544  0.417097  1
  In  In10  1  0.500000  0.704520  0.929533  1
  In  In11  1  0.500000  0.295480  0.070467  1
  In  In12  1  0.500000  0.795480  0.429533  1
  In  In13  1  0.500000  0.204520  0.570467  1
  In  In14  1  0.500000  0.561406  0.650813  1
  In  In15  1  0.500000  0.438594  0.349187  1
  In  In16  1  0.500000  0.938594  0.150813  1
  In  In17  1  0.500000  0.061406  0.849187  1
  Rh  Rh18  1  0.500000  0.519702  0.194233  1
  Rh  Rh19  1  0.500000  0.480298  0.805767  1
  Rh  Rh20  1  0.500000  0.980298  0.694233  1
  Rh  Rh21  1  0.500000  0.019702  0.305767  1
