# generated using pymatgen
data_Yb5P3H
_symmetry_space_group_name_H-M   'P 1'
_cell_length_a   6.43187900
_cell_length_b   8.21091254
_cell_length_c   8.21091200
_cell_angle_alpha   119.99999784
_cell_angle_beta   90.00000000
_cell_angle_gamma   90.00000000
_symmetry_Int_Tables_number   1
_chemical_formula_structural   Yb5P3H
_chemical_formula_sum   'Yb10 P6 H2'
_cell_volume   375.53578757
_cell_formula_units_Z   2
loop_
 _symmetry_equiv_pos_site_id
 _symmetry_equiv_pos_as_xyz
  1  'x, y, z'
loop_
 _atom_site_type_symbol
 _atom_site_label
 _atom_site_symmetry_multiplicity
 _atom_site_fract_x
 _atom_site_fract_y
 _atom_site_fract_z
 _atom_site_occupancy
  Yb  Yb0  1  0.500000  0.333333  0.666667  1
  Yb  Yb1  1  0.500000  0.666666  0.333333  1
  Yb  Yb2  1  0.000000  0.666667  0.333333  1
  Yb  Yb3  1  0.000000  0.333334  0.666667  1
  Yb  Yb4  1  0.750000  0.248947  0.000000  1
  Yb  Yb5  1  0.750000  0.751053  0.751053  1
  Yb  Yb6  1  0.750000  0.000000  0.248947  1
  Yb  Yb7  1  0.250000  0.751053  0.000000  1
  Yb  Yb8  1  0.250000  0.248947  0.248947  1
  Yb  Yb9  1  0.250000  0.000000  0.751053  1
  P  P10  1  0.750000  0.608326  0.000000  1
  P  P11  1  0.750000  0.391674  0.391674  1
  P  P12  1  0.750000  0.000000  0.608326  1
  P  P13  1  0.250000  0.391674  0.000000  1
  P  P14  1  0.250000  0.608326  0.608326  1
  P  P15  1  0.250000  0.000000  0.391674  1
  H  H16  1  0.500000  0.000000  0.000000  1
  H  H17  1  0.000000  0.000000  0.000000  1
