# generated using pymatgen
data_DyHo2Cd3Si2Au
_symmetry_space_group_name_H-M   'P 1'
_cell_length_a   7.23506500
_cell_length_b   7.23555918
_cell_length_c   4.33147900
_cell_angle_alpha   90.00000000
_cell_angle_beta   90.00000000
_cell_angle_gamma   119.99773615
_symmetry_Int_Tables_number   1
_chemical_formula_structural   DyHo2Cd3Si2Au
_chemical_formula_sum   'Dy1 Ho2 Cd3 Si2 Au1'
_cell_volume   196.37730188
_cell_formula_units_Z   1
loop_
 _symmetry_equiv_pos_site_id
 _symmetry_equiv_pos_as_xyz
  1  'x, y, z'
loop_
 _atom_site_type_symbol
 _atom_site_label
 _atom_site_symmetry_multiplicity
 _atom_site_fract_x
 _atom_site_fract_y
 _atom_site_fract_z
 _atom_site_occupancy
  Dy  Dy0  1  0.583210  0.000000  0.000000  1
  Ho  Ho1  1  0.999967  0.583267  0.000000  1
  Ho  Ho2  1  0.416699  0.416733  0.000000  1
  Cd  Cd3  1  0.255343  0.000000  0.500000  1
  Cd  Cd4  1  0.000053  0.255461  0.500000  1
  Cd  Cd5  1  0.744592  0.744539  0.500000  1
  Si  Si6  1  0.333237  0.666511  0.500000  1
  Si  Si7  1  0.666727  0.333489  0.500000  1
  Au  Au8  1  0.000172  0.000000  0.000000  1
