# generated using pymatgen
data_TbPaSnRh2
_symmetry_space_group_name_H-M   'P 1'
_cell_length_a   7.68458517
_cell_length_b   7.68444440
_cell_length_c   3.64939900
_cell_angle_alpha   90.00000000
_cell_angle_beta   90.00000000
_cell_angle_gamma   95.32841011
_symmetry_Int_Tables_number   1
_chemical_formula_structural   TbPaSnRh2
_chemical_formula_sum   'Tb2 Pa2 Sn2 Rh4'
_cell_volume   214.57222210
_cell_formula_units_Z   2
loop_
 _symmetry_equiv_pos_site_id
 _symmetry_equiv_pos_as_xyz
  1  'x, y, z'
loop_
 _atom_site_type_symbol
 _atom_site_label
 _atom_site_symmetry_multiplicity
 _atom_site_fract_x
 _atom_site_fract_y
 _atom_site_fract_z
 _atom_site_occupancy
  Tb  Tb0  1  0.176111  0.323881  0.500000  1
  Tb  Tb1  1  0.823877  0.676113  0.500000  1
  Pa  Pa2  1  0.673491  0.173475  0.500000  1
  Pa  Pa3  1  0.326552  0.826557  0.500000  1
  Sn  Sn4  1  0.499951  0.500013  0.000000  1
  Sn  Sn5  1  0.000022  0.999964  0.000000  1
  Rh  Rh6  1  0.857478  0.357486  0.000000  1
  Rh  Rh7  1  0.142566  0.642561  0.000000  1
  Rh  Rh8  1  0.378152  0.121786  0.000000  1
  Rh  Rh9  1  0.621800  0.878166  0.000000  1
