# generated using pymatgen
data_Eu4Si10TcPt5
_symmetry_space_group_name_H-M   'P 1'
_cell_length_a   8.37882246
_cell_length_b   8.37882220
_cell_length_c   8.37882328
_cell_angle_alpha   137.94245844
_cell_angle_beta   105.18609281
_cell_angle_gamma   89.74632887
_symmetry_Int_Tables_number   1
_chemical_formula_structural   Eu4Si10TcPt5
_chemical_formula_sum   'Eu4 Si10 Tc1 Pt5'
_cell_volume   363.47667913
_cell_formula_units_Z   1
loop_
 _symmetry_equiv_pos_site_id
 _symmetry_equiv_pos_as_xyz
  1  'x, y, z'
loop_
 _atom_site_type_symbol
 _atom_site_label
 _atom_site_symmetry_multiplicity
 _atom_site_fract_x
 _atom_site_fract_y
 _atom_site_fract_z
 _atom_site_occupancy
  Eu  Eu0  1  0.103590  0.869319  0.231672  1
  Eu  Eu1  1  0.896410  0.128083  0.765729  1
  Eu  Eu2  1  0.637646  0.371917  0.268328  1
  Eu  Eu3  1  0.362354  0.630681  0.734271  1
  Si  Si4  1  0.000000  0.750000  0.750000  1
  Si  Si5  1  0.000000  0.250000  0.250000  1
  Si  Si6  1  0.270242  0.020242  0.750000  1
  Si  Si7  1  0.729758  0.479758  0.750000  1
  Si  Si8  1  0.726242  0.976242  0.250000  1
  Si  Si9  1  0.273758  0.523758  0.250000  1
  Si  Si10  1  0.756530  0.615071  0.155595  1
  Si  Si11  1  0.243470  0.399065  0.858541  1
  Si  Si12  1  0.459476  0.100935  0.344405  1
  Si  Si13  1  0.540524  0.884929  0.641459  1
  Tc  Tc14  1  0.500000  0.750000  0.250000  1
  Pt  Pt15  1  0.500000  0.250000  0.750000  1
  Pt  Pt16  1  0.024804  0.634602  0.385284  1
  Pt  Pt17  1  0.975196  0.360480  0.609797  1
  Pt  Pt18  1  0.249317  0.139520  0.114716  1
  Pt  Pt19  1  0.750683  0.865398  0.890203  1
