# generated using pymatgen
data_Be6Co7Ge
_symmetry_space_group_name_H-M   'P 1'
_cell_length_a   3.73414479
_cell_length_b   6.47248910
_cell_length_c   7.92198800
_cell_angle_alpha   132.89191561
_cell_angle_beta   89.97451688
_cell_angle_gamma   106.82106135
_symmetry_Int_Tables_number   1
_chemical_formula_structural   Be6Co7Ge
_chemical_formula_sum   'Be6 Co7 Ge1'
_cell_volume   128.89549394
_cell_formula_units_Z   1
loop_
 _symmetry_equiv_pos_site_id
 _symmetry_equiv_pos_as_xyz
  1  'x, y, z'
loop_
 _atom_site_type_symbol
 _atom_site_label
 _atom_site_symmetry_multiplicity
 _atom_site_fract_x
 _atom_site_fract_y
 _atom_site_fract_z
 _atom_site_occupancy
  Be  Be0  1  0.112517  0.243215  0.650332  1
  Be  Be1  1  0.675397  0.377555  0.500550  1
  Be  Be2  1  0.545403  0.105358  0.788770  1
  Be  Be3  1  0.834095  0.682342  0.220447  1
  Be  Be4  1  0.263390  0.544818  0.372138  1
  Be  Be5  1  0.399817  0.825507  0.087214  1
  Co  Co6  1  0.042935  0.110758  0.302644  1
  Co  Co7  1  0.898773  0.814873  0.569355  1
  Co  Co8  1  0.318724  0.660366  0.711349  1
  Co  Co9  1  0.194309  0.404423  0.010637  1
  Co  Co10  1  0.472165  0.961472  0.436401  1
  Co  Co11  1  0.623338  0.267145  0.162552  1
  Co  Co12  1  0.751693  0.524019  0.862107  1
  Ge  Ge13  1  0.971192  0.964443  0.936319  1
