# generated using pymatgen
data_Li4CaTb3Si8
_symmetry_space_group_name_H-M   'P 1'
_cell_length_a   3.79723200
_cell_length_b   7.74046132
_cell_length_c   10.28383943
_cell_angle_alpha   89.62694346
_cell_angle_beta   90.00000000
_cell_angle_gamma   90.00000000
_symmetry_Int_Tables_number   1
_chemical_formula_structural   Li4CaTb3Si8
_chemical_formula_sum   'Li4 Ca1 Tb3 Si8'
_cell_volume   302.25956862
_cell_formula_units_Z   1
loop_
 _symmetry_equiv_pos_site_id
 _symmetry_equiv_pos_as_xyz
  1  'x, y, z'
loop_
 _atom_site_type_symbol
 _atom_site_label
 _atom_site_symmetry_multiplicity
 _atom_site_fract_x
 _atom_site_fract_y
 _atom_site_fract_z
 _atom_site_occupancy
  Li  Li0  1  0.250000  0.997088  0.392477  1
  Li  Li1  1  0.750000  0.009810  0.609558  1
  Li  Li2  1  0.250000  0.489428  0.110631  1
  Li  Li3  1  0.750000  0.508475  0.892212  1
  Ca  Ca4  1  0.750000  0.363079  0.364533  1
  Tb  Tb5  1  0.250000  0.130961  0.863469  1
  Tb  Tb6  1  0.750000  0.866143  0.133306  1
  Tb  Tb7  1  0.250000  0.633474  0.635218  1
  Si  Si8  1  0.750000  0.262845  0.063058  1
  Si  Si9  1  0.250000  0.732194  0.932870  1
  Si  Si10  1  0.750000  0.773802  0.432934  1
  Si  Si11  1  0.250000  0.234850  0.571626  1
  Si  Si12  1  0.750000  0.837443  0.818382  1
  Si  Si13  1  0.250000  0.155352  0.173790  1
  Si  Si14  1  0.750000  0.339509  0.683879  1
  Si  Si15  1  0.250000  0.665546  0.322056  1
