# generated using pymatgen
data_Ce4HoPt15
_symmetry_space_group_name_H-M   'P 1'
_cell_length_a   4.14427700
_cell_length_b   4.14427700
_cell_length_c   20.83226300
_cell_angle_alpha   90.00000000
_cell_angle_beta   90.00000000
_cell_angle_gamma   90.00000000
_symmetry_Int_Tables_number   1
_chemical_formula_structural   Ce4HoPt15
_chemical_formula_sum   'Ce4 Ho1 Pt15'
_cell_volume   357.79478059
_cell_formula_units_Z   1
loop_
 _symmetry_equiv_pos_site_id
 _symmetry_equiv_pos_as_xyz
  1  'x, y, z'
loop_
 _atom_site_type_symbol
 _atom_site_label
 _atom_site_symmetry_multiplicity
 _atom_site_fract_x
 _atom_site_fract_y
 _atom_site_fract_z
 _atom_site_occupancy
  Ce  Ce0  1  0.000000  0.000000  0.197860  1
  Ce  Ce1  1  0.000000  0.000000  0.399185  1
  Ce  Ce2  1  0.000000  0.000000  0.600815  1
  Ce  Ce3  1  0.000000  0.000000  0.802140  1
  Ho  Ho4  1  0.000000  0.000000  0.000000  1
  Pt  Pt5  1  0.500000  0.500000  0.000000  1
  Pt  Pt6  1  0.500000  0.500000  0.198874  1
  Pt  Pt7  1  0.500000  0.500000  0.399810  1
  Pt  Pt8  1  0.500000  0.500000  0.600190  1
  Pt  Pt9  1  0.500000  0.500000  0.801126  1
  Pt  Pt10  1  0.500000  0.000000  0.099277  1
  Pt  Pt11  1  0.500000  0.000000  0.299159  1
  Pt  Pt12  1  0.500000  0.000000  0.500000  1
  Pt  Pt13  1  0.500000  0.000000  0.700841  1
  Pt  Pt14  1  0.500000  0.000000  0.900723  1
  Pt  Pt15  1  0.000000  0.500000  0.099277  1
  Pt  Pt16  1  0.000000  0.500000  0.299159  1
  Pt  Pt17  1  0.000000  0.500000  0.500000  1
  Pt  Pt18  1  0.000000  0.500000  0.700841  1
  Pt  Pt19  1  0.000000  0.500000  0.900723  1
