# generated using pymatgen
data_Ba6In3Fe(WO9)2
_symmetry_space_group_name_H-M   'P 1'
_cell_length_a   10.26868132
_cell_length_b   10.26868127
_cell_length_c   10.26868145
_cell_angle_alpha   146.48212110
_cell_angle_beta   131.78876163
_cell_angle_gamma   59.99339798
_symmetry_Int_Tables_number   1
_chemical_formula_structural   Ba6In3Fe(WO9)2
_chemical_formula_sum   'Ba6 In3 Fe1 W2 O18'
_cell_volume   441.74283390
_cell_formula_units_Z   1
loop_
 _symmetry_equiv_pos_site_id
 _symmetry_equiv_pos_as_xyz
  1  'x, y, z'
loop_
 _atom_site_type_symbol
 _atom_site_label
 _atom_site_symmetry_multiplicity
 _atom_site_fract_x
 _atom_site_fract_y
 _atom_site_fract_z
 _atom_site_occupancy
  Ba  Ba0  1  0.580545  0.840635  0.739910  1
  Ba  Ba1  1  0.268585  0.500000  0.768585  1
  Ba  Ba2  1  0.899274  0.159365  0.739910  1
  Ba  Ba3  1  0.100726  0.840635  0.260090  1
  Ba  Ba4  1  0.731415  0.500000  0.231415  1
  Ba  Ba5  1  0.419455  0.159365  0.260090  1
  In  In6  1  0.333012  0.333012  0.000000  1
  In  In7  1  0.000000  0.000000  0.000000  1
  In  In8  1  0.666988  0.666988  0.000000  1
  Fe  Fe9  1  0.500000  0.000000  0.500000  1
  W  W10  1  0.167726  0.667726  0.500000  1
  W  W11  1  0.832274  0.332274  0.500000  1
  O  O12  1  0.596571  0.329773  0.266798  1
  O  O13  1  0.250129  0.000000  0.250129  1
  O  O14  1  0.937025  0.670227  0.266798  1
  O  O15  1  0.909765  0.641496  0.731731  1
  O  O16  1  0.583001  0.325654  0.742653  1
  O  O17  1  0.245178  0.982169  0.736991  1
  O  O18  1  0.754822  0.491814  0.736991  1
  O  O19  1  0.416999  0.159651  0.742653  1
  O  O20  1  0.090235  0.821966  0.731731  1
  O  O21  1  0.062975  0.329773  0.733202  1
  O  O22  1  0.749871  0.000000  0.749871  1
  O  O23  1  0.403429  0.670227  0.733202  1
  O  O24  1  0.754822  0.017831  0.263009  1
  O  O25  1  0.416999  0.674346  0.257347  1
  O  O26  1  0.090235  0.358504  0.268269  1
  O  O27  1  0.909765  0.178034  0.268269  1
  O  O28  1  0.583001  0.840349  0.257347  1
  O  O29  1  0.245178  0.508186  0.263009  1
