# generated using pymatgen
data_Pr8Tm2Tl5BiBr2
_symmetry_space_group_name_H-M   'P 1'
_cell_length_a   9.54204409
_cell_length_b   9.54204593
_cell_length_c   6.93109600
_cell_angle_alpha   90.00819788
_cell_angle_beta   90.00819707
_cell_angle_gamma   120.10444230
_symmetry_Int_Tables_number   1
_chemical_formula_structural   Pr8Tm2Tl5BiBr2
_chemical_formula_sum   'Pr8 Tm2 Tl5 Bi1 Br2'
_cell_volume   545.95572263
_cell_formula_units_Z   1
loop_
 _symmetry_equiv_pos_site_id
 _symmetry_equiv_pos_as_xyz
  1  'x, y, z'
loop_
 _atom_site_type_symbol
 _atom_site_label
 _atom_site_symmetry_multiplicity
 _atom_site_fract_x
 _atom_site_fract_y
 _atom_site_fract_z
 _atom_site_occupancy
  Pr  Pr0  1  0.268828  0.002669  0.745773  1
  Pr  Pr1  1  0.735808  0.004962  0.254084  1
  Pr  Pr2  1  0.002669  0.268828  0.745773  1
  Pr  Pr3  1  0.004962  0.735808  0.254084  1
  Pr  Pr4  1  0.733287  0.733287  0.747713  1
  Pr  Pr5  1  0.262484  0.262484  0.252050  1
  Pr  Pr6  1  0.667389  0.328649  0.998106  1
  Pr  Pr7  1  0.328649  0.667389  0.998106  1
  Tm  Tm8  1  0.331709  0.666483  0.501546  1
  Tm  Tm9  1  0.666483  0.331709  0.501546  1
  Tl  Tl10  1  0.605996  0.999232  0.740741  1
  Tl  Tl11  1  0.396040  0.000749  0.259894  1
  Tl  Tl12  1  0.999232  0.605996  0.740741  1
  Tl  Tl13  1  0.000749  0.396040  0.259894  1
  Tl  Tl14  1  0.390960  0.390960  0.741442  1
  Bi  Bi15  1  0.608214  0.608214  0.258465  1
  Br  Br16  1  0.998616  0.998616  0.499750  1
  Br  Br17  1  0.997924  0.997924  0.000294  1
