# generated using pymatgen
data_GdTa3(PO4)6
_symmetry_space_group_name_H-M   'P 1'
_cell_length_a   8.89637133
_cell_length_b   9.16473288
_cell_length_c   8.89624300
_cell_angle_alpha   89.99813614
_cell_angle_beta   59.99865297
_cell_angle_gamma   119.03417066
_symmetry_Int_Tables_number   1
_chemical_formula_structural   GdTa3(PO4)6
_chemical_formula_sum   'Gd1 Ta3 P6 O24'
_cell_volume   520.23219899
_cell_formula_units_Z   1
loop_
 _symmetry_equiv_pos_site_id
 _symmetry_equiv_pos_as_xyz
  1  'x, y, z'
loop_
 _atom_site_type_symbol
 _atom_site_label
 _atom_site_symmetry_multiplicity
 _atom_site_fract_x
 _atom_site_fract_y
 _atom_site_fract_z
 _atom_site_occupancy
  Gd  Gd0  1  0.725062  0.087535  0.637415  1
  Ta  Ta1  1  0.284696  0.926927  0.357638  1
  Ta  Ta2  1  0.287459  0.431072  0.856260  1
  Ta  Ta3  1  0.715643  0.573376  0.142127  1
  P  P4  1  0.788139  0.747534  0.748226  1
  P  P5  1  0.477676  0.251489  0.536467  1
  P  P6  1  0.495946  0.747583  0.463538  1
  P  P7  1  0.237447  0.251565  0.226075  1
  P  P8  1  0.788084  0.251516  0.985794  1
  P  P9  1  0.211249  0.747557  0.040450  1
  O  O10  1  0.655379  0.907362  0.471532  1
  O  O11  1  0.991459  0.704660  0.104507  1
  O  O12  1  0.220947  0.584156  0.004807  1
  O  O13  1  0.229292  0.779561  0.205664  1
  O  O14  1  0.988295  0.275907  0.955570  1
  O  O15  1  0.794786  0.416358  0.029838  1
  O  O16  1  0.790559  0.241518  0.816540  1
  O  O17  1  0.809398  0.704814  0.903950  1
  O  O18  1  0.985323  0.779476  0.564974  1
  O  O19  1  0.634607  0.241690  0.548859  1
  O  O20  1  0.780296  0.907221  0.747926  1
  O  O21  1  0.589069  0.584057  0.774293  1
  O  O22  1  0.591832  0.085159  0.155622  1
  O  O23  1  0.591562  0.416254  0.378325  1
  O  O24  1  0.231464  0.275795  0.056144  1
  O  O25  1  0.332042  0.275836  0.712316  1
  O  O26  1  0.608903  0.704764  0.286622  1
  O  O27  1  0.337802  0.085047  0.506636  1
  O  O28  1  0.378952  0.907268  0.872925  1
  O  O29  1  0.358605  0.584187  0.636616  1
  O  O30  1  0.240937  0.085234  0.252593  1
  O  O31  1  0.446389  0.416472  0.175135  1
  O  O32  1  0.344575  0.779424  0.449609  1
  O  O33  1  0.058258  0.241628  0.392877  1
