# generated using pymatgen
data_Ta3NbGe2(B2Ru5)2
_symmetry_space_group_name_H-M   'P 1'
_cell_length_a   9.32592869
_cell_length_b   9.32592869
_cell_length_c   2.99405800
_cell_angle_alpha   90.00000000
_cell_angle_beta   90.00000000
_cell_angle_gamma   89.95603563
_symmetry_Int_Tables_number   1
_chemical_formula_structural   Ta3NbGe2(B2Ru5)2
_chemical_formula_sum   'Ta3 Nb1 Ge2 B4 Ru10'
_cell_volume   260.40196769
_cell_formula_units_Z   1
loop_
 _symmetry_equiv_pos_site_id
 _symmetry_equiv_pos_as_xyz
  1  'x, y, z'
loop_
 _atom_site_type_symbol
 _atom_site_label
 _atom_site_symmetry_multiplicity
 _atom_site_fract_x
 _atom_site_fract_y
 _atom_site_fract_z
 _atom_site_occupancy
  Ta  Ta0  1  0.823290  0.676747  0.000000  1
  Ta  Ta1  1  0.176747  0.323290  0.000000  1
  Ta  Ta2  1  0.323018  0.823018  0.000000  1
  Nb  Nb3  1  0.676767  0.176767  0.000000  1
  Ge  Ge4  1  0.500209  0.499682  0.000000  1
  Ge  Ge5  1  0.999682  0.000209  0.000000  1
  B  B6  1  0.624019  0.875938  0.000000  1
  B  B7  1  0.375938  0.124019  0.000000  1
  B  B8  1  0.124159  0.624159  0.000000  1
  B  B9  1  0.875685  0.375685  0.000000  1
  Ru  Ru10  1  0.568149  0.714457  0.500000  1
  Ru  Ru11  1  0.430602  0.285598  0.500000  1
  Ru  Ru12  1  0.068627  0.785593  0.500000  1
  Ru  Ru13  1  0.933057  0.214962  0.500000  1
  Ru  Ru14  1  0.285593  0.568627  0.500000  1
  Ru  Ru15  1  0.714962  0.433057  0.500000  1
  Ru  Ru16  1  0.214457  0.068149  0.500000  1
  Ru  Ru17  1  0.785598  0.930602  0.500000  1
  Ru  Ru18  1  0.499287  0.999287  0.500000  1
  Ru  Ru19  1  0.000153  0.500153  0.500000  1
