# generated using pymatgen
data_TbThU2(ReB6)2
_symmetry_space_group_name_H-M   'P 1'
_cell_length_a   3.68886700
_cell_length_b   9.36706606
_cell_length_c   11.49517261
_cell_angle_alpha   89.86472612
_cell_angle_beta   90.00000000
_cell_angle_gamma   90.00000000
_symmetry_Int_Tables_number   1
_chemical_formula_structural   TbThU2(ReB6)2
_chemical_formula_sum   'Tb2 Th2 U4 Re4 B24'
_cell_volume   397.20148786
_cell_formula_units_Z   2
loop_
 _symmetry_equiv_pos_site_id
 _symmetry_equiv_pos_as_xyz
  1  'x, y, z'
loop_
 _atom_site_type_symbol
 _atom_site_label
 _atom_site_symmetry_multiplicity
 _atom_site_fract_x
 _atom_site_fract_y
 _atom_site_fract_z
 _atom_site_occupancy
  Tb  Tb0  1  0.000000  0.337333  0.408536  1
  Tb  Tb1  1  0.000000  0.662667  0.591464  1
  Th  Th2  1  0.000000  0.834947  0.093059  1
  Th  Th3  1  0.000000  0.165053  0.906941  1
  U  U4  1  0.000000  0.957779  0.398117  1
  U  U5  1  0.000000  0.042221  0.601883  1
  U  U6  1  0.000000  0.457780  0.103674  1
  U  U7  1  0.000000  0.542220  0.896326  1
  Re  Re8  1  0.000000  0.646328  0.318776  1
  Re  Re9  1  0.000000  0.353672  0.681224  1
  Re  Re10  1  0.000000  0.148068  0.182690  1
  Re  Re11  1  0.000000  0.851932  0.817310  1
  B  B12  1  0.500000  0.552543  0.430888  1
  B  B13  1  0.500000  0.447457  0.569112  1
  B  B14  1  0.500000  0.056483  0.073378  1
  B  B15  1  0.500000  0.943517  0.926622  1
  B  B16  1  0.500000  0.742925  0.423507  1
  B  B17  1  0.500000  0.257075  0.576493  1
  B  B18  1  0.500000  0.246628  0.079748  1
  B  B19  1  0.500000  0.753372  0.920252  1
  B  B20  1  0.500000  0.801280  0.276802  1
  B  B21  1  0.500000  0.198720  0.723198  1
  B  B22  1  0.500000  0.303778  0.226915  1
  B  B23  1  0.500000  0.696222  0.773085  1
  B  B24  1  0.500000  0.642669  0.189596  1
  B  B25  1  0.500000  0.357331  0.810404  1
  B  B26  1  0.500000  0.146226  0.313197  1
  B  B27  1  0.500000  0.853774  0.686803  1
  B  B28  1  0.500000  0.992564  0.222458  1
  B  B29  1  0.500000  0.007436  0.777542  1
  B  B30  1  0.500000  0.489607  0.281686  1
  B  B31  1  0.500000  0.510393  0.718314  1
  B  B32  1  0.500000  0.636153  0.037623  1
  B  B33  1  0.500000  0.363847  0.962377  1
  B  B34  1  0.500000  0.139966  0.461949  1
  B  B35  1  0.500000  0.860034  0.538051  1
