# generated using pymatgen
data_Rb3Ta2AsSe11
_symmetry_space_group_name_H-M   'P 1'
_cell_length_a   10.36264903
_cell_length_b   10.36264809
_cell_length_c   10.25483440
_cell_angle_alpha   83.95492942
_cell_angle_beta   83.95492830
_cell_angle_gamma   83.84907756
_symmetry_Int_Tables_number   1
_chemical_formula_structural   Rb3Ta2AsSe11
_chemical_formula_sum   'Rb6 Ta4 As2 Se22'
_cell_volume   1083.84770249
_cell_formula_units_Z   2
loop_
 _symmetry_equiv_pos_site_id
 _symmetry_equiv_pos_as_xyz
  1  'x, y, z'
loop_
 _atom_site_type_symbol
 _atom_site_label
 _atom_site_symmetry_multiplicity
 _atom_site_fract_x
 _atom_site_fract_y
 _atom_site_fract_z
 _atom_site_occupancy
  Rb  Rb0  1  0.666179  0.802028  0.917698  1
  Rb  Rb1  1  0.433547  0.269506  0.163804  1
  Rb  Rb2  1  0.802028  0.666179  0.417698  1
  Rb  Rb3  1  0.900701  0.056896  0.253180  1
  Rb  Rb4  1  0.269506  0.433547  0.663804  1
  Rb  Rb5  1  0.056896  0.900701  0.753180  1
  Ta  Ta6  1  0.824173  0.410648  0.830873  1
  Ta  Ta7  1  0.704882  0.162200  0.647577  1
  Ta  Ta8  1  0.410648  0.824173  0.330872  1
  Ta  Ta9  1  0.162200  0.704882  0.147577  1
  As  As10  1  0.042050  0.356587  0.093570  1
  As  As11  1  0.356587  0.042050  0.593570  1
  Se  Se12  1  0.194973  0.509263  0.994997  1
  Se  Se13  1  0.804105  0.311725  0.446278  1
  Se  Se14  1  0.640376  0.436497  0.670512  1
  Se  Se15  1  0.949190  0.781872  0.090113  1
  Se  Se16  1  0.781872  0.949190  0.590113  1
  Se  Se17  1  0.444507  0.818236  0.582823  1
  Se  Se18  1  0.594130  0.936690  0.247719  1
  Se  Se19  1  0.934060  0.265158  0.629885  1
  Se  Se20  1  0.265158  0.934060  0.129885  1
  Se  Se21  1  0.311725  0.804105  0.946278  1
  Se  Se22  1  0.818236  0.444507  0.082823  1
  Se  Se23  1  0.579915  0.488112  0.892163  1
  Se  Se24  1  0.234485  0.024397  0.402070  1
  Se  Se25  1  0.024397  0.234485  0.902070  1
  Se  Se26  1  0.148883  0.739772  0.400006  1
  Se  Se27  1  0.132999  0.522802  0.338722  1
  Se  Se28  1  0.436497  0.640376  0.170512  1
  Se  Se29  1  0.522802  0.132999  0.838722  1
  Se  Se30  1  0.509263  0.194973  0.494997  1
  Se  Se31  1  0.936690  0.594130  0.747719  1
  Se  Se32  1  0.739772  0.148883  0.900006  1
  Se  Se33  1  0.488112  0.579915  0.392163  1
