# generated using pymatgen
data_Ce2Pa(AlRh)3
_symmetry_space_group_name_H-M   'P 1'
_cell_length_a   7.08402900
_cell_length_b   7.11015092
_cell_length_c   4.07101900
_cell_angle_alpha   90.00000000
_cell_angle_beta   90.00000000
_cell_angle_gamma   120.12204084
_symmetry_Int_Tables_number   1
_chemical_formula_structural   Ce2Pa(AlRh)3
_chemical_formula_sum   'Ce2 Pa1 Al3 Rh3'
_cell_volume   177.36074969
_cell_formula_units_Z   1
loop_
 _symmetry_equiv_pos_site_id
 _symmetry_equiv_pos_as_xyz
  1  'x, y, z'
loop_
 _atom_site_type_symbol
 _atom_site_label
 _atom_site_symmetry_multiplicity
 _atom_site_fract_x
 _atom_site_fract_y
 _atom_site_fract_z
 _atom_site_occupancy
  Ce  Ce0  1  0.581668  0.579895  0.000000  1
  Ce  Ce1  1  0.418332  0.998228  0.000000  1
  Pa  Pa2  1  0.000000  0.419325  0.000000  1
  Al  Al3  1  0.239218  0.235648  0.500000  1
  Al  Al4  1  0.000000  0.772665  0.500000  1
  Al  Al5  1  0.760782  0.996430  0.500000  1
  Rh  Rh6  1  0.690745  0.336071  0.500000  1
  Rh  Rh7  1  0.309255  0.645327  0.500000  1
  Rh  Rh8  1  0.000000  0.016409  0.000000  1
