# generated using pymatgen
data_Hf8TiMn2NbSb4
_symmetry_space_group_name_H-M   'P 1'
_cell_length_a   5.46728625
_cell_length_b   8.16031111
_cell_length_c   8.16031068
_cell_angle_alpha   83.55669841
_cell_angle_beta   70.42791311
_cell_angle_gamma   70.42792208
_symmetry_Int_Tables_number   1
_chemical_formula_structural   Hf8TiMn2NbSb4
_chemical_formula_sum   'Hf8 Ti1 Mn2 Nb1 Sb4'
_cell_volume   323.21431621
_cell_formula_units_Z   1
loop_
 _symmetry_equiv_pos_site_id
 _symmetry_equiv_pos_as_xyz
  1  'x, y, z'
loop_
 _atom_site_type_symbol
 _atom_site_label
 _atom_site_symmetry_multiplicity
 _atom_site_fract_x
 _atom_site_fract_y
 _atom_site_fract_z
 _atom_site_occupancy
  Hf  Hf0  1  0.074350  0.128345  0.725074  1
  Hf  Hf1  1  0.927769  0.871655  0.274926  1
  Hf  Hf2  1  0.797305  0.274926  0.128345  1
  Hf  Hf3  1  0.425650  0.274926  0.871655  1
  Hf  Hf4  1  0.200576  0.725074  0.871655  1
  Hf  Hf5  1  0.572231  0.725074  0.128345  1
  Hf  Hf6  1  0.702695  0.871655  0.725074  1
  Hf  Hf7  1  0.299424  0.128345  0.274926  1
  Ti  Ti8  1  0.750000  0.500000  0.500000  1
  Mn  Mn9  1  0.250000  0.000000  0.000000  1
  Mn  Mn10  1  0.750000  0.000000  0.000000  1
  Nb  Nb11  1  0.250000  0.500000  0.500000  1
  Sb  Sb12  1  0.155276  0.500000  0.181689  1
  Sb  Sb13  1  0.836964  0.500000  0.818311  1
  Sb  Sb14  1  0.344724  0.818311  0.500000  1
  Sb  Sb15  1  0.663036  0.181689  0.500000  1
