# generated using pymatgen
data_Er12Co4AgOs
_symmetry_space_group_name_H-M   'P 1'
_cell_length_a   8.20154793
_cell_length_b   8.20154721
_cell_length_c   8.20154796
_cell_angle_alpha   111.53193265
_cell_angle_beta   110.86950733
_cell_angle_gamma   106.06570667
_symmetry_Int_Tables_number   1
_chemical_formula_structural   Er12Co4AgOs
_chemical_formula_sum   'Er12 Co4 Ag1 Os1'
_cell_volume   423.55189466
_cell_formula_units_Z   1
loop_
 _symmetry_equiv_pos_site_id
 _symmetry_equiv_pos_as_xyz
  1  'x, y, z'
loop_
 _atom_site_type_symbol
 _atom_site_label
 _atom_site_symmetry_multiplicity
 _atom_site_fract_x
 _atom_site_fract_y
 _atom_site_fract_z
 _atom_site_occupancy
  Er  Er0  1  0.181525  0.278178  0.459702  1
  Er  Er1  1  0.818475  0.721822  0.540298  1
  Er  Er2  1  0.181525  0.721822  0.903346  1
  Er  Er3  1  0.818475  0.278178  0.096654  1
  Er  Er4  1  0.313500  0.621848  0.308348  1
  Er  Er5  1  0.686500  0.378152  0.691652  1
  Er  Er6  1  0.313500  0.005153  0.691652  1
  Er  Er7  1  0.686500  0.994847  0.308348  1
  Er  Er8  1  0.415667  0.221980  0.193688  1
  Er  Er9  1  0.584333  0.778020  0.806312  1
  Er  Er10  1  0.028292  0.221980  0.806312  1
  Er  Er11  1  0.971708  0.778020  0.193688  1
  Co  Co12  1  0.112283  0.612283  0.500000  1
  Co  Co13  1  0.887717  0.387717  0.500000  1
  Co  Co14  1  0.371622  0.000000  0.371622  1
  Co  Co15  1  0.628378  0.000000  0.628378  1
  Ag  Ag16  1  0.500000  0.500000  0.000000  1
  Os  Os17  1  0.000000  0.000000  0.000000  1
