# generated using pymatgen
data_KLi6MoO6
_symmetry_space_group_name_H-M   'P 1'
_cell_length_a   5.36550952
_cell_length_b   5.35482012
_cell_length_c   5.35907001
_cell_angle_alpha   100.72847572
_cell_angle_beta   101.23871880
_cell_angle_gamma   101.54491099
_symmetry_Int_Tables_number   1
_chemical_formula_structural   KLi6MoO6
_chemical_formula_sum   'K1 Li6 Mo1 O6'
_cell_volume   143.84635122
_cell_formula_units_Z   1
loop_
 _symmetry_equiv_pos_site_id
 _symmetry_equiv_pos_as_xyz
  1  'x, y, z'
loop_
 _atom_site_type_symbol
 _atom_site_label
 _atom_site_symmetry_multiplicity
 _atom_site_fract_x
 _atom_site_fract_y
 _atom_site_fract_z
 _atom_site_occupancy
  K  K0  1  0.500000  0.500000  0.500000  1
  Li  Li1  1  0.999527  0.342017  0.657204  1
  Li  Li2  1  0.659382  0.001073  0.343122  1
  Li  Li3  1  0.659559  0.342064  0.000592  1
  Li  Li4  1  0.340618  0.998927  0.656878  1
  Li  Li5  1  0.000473  0.657983  0.342796  1
  Li  Li6  1  0.340441  0.657936  0.999408  1
  Mo  Mo7  1  0.000000  0.000000  0.000000  1
  O  O8  1  0.085059  0.725057  0.726012  1
  O  O9  1  0.727066  0.730125  0.079656  1
  O  O10  1  0.914941  0.274943  0.273988  1
  O  O11  1  0.272934  0.269875  0.920344  1
  O  O12  1  0.274965  0.918562  0.270864  1
  O  O13  1  0.725035  0.081438  0.729136  1
