# generated using pymatgen
data_Nd2Fe3Mo2(PIr)7
_symmetry_space_group_name_H-M   'P 1'
_cell_length_a   9.45674839
_cell_length_b   9.40812377
_cell_length_c   3.94272300
_cell_angle_alpha   90.00000000
_cell_angle_beta   90.00000000
_cell_angle_gamma   120.12115180
_symmetry_Int_Tables_number   1
_chemical_formula_structural   Nd2Fe3Mo2(PIr)7
_chemical_formula_sum   'Nd2 Fe3 Mo2 P7 Ir7'
_cell_volume   303.41725119
_cell_formula_units_Z   1
loop_
 _symmetry_equiv_pos_site_id
 _symmetry_equiv_pos_as_xyz
  1  'x, y, z'
loop_
 _atom_site_type_symbol
 _atom_site_label
 _atom_site_symmetry_multiplicity
 _atom_site_fract_x
 _atom_site_fract_y
 _atom_site_fract_z
 _atom_site_occupancy
  Nd  Nd0  1  0.665128  0.331609  0.000000  1
  Nd  Nd1  1  0.334421  0.665152  0.500000  1
  Fe  Fe2  1  0.261016  0.100524  0.000000  1
  Fe  Fe3  1  0.845236  0.734523  0.000000  1
  Fe  Fe4  1  0.890669  0.163890  0.000000  1
  Mo  Mo5  1  0.791976  0.911589  0.500000  1
  Mo  Mo6  1  0.120842  0.212903  0.500000  1
  P  P7  1  0.305288  0.893785  0.000000  1
  P  P8  1  0.596263  0.702483  0.000000  1
  P  P9  1  0.109947  0.404512  0.000000  1
  P  P10  1  0.394662  0.278224  0.500000  1
  P  P11  1  0.876755  0.598240  0.500000  1
  P  P12  1  0.722320  0.118660  0.500000  1
  P  P13  1  0.997216  0.005752  0.000000  1
  Ir  Ir14  1  0.066021  0.639479  0.000000  1
  Ir  Ir15  1  0.575131  0.936821  0.000000  1
  Ir  Ir16  1  0.365564  0.426720  0.000000  1
  Ir  Ir17  1  0.435701  0.051668  0.500000  1
  Ir  Ir18  1  0.615926  0.563129  0.500000  1
  Ir  Ir19  1  0.948053  0.390838  0.500000  1
  Ir  Ir20  1  0.081865  0.869497  0.500000  1
