# generated using pymatgen
data_Tb2Dy2Er(ReO6)2
_symmetry_space_group_name_H-M   'P 1'
_cell_length_a   6.85375098
_cell_length_b   6.85375160
_cell_length_c   7.55781960
_cell_angle_alpha   73.82814443
_cell_angle_beta   73.82814301
_cell_angle_gamma   49.02812390
_symmetry_Int_Tables_number   1
_chemical_formula_structural   Tb2Dy2Er(ReO6)2
_chemical_formula_sum   'Tb2 Dy2 Er1 Re2 O12'
_cell_volume   255.18380344
_cell_formula_units_Z   1
loop_
 _symmetry_equiv_pos_site_id
 _symmetry_equiv_pos_as_xyz
  1  'x, y, z'
loop_
 _atom_site_type_symbol
 _atom_site_label
 _atom_site_symmetry_multiplicity
 _atom_site_fract_x
 _atom_site_fract_y
 _atom_site_fract_z
 _atom_site_occupancy
  Tb  Tb0  1  0.696466  0.696466  0.641846  1
  Tb  Tb1  1  0.303534  0.303534  0.358154  1
  Dy  Dy2  1  0.685407  0.685407  0.175137  1
  Dy  Dy3  1  0.314593  0.314593  0.824863  1
  Er  Er4  1  0.000000  0.000000  0.500000  1
  Re  Re5  1  0.786369  0.213631  0.000000  1
  Re  Re6  1  0.213631  0.786369  0.000000  1
  O  O7  1  0.000500  0.000500  0.207189  1
  O  O8  1  0.999500  0.999500  0.792811  1
  O  O9  1  0.582698  0.087254  0.083750  1
  O  O10  1  0.417302  0.912746  0.916250  1
  O  O11  1  0.912746  0.417302  0.916250  1
  O  O12  1  0.087254  0.582698  0.083750  1
  O  O13  1  0.499204  0.499204  0.176308  1
  O  O14  1  0.500796  0.500796  0.823692  1
  O  O15  1  0.403560  0.901640  0.425534  1
  O  O16  1  0.596440  0.098360  0.574466  1
  O  O17  1  0.098360  0.596440  0.574466  1
  O  O18  1  0.901640  0.403560  0.425534  1
