# generated using pymatgen
data_V12Cu5Si3N4
_symmetry_space_group_name_H-M   'P 1'
_cell_length_a   6.46976992
_cell_length_b   6.46977047
_cell_length_c   6.46977036
_cell_angle_alpha   90.03912023
_cell_angle_beta   89.96087774
_cell_angle_gamma   89.96087870
_symmetry_Int_Tables_number   1
_chemical_formula_structural   V12Cu5Si3N4
_chemical_formula_sum   'V12 Cu5 Si3 N4'
_cell_volume   270.81098204
_cell_formula_units_Z   1
loop_
 _symmetry_equiv_pos_site_id
 _symmetry_equiv_pos_as_xyz
  1  'x, y, z'
loop_
 _atom_site_type_symbol
 _atom_site_label
 _atom_site_symmetry_multiplicity
 _atom_site_fract_x
 _atom_site_fract_y
 _atom_site_fract_z
 _atom_site_occupancy
  V  V0  1  0.787099  0.956855  0.374647  1
  V  V1  1  0.710823  0.042607  0.875154  1
  V  V2  1  0.210420  0.457903  0.127474  1
  V  V3  1  0.289129  0.542685  0.623462  1
  V  V4  1  0.957393  0.375154  0.789177  1
  V  V5  1  0.043145  0.874647  0.712901  1
  V  V6  1  0.457315  0.123462  0.210871  1
  V  V7  1  0.542097  0.627474  0.289580  1
  V  V8  1  0.372526  0.789580  0.957903  1
  V  V9  1  0.876538  0.710871  0.042685  1
  V  V10  1  0.125353  0.212901  0.456855  1
  V  V11  1  0.624846  0.289177  0.542607  1
  Cu  Cu12  1  0.177401  0.822599  0.322599  1
  Cu  Cu13  1  0.319655  0.175968  0.820493  1
  Cu  Cu14  1  0.824032  0.320493  0.180345  1
  Cu  Cu15  1  0.679507  0.680345  0.675968  1
  Cu  Cu16  1  0.571784  0.428216  0.928216  1
  Si  Si17  1  0.425531  0.925736  0.574249  1
  Si  Si18  1  0.925751  0.574469  0.425736  1
  Si  Si19  1  0.074264  0.074249  0.074469  1
  N  N20  1  0.876868  0.123132  0.623132  1
  N  N21  1  0.622757  0.874978  0.119257  1
  N  N22  1  0.125022  0.619257  0.877243  1
  N  N23  1  0.380743  0.377243  0.374978  1
