# generated using pymatgen
data_Pr3TiFeCo7P6
_symmetry_space_group_name_H-M   'P 1'
_cell_length_a   3.78518700
_cell_length_b   10.81544700
_cell_length_c   12.50472600
_cell_angle_alpha   90.00000000
_cell_angle_beta   90.00000000
_cell_angle_gamma   90.00000000
_symmetry_Int_Tables_number   1
_chemical_formula_structural   Pr3TiFeCo7P6
_chemical_formula_sum   'Pr6 Ti2 Fe2 Co14 P12'
_cell_volume   511.92459260
_cell_formula_units_Z   2
loop_
 _symmetry_equiv_pos_site_id
 _symmetry_equiv_pos_as_xyz
  1  'x, y, z'
loop_
 _atom_site_type_symbol
 _atom_site_label
 _atom_site_symmetry_multiplicity
 _atom_site_fract_x
 _atom_site_fract_y
 _atom_site_fract_z
 _atom_site_occupancy
  Pr  Pr0  1  0.000000  0.500000  0.524460  1
  Pr  Pr1  1  0.500000  0.000000  0.475540  1
  Pr  Pr2  1  0.500000  0.821187  0.204676  1
  Pr  Pr3  1  0.500000  0.178813  0.204676  1
  Pr  Pr4  1  0.000000  0.678813  0.795324  1
  Pr  Pr5  1  0.000000  0.321187  0.795324  1
  Ti  Ti6  1  0.500000  0.500000  0.149885  1
  Ti  Ti7  1  0.000000  0.000000  0.850115  1
  Fe  Fe8  1  0.000000  0.500000  0.989961  1
  Fe  Fe9  1  0.500000  0.000000  0.010039  1
  Co  Co10  1  0.500000  0.500000  0.703884  1
  Co  Co11  1  0.000000  0.000000  0.296116  1
  Co  Co12  1  0.500000  0.331162  0.996343  1
  Co  Co13  1  0.500000  0.668838  0.996343  1
  Co  Co14  1  0.000000  0.168838  0.003657  1
  Co  Co15  1  0.000000  0.831162  0.003657  1
  Co  Co16  1  0.500000  0.296271  0.431642  1
  Co  Co17  1  0.500000  0.703729  0.431642  1
  Co  Co18  1  0.000000  0.203729  0.568358  1
  Co  Co19  1  0.000000  0.796271  0.568358  1
  Co  Co20  1  0.500000  0.881125  0.706128  1
  Co  Co21  1  0.500000  0.118875  0.706128  1
  Co  Co22  1  0.000000  0.618875  0.293872  1
  Co  Co23  1  0.000000  0.381125  0.293872  1
  P  P24  1  0.500000  0.500000  0.891357  1
  P  P25  1  0.000000  0.000000  0.108643  1
  P  P26  1  0.500000  0.500000  0.346861  1
  P  P27  1  0.000000  0.000000  0.653139  1
  P  P28  1  0.500000  0.303515  0.613809  1
  P  P29  1  0.500000  0.696485  0.613809  1
  P  P30  1  0.000000  0.196485  0.386191  1
  P  P31  1  0.000000  0.803515  0.386191  1
  P  P32  1  0.500000  0.845273  0.896923  1
  P  P33  1  0.500000  0.154727  0.896923  1
  P  P34  1  0.000000  0.654727  0.103077  1
  P  P35  1  0.000000  0.345273  0.103077  1
