# generated using pymatgen
data_Np2AsRhI2
_symmetry_space_group_name_H-M   'P 1'
_cell_length_a   4.27861500
_cell_length_b   4.27861624
_cell_length_c   11.49788000
_cell_angle_alpha   90.00000000
_cell_angle_beta   90.00000000
_cell_angle_gamma   119.99998271
_symmetry_Int_Tables_number   1
_chemical_formula_structural   Np2AsRhI2
_chemical_formula_sum   'Np2 As1 Rh1 I2'
_cell_volume   182.28671705
_cell_formula_units_Z   1
loop_
 _symmetry_equiv_pos_site_id
 _symmetry_equiv_pos_as_xyz
  1  'x, y, z'
loop_
 _atom_site_type_symbol
 _atom_site_label
 _atom_site_symmetry_multiplicity
 _atom_site_fract_x
 _atom_site_fract_y
 _atom_site_fract_z
 _atom_site_occupancy
  Np  Np0  1  0.000000  0.000000  0.152237  1
  Np  Np1  1  0.000000  0.000000  0.842301  1
  As  As2  1  0.666667  0.333333  0.984520  1
  Rh  Rh3  1  0.333333  0.666667  0.017904  1
  I  I4  1  0.333333  0.666667  0.664014  1
  I  I5  1  0.666667  0.333333  0.339023  1
