# generated using pymatgen
data_Sr2Sn4Au3
_symmetry_space_group_name_H-M   'P 1'
_cell_length_a   15.34582900
_cell_length_b   15.34582946
_cell_length_c   4.68123300
_cell_angle_alpha   90.00000000
_cell_angle_beta   90.00000000
_cell_angle_gamma   120.00000116
_symmetry_Int_Tables_number   1
_chemical_formula_structural   Sr2Sn4Au3
_chemical_formula_sum   'Sr8 Sn16 Au12'
_cell_volume   954.71029682
_cell_formula_units_Z   4
loop_
 _symmetry_equiv_pos_site_id
 _symmetry_equiv_pos_as_xyz
  1  'x, y, z'
loop_
 _atom_site_type_symbol
 _atom_site_label
 _atom_site_symmetry_multiplicity
 _atom_site_fract_x
 _atom_site_fract_y
 _atom_site_fract_z
 _atom_site_occupancy
  Sr  Sr0  1  0.444202  0.000000  0.000000  1
  Sr  Sr1  1  0.000000  0.444202  0.000000  1
  Sr  Sr2  1  0.555798  0.555798  0.000000  1
  Sr  Sr3  1  0.333333  0.666667  0.000000  1
  Sr  Sr4  1  0.666667  0.333333  0.000000  1
  Sr  Sr5  1  0.824342  0.000000  0.500000  1
  Sr  Sr6  1  0.000000  0.824342  0.500000  1
  Sr  Sr7  1  0.175658  0.175658  0.500000  1
  Sn  Sn8  1  0.183288  0.378017  0.000000  1
  Sn  Sn9  1  0.621983  0.805272  0.000000  1
  Sn  Sn10  1  0.378017  0.183288  0.000000  1
  Sn  Sn11  1  0.194728  0.816712  0.000000  1
  Sn  Sn12  1  0.805272  0.621983  0.000000  1
  Sn  Sn13  1  0.816712  0.194728  0.000000  1
  Sn  Sn14  1  0.278380  0.000000  0.500000  1
  Sn  Sn15  1  0.000000  0.278380  0.500000  1
  Sn  Sn16  1  0.721620  0.721620  0.500000  1
  Sn  Sn17  1  0.356145  0.480681  0.500000  1
  Sn  Sn18  1  0.519319  0.875463  0.500000  1
  Sn  Sn19  1  0.480681  0.356145  0.500000  1
  Sn  Sn20  1  0.124537  0.643855  0.500000  1
  Sn  Sn21  1  0.875463  0.519319  0.500000  1
  Sn  Sn22  1  0.643855  0.124537  0.500000  1
  Sn  Sn23  1  0.000000  0.000000  0.000000  1
  Au  Au24  1  0.173941  0.491024  0.500000  1
  Au  Au25  1  0.508976  0.682917  0.500000  1
  Au  Au26  1  0.491024  0.173941  0.500000  1
  Au  Au27  1  0.317083  0.826059  0.500000  1
  Au  Au28  1  0.682917  0.508976  0.500000  1
  Au  Au29  1  0.826059  0.317083  0.500000  1
  Au  Au30  1  0.176035  0.000000  0.000000  1
  Au  Au31  1  0.000000  0.176035  0.000000  1
  Au  Au32  1  0.823965  0.823965  0.000000  1
  Au  Au33  1  0.654505  0.000000  0.000000  1
  Au  Au34  1  0.000000  0.654505  0.000000  1
  Au  Au35  1  0.345495  0.345495  0.000000  1
