# generated using pymatgen
data_CsTb6Tm4(C2I9)2
_symmetry_space_group_name_H-M   'P 1'
_cell_length_a   11.50479986
_cell_length_b   11.49911051
_cell_length_c   11.49532364
_cell_angle_alpha   113.20401686
_cell_angle_beta   86.59683313
_cell_angle_gamma   120.15763768
_symmetry_Int_Tables_number   1
_chemical_formula_structural   CsTb6Tm4(C2I9)2
_chemical_formula_sum   'Cs1 Tb6 Tm4 C4 I18'
_cell_volume   1190.04669360
_cell_formula_units_Z   1
loop_
 _symmetry_equiv_pos_site_id
 _symmetry_equiv_pos_as_xyz
  1  'x, y, z'
loop_
 _atom_site_type_symbol
 _atom_site_label
 _atom_site_symmetry_multiplicity
 _atom_site_fract_x
 _atom_site_fract_y
 _atom_site_fract_z
 _atom_site_occupancy
  Cs  Cs0  1  0.499330  0.998688  0.499396  1
  Tb  Tb1  1  0.907618  0.610065  0.708344  1
  Tb  Tb2  1  0.104423  0.945204  0.000831  1
  Tb  Tb3  1  0.035956  0.962791  0.675232  1
  Tb  Tb4  1  0.320585  0.274367  0.287819  1
  Tb  Tb5  1  0.722192  0.646532  0.984889  1
  Tb  Tb6  1  0.896408  0.055688  0.000048  1
  Tm  Tm7  1  0.683834  0.727704  0.715628  1
  Tm  Tm8  1  0.274231  0.349519  0.016207  1
  Tm  Tm9  1  0.093949  0.384808  0.287950  1
  Tm  Tm10  1  0.964874  0.038449  0.321356  1
  C  C11  1  0.151480  0.219728  0.120437  1
  C  C12  1  0.847760  0.779780  0.879003  1
  C  C13  1  0.923817  0.856266  0.802810  1
  C  C14  1  0.075060  0.143267  0.196894  1
  I  I15  1  0.451016  0.531917  0.830810  1
  I  I16  1  0.383734  0.039809  0.158064  1
  I  I17  1  0.776766  0.855180  0.502688  1
  I  I18  1  0.842513  0.312092  0.156440  1
  I  I19  1  0.545840  0.469366  0.165691  1
  I  I20  1  0.216674  0.144045  0.497050  1
  I  I21  1  0.317658  0.101095  0.831523  1
  I  I22  1  0.685481  0.904739  0.173825  1
  I  I23  1  0.973368  0.759384  0.172867  1
  I  I24  1  0.936042  0.296433  0.497479  1
  I  I25  1  0.030413  0.247225  0.832589  1
  I  I26  1  0.067856  0.702648  0.498633  1
  I  I27  1  0.259233  0.615399  0.181075  1
  I  I28  1  0.739770  0.377493  0.817260  1
  I  I29  1  0.640941  0.440765  0.503533  1
  I  I30  1  0.162542  0.690766  0.847160  1
  I  I31  1  0.618020  0.956010  0.840723  1
  I  I32  1  0.350618  0.562779  0.495743  1
