# generated using pymatgen
data_Cs4Na2TbYAs4
_symmetry_space_group_name_H-M   'P 1'
_cell_length_a   9.78483314
_cell_length_b   9.78483203
_cell_length_c   9.78483216
_cell_angle_alpha   136.17435597
_cell_angle_beta   136.24065916
_cell_angle_gamma   63.65970248
_symmetry_Int_Tables_number   1
_chemical_formula_structural   Cs4Na2TbYAs4
_chemical_formula_sum   'Cs4 Na2 Tb1 Y1 As4'
_cell_volume   442.78333938
_cell_formula_units_Z   1
loop_
 _symmetry_equiv_pos_site_id
 _symmetry_equiv_pos_as_xyz
  1  'x, y, z'
loop_
 _atom_site_type_symbol
 _atom_site_label
 _atom_site_symmetry_multiplicity
 _atom_site_fract_x
 _atom_site_fract_y
 _atom_site_fract_z
 _atom_site_occupancy
  Cs  Cs0  1  0.681141  0.392863  0.711715  1
  Cs  Cs1  1  0.818859  0.030574  0.211723  1
  Cs  Cs2  1  0.181149  0.969426  0.788285  1
  Cs  Cs3  1  0.318851  0.607137  0.288277  1
  Na  Na4  1  0.750000  0.000000  0.750000  1
  Na  Na5  1  0.250000  0.000000  0.250000  1
  Tb  Tb6  1  0.250000  0.500000  0.750000  1
  Y  Y7  1  0.750000  0.500000  0.250000  1
  As  As8  1  0.410207  0.188696  0.778734  1
  As  As9  1  0.590037  0.811304  0.221510  1
  As  As10  1  0.089793  0.368528  0.278490  1
  As  As11  1  0.909963  0.631472  0.721266  1
