# generated using pymatgen
data_Pr6Al2C5N
_symmetry_space_group_name_H-M   'P 1'
_cell_length_a   3.78079800
_cell_length_b   7.48806000
_cell_length_c   10.16052400
_cell_angle_alpha   90.00000000
_cell_angle_beta   90.00000000
_cell_angle_gamma   90.00000000
_symmetry_Int_Tables_number   1
_chemical_formula_structural   Pr6Al2C5N
_chemical_formula_sum   'Pr6 Al2 C5 N1'
_cell_volume   287.65299236
_cell_formula_units_Z   1
loop_
 _symmetry_equiv_pos_site_id
 _symmetry_equiv_pos_as_xyz
  1  'x, y, z'
loop_
 _atom_site_type_symbol
 _atom_site_label
 _atom_site_symmetry_multiplicity
 _atom_site_fract_x
 _atom_site_fract_y
 _atom_site_fract_z
 _atom_site_occupancy
  Pr  Pr0  1  0.500000  0.512475  0.192205  1
  Pr  Pr1  1  0.500000  0.489987  0.808332  1
  Pr  Pr2  1  0.500000  0.987525  0.192205  1
  Pr  Pr3  1  0.500000  0.010013  0.808332  1
  Pr  Pr4  1  0.000000  0.750000  0.458094  1
  Pr  Pr5  1  0.000000  0.250000  0.536905  1
  Al  Al6  1  0.000000  0.750000  0.012153  1
  Al  Al7  1  0.000000  0.250000  0.994077  1
  C  C8  1  0.500000  0.509341  0.564464  1
  C  C9  1  0.500000  0.494063  0.435011  1
  C  C10  1  0.500000  0.990659  0.564464  1
  C  C11  1  0.500000  0.005937  0.435011  1
  C  C12  1  0.000000  0.250000  0.793797  1
  N  N13  1  0.000000  0.750000  0.204948  1
