# generated using pymatgen
data_Zr10In2Ga2SnSb3
_symmetry_space_group_name_H-M   'P 1'
_cell_length_a   8.75433766
_cell_length_b   8.71718489
_cell_length_c   5.88170400
_cell_angle_alpha   90.00000000
_cell_angle_beta   90.00000000
_cell_angle_gamma   119.98841432
_symmetry_Int_Tables_number   1
_chemical_formula_structural   Zr10In2Ga2SnSb3
_chemical_formula_sum   'Zr10 In2 Ga2 Sn1 Sb3'
_cell_volume   388.76220536
_cell_formula_units_Z   1
loop_
 _symmetry_equiv_pos_site_id
 _symmetry_equiv_pos_as_xyz
  1  'x, y, z'
loop_
 _atom_site_type_symbol
 _atom_site_label
 _atom_site_symmetry_multiplicity
 _atom_site_fract_x
 _atom_site_fract_y
 _atom_site_fract_z
 _atom_site_occupancy
  Zr  Zr0  1  0.999256  0.265515  0.250000  1
  Zr  Zr1  1  0.729797  0.997750  0.750000  1
  Zr  Zr2  1  0.730554  0.733629  0.250000  1
  Zr  Zr3  1  0.662370  0.330605  0.500253  1
  Zr  Zr4  1  0.000756  0.734646  0.750000  1
  Zr  Zr5  1  0.268956  0.265683  0.750000  1
  Zr  Zr6  1  0.336693  0.668443  0.999926  1
  Zr  Zr7  1  0.662370  0.330605  0.999747  1
  Zr  Zr8  1  0.336693  0.668443  0.500074  1
  Zr  Zr9  1  0.271185  0.003259  0.250000  1
  In  In10  1  0.999695  0.612715  0.250000  1
  In  In11  1  0.999748  0.387969  0.750000  1
  Ga  Ga12  1  0.999664  0.999542  0.000401  1
  Ga  Ga13  1  0.999664  0.999542  0.499599  1
  Sn  Sn14  1  0.613951  0.612705  0.750000  1
  Sb  Sb15  1  0.612156  0.000516  0.250000  1
  Sb  Sb16  1  0.387979  0.998310  0.750000  1
  Sb  Sb17  1  0.388512  0.390123  0.250000  1
