# generated using pymatgen
data_TbUGa5Co6
_symmetry_space_group_name_H-M   'P 1'
_cell_length_a   5.07443481
_cell_length_b   6.57479880
_cell_length_c   6.57479918
_cell_angle_alpha   86.16185245
_cell_angle_beta   67.30035487
_cell_angle_gamma   67.30035246
_symmetry_Int_Tables_number   1
_chemical_formula_structural   TbUGa5Co6
_chemical_formula_sum   'Tb1 U1 Ga5 Co6'
_cell_volume   185.82291157
_cell_formula_units_Z   1
loop_
 _symmetry_equiv_pos_site_id
 _symmetry_equiv_pos_as_xyz
  1  'x, y, z'
loop_
 _atom_site_type_symbol
 _atom_site_label
 _atom_site_symmetry_multiplicity
 _atom_site_fract_x
 _atom_site_fract_y
 _atom_site_fract_z
 _atom_site_occupancy
  Tb  Tb0  1  0.000000  0.991791  0.008209  1
  U  U1  1  0.000000  0.351195  0.648805  1
  Ga  Ga2  1  0.000000  0.673080  0.326920  1
  Ga  Ga3  1  0.500000  0.166431  0.833569  1
  Ga  Ga4  1  0.500000  0.818977  0.181023  1
  Ga  Ga5  1  0.343941  0.660666  0.651450  1
  Ga  Ga6  1  0.656059  0.348550  0.339334  1
  Co  Co7  1  0.245860  0.252489  0.255790  1
  Co  Co8  1  0.754140  0.744210  0.747511  1
  Co  Co9  1  0.491863  0.004984  0.508678  1
  Co  Co10  1  0.508137  0.491322  0.995016  1
  Co  Co11  1  0.005526  0.491322  0.995016  1
  Co  Co12  1  0.994474  0.004984  0.508678  1
