# generated using pymatgen
data_Dy4(AgPd3)3
_symmetry_space_group_name_H-M   'P 1'
_cell_length_a   7.22625759
_cell_length_b   7.22730768
_cell_length_c   7.22625700
_cell_angle_alpha   108.20037926
_cell_angle_beta   108.39727388
_cell_angle_gamma   111.83627534
_symmetry_Int_Tables_number   1
_chemical_formula_structural   Dy4(AgPd3)3
_chemical_formula_sum   'Dy4 Ag3 Pd9'
_cell_volume   290.17087359
_cell_formula_units_Z   1
loop_
 _symmetry_equiv_pos_site_id
 _symmetry_equiv_pos_as_xyz
  1  'x, y, z'
loop_
 _atom_site_type_symbol
 _atom_site_label
 _atom_site_symmetry_multiplicity
 _atom_site_fract_x
 _atom_site_fract_y
 _atom_site_fract_z
 _atom_site_occupancy
  Dy  Dy0  1  0.242567  0.242632  0.485230  1
  Dy  Dy1  1  0.757433  0.757368  0.514770  1
  Dy  Dy2  1  0.242590  0.757337  0.999936  1
  Dy  Dy3  1  0.757410  0.242663  0.000064  1
  Ag  Ag4  1  0.500000  0.000000  0.500000  1
  Ag  Ag5  1  0.000000  0.500000  0.500000  1
  Ag  Ag6  1  0.500000  0.500000  0.000000  1
  Pd  Pd7  1  0.504511  0.254797  0.249722  1
  Pd  Pd8  1  0.495489  0.745203  0.750278  1
  Pd  Pd9  1  0.005076  0.254791  0.750289  1
  Pd  Pd10  1  0.254816  0.005108  0.750290  1
  Pd  Pd11  1  0.994924  0.745209  0.249711  1
  Pd  Pd12  1  0.745184  0.994892  0.249710  1
  Pd  Pd13  1  0.254820  0.504539  0.249720  1
  Pd  Pd14  1  0.745180  0.495461  0.750280  1
  Pd  Pd15  1  0.000000  0.000000  0.000000  1
