# generated using pymatgen
data_La5ReRuO12
_symmetry_space_group_name_H-M   'P 1'
_cell_length_a   7.18753607
_cell_length_b   7.18753580
_cell_length_c   7.97822784
_cell_angle_alpha   73.72192459
_cell_angle_beta   73.72192612
_cell_angle_gamma   47.84207940
_symmetry_Int_Tables_number   1
_chemical_formula_structural   La5ReRuO12
_chemical_formula_sum   'La5 Re1 Ru1 O12'
_cell_volume   290.81500728
_cell_formula_units_Z   1
loop_
 _symmetry_equiv_pos_site_id
 _symmetry_equiv_pos_as_xyz
  1  'x, y, z'
loop_
 _atom_site_type_symbol
 _atom_site_label
 _atom_site_symmetry_multiplicity
 _atom_site_fract_x
 _atom_site_fract_y
 _atom_site_fract_z
 _atom_site_occupancy
  La  La0  1  0.296734  0.320955  0.353072  1
  La  La1  1  0.679045  0.703266  0.646928  1
  La  La2  1  0.682469  0.688809  0.168022  1
  La  La3  1  0.311191  0.317531  0.831978  1
  La  La4  1  0.995488  0.004512  0.500000  1
  Re  Re5  1  0.794517  0.205483  0.000000  1
  Ru  Ru6  1  0.227229  0.772771  0.000000  1
  O  O7  1  0.088585  0.596495  0.580176  1
  O  O8  1  0.992029  0.007222  0.193094  1
  O  O9  1  0.403505  0.911415  0.419824  1
  O  O10  1  0.512227  0.486311  0.160905  1
  O  O11  1  0.084425  0.581437  0.080588  1
  O  O12  1  0.899437  0.406437  0.426047  1
  O  O13  1  0.992778  0.007971  0.806906  1
  O  O14  1  0.593563  0.100562  0.573953  1
  O  O15  1  0.513689  0.487773  0.839095  1
  O  O16  1  0.605927  0.091400  0.076387  1
  O  O17  1  0.418563  0.915575  0.919412  1
  O  O18  1  0.908600  0.394073  0.923613  1
