# generated using pymatgen
data_Pu2Zn(SbH)2
_symmetry_space_group_name_H-M   'P 1'
_cell_length_a   4.22126700
_cell_length_b   4.22126700
_cell_length_c   7.69747300
_cell_angle_alpha   90.00000000
_cell_angle_beta   90.00000000
_cell_angle_gamma   90.00000000
_symmetry_Int_Tables_number   1
_chemical_formula_structural   Pu2Zn(SbH)2
_chemical_formula_sum   'Pu2 Zn1 Sb2 H2'
_cell_volume   137.16200330
_cell_formula_units_Z   1
loop_
 _symmetry_equiv_pos_site_id
 _symmetry_equiv_pos_as_xyz
  1  'x, y, z'
loop_
 _atom_site_type_symbol
 _atom_site_label
 _atom_site_symmetry_multiplicity
 _atom_site_fract_x
 _atom_site_fract_y
 _atom_site_fract_z
 _atom_site_occupancy
  Pu  Pu0  1  0.500000  0.000000  0.866345  1
  Pu  Pu1  1  0.000000  0.500000  0.133655  1
  Zn  Zn2  1  0.500000  0.500000  0.500000  1
  Sb  Sb3  1  0.500000  0.000000  0.291082  1
  Sb  Sb4  1  0.000000  0.500000  0.708918  1
  H  H5  1  0.500000  0.500000  0.000000  1
  H  H6  1  0.000000  0.000000  0.000000  1
