# generated using pymatgen
data_Ho6Sc2PtAu9
_symmetry_space_group_name_H-M   'P 1'
_cell_length_a   7.86623772
_cell_length_b   7.86623677
_cell_length_c   7.86623537
_cell_angle_alpha   66.15332685
_cell_angle_beta   66.15332756
_cell_angle_gamma   66.15331930
_symmetry_Int_Tables_number   1
_chemical_formula_structural   Ho6Sc2PtAu9
_chemical_formula_sum   'Ho6 Sc2 Pt1 Au9'
_cell_volume   389.94603931
_cell_formula_units_Z   1
loop_
 _symmetry_equiv_pos_site_id
 _symmetry_equiv_pos_as_xyz
  1  'x, y, z'
loop_
 _atom_site_type_symbol
 _atom_site_label
 _atom_site_symmetry_multiplicity
 _atom_site_fract_x
 _atom_site_fract_y
 _atom_site_fract_z
 _atom_site_occupancy
  Ho  Ho0  1  0.890418  0.180861  0.624483  1
  Ho  Ho1  1  0.624483  0.890418  0.180861  1
  Ho  Ho2  1  0.180861  0.624483  0.890418  1
  Ho  Ho3  1  0.104936  0.810025  0.387504  1
  Ho  Ho4  1  0.387504  0.104936  0.810025  1
  Ho  Ho5  1  0.810025  0.387504  0.104936  1
  Sc  Sc6  1  0.662060  0.662060  0.662060  1
  Sc  Sc7  1  0.340295  0.340295  0.340295  1
  Pt  Pt8  1  0.805833  0.805833  0.805833  1
  Au  Au9  1  0.000946  0.000946  0.000946  1
  Au  Au10  1  0.500061  0.500061  0.500061  1
  Au  Au11  1  0.191962  0.191962  0.191962  1
  Au  Au12  1  0.937509  0.549066  0.320411  1
  Au  Au13  1  0.320411  0.937509  0.549066  1
  Au  Au14  1  0.549066  0.320411  0.937509  1
  Au  Au15  1  0.063455  0.447677  0.682499  1
  Au  Au16  1  0.682499  0.063455  0.447677  1
  Au  Au17  1  0.447677  0.682499  0.063455  1
