# generated using pymatgen
data_Tb6Al24ReRu5Au2
_symmetry_space_group_name_H-M   'P 1'
_cell_length_a   8.91764917
_cell_length_b   8.85811018
_cell_length_c   9.61919004
_cell_angle_alpha   90.00000077
_cell_angle_beta   89.86257550
_cell_angle_gamma   119.77939055
_symmetry_Int_Tables_number   1
_chemical_formula_structural   Tb6Al24ReRu5Au2
_chemical_formula_sum   'Tb6 Al24 Re1 Ru5 Au2'
_cell_volume   659.50803743
_cell_formula_units_Z   1
loop_
 _symmetry_equiv_pos_site_id
 _symmetry_equiv_pos_as_xyz
  1  'x, y, z'
loop_
 _atom_site_type_symbol
 _atom_site_label
 _atom_site_symmetry_multiplicity
 _atom_site_fract_x
 _atom_site_fract_y
 _atom_site_fract_z
 _atom_site_occupancy
  Tb  Tb0  1  0.382862  0.191431  0.252271  1
  Tb  Tb1  1  0.809271  0.194027  0.246867  1
  Tb  Tb2  1  0.809271  0.615244  0.246867  1
  Tb  Tb3  1  0.617138  0.808569  0.747729  1
  Tb  Tb4  1  0.190729  0.805973  0.753133  1
  Tb  Tb5  1  0.190729  0.384756  0.753133  1
  Al  Al6  1  0.434943  0.871602  0.243165  1
  Al  Al7  1  0.121548  0.560774  0.250524  1
  Al  Al8  1  0.434943  0.563341  0.243165  1
  Al  Al9  1  0.565057  0.128398  0.756835  1
  Al  Al10  1  0.878452  0.439226  0.749476  1
  Al  Al11  1  0.565057  0.436659  0.756835  1
  Al  Al12  1  0.151668  0.828240  0.419440  1
  Al  Al13  1  0.151668  0.323430  0.419440  1
  Al  Al14  1  0.680880  0.840440  0.415963  1
  Al  Al15  1  0.848332  0.171760  0.580560  1
  Al  Al16  1  0.848332  0.676570  0.580560  1
  Al  Al17  1  0.319120  0.159560  0.584037  1
  Al  Al18  1  0.835661  0.163944  0.924574  1
  Al  Al19  1  0.835661  0.671716  0.924574  1
  Al  Al20  1  0.327153  0.163576  0.928789  1
  Al  Al21  1  0.164339  0.836056  0.075426  1
  Al  Al22  1  0.164339  0.328284  0.075426  1
  Al  Al23  1  0.672847  0.836424  0.071211  1
  Al  Al24  1  0.321014  0.660507  0.527903  1
  Al  Al25  1  0.678986  0.339493  0.472097  1
  Al  Al26  1  0.666525  0.333262  0.025005  1
  Al  Al27  1  0.333475  0.666738  0.974995  1
  Al  Al28  1  0.003098  0.001549  0.247011  1
  Al  Al29  1  0.996902  0.998451  0.752989  1
  Re  Re30  1  0.000000  0.000000  0.500000  1
  Ru  Ru31  1  0.000000  0.000000  0.000000  1
  Ru  Ru32  1  0.000000  0.500000  0.500000  1
  Ru  Ru33  1  0.500000  0.000000  0.000000  1
  Ru  Ru34  1  0.000000  0.500000  0.000000  1
  Ru  Ru35  1  0.500000  0.500000  0.000000  1
  Au  Au36  1  0.500000  0.000000  0.500000  1
  Au  Au37  1  0.500000  0.500000  0.500000  1
