# generated using pymatgen
data_Sc4TcB12Rh
_symmetry_space_group_name_H-M   'P 1'
_cell_length_a   3.49825800
_cell_length_b   8.89564400
_cell_length_c   11.20708600
_cell_angle_alpha   90.00000000
_cell_angle_beta   90.00000000
_cell_angle_gamma   90.00000000
_symmetry_Int_Tables_number   1
_chemical_formula_structural   Sc4TcB12Rh
_chemical_formula_sum   'Sc8 Tc2 B24 Rh2'
_cell_volume   348.75619829
_cell_formula_units_Z   2
loop_
 _symmetry_equiv_pos_site_id
 _symmetry_equiv_pos_as_xyz
  1  'x, y, z'
loop_
 _atom_site_type_symbol
 _atom_site_label
 _atom_site_symmetry_multiplicity
 _atom_site_fract_x
 _atom_site_fract_y
 _atom_site_fract_z
 _atom_site_occupancy
  Sc  Sc0  1  0.000000  0.946644  0.372740  1
  Sc  Sc1  1  0.000000  0.057305  0.626478  1
  Sc  Sc2  1  0.000000  0.553356  0.872740  1
  Sc  Sc3  1  0.000000  0.186102  0.914298  1
  Sc  Sc4  1  0.000000  0.822793  0.086293  1
  Sc  Sc5  1  0.000000  0.677207  0.586293  1
  Sc  Sc6  1  0.000000  0.313898  0.414298  1
  Sc  Sc7  1  0.000000  0.442695  0.126478  1
  Tc  Tc8  1  0.000000  0.138863  0.179528  1
  Tc  Tc9  1  0.000000  0.361137  0.679528  1
  B  B10  1  0.500000  0.369523  0.818115  1
  B  B11  1  0.500000  0.979505  0.212584  1
  B  B12  1  0.500000  0.553825  0.435125  1
  B  B13  1  0.500000  0.295386  0.236732  1
  B  B14  1  0.500000  0.204614  0.736732  1
  B  B15  1  0.500000  0.100558  0.472502  1
  B  B16  1  0.500000  0.795100  0.264075  1
  B  B17  1  0.500000  0.446792  0.564244  1
  B  B18  1  0.500000  0.247224  0.578992  1
  B  B19  1  0.500000  0.480337  0.286995  1
  B  B20  1  0.500000  0.704900  0.764075  1
  B  B21  1  0.500000  0.752785  0.422041  1
  B  B22  1  0.500000  0.520495  0.712584  1
  B  B23  1  0.500000  0.896869  0.527936  1
  B  B24  1  0.500000  0.053208  0.064244  1
  B  B25  1  0.500000  0.603131  0.027936  1
  B  B26  1  0.500000  0.747215  0.922041  1
  B  B27  1  0.500000  0.019663  0.786995  1
  B  B28  1  0.500000  0.399442  0.972502  1
  B  B29  1  0.500000  0.946175  0.935125  1
  B  B30  1  0.500000  0.631247  0.181263  1
  B  B31  1  0.500000  0.252776  0.078992  1
  B  B32  1  0.500000  0.868753  0.681263  1
  B  B33  1  0.500000  0.130477  0.318115  1
  Rh  Rh34  1  0.000000  0.859865  0.820059  1
  Rh  Rh35  1  0.000000  0.640135  0.320059  1
