# generated using pymatgen
data_Zr9Sc7(Si4W)4
_symmetry_space_group_name_H-M   'P 1'
_cell_length_a   7.00341217
_cell_length_b   6.99880519
_cell_length_c   12.74439411
_cell_angle_alpha   90.06809520
_cell_angle_beta   89.97393905
_cell_angle_gamma   89.97253215
_symmetry_Int_Tables_number   1
_chemical_formula_structural   Zr9Sc7(Si4W)4
_chemical_formula_sum   'Zr9 Sc7 Si16 W4'
_cell_volume   624.67249399
_cell_formula_units_Z   1
loop_
 _symmetry_equiv_pos_site_id
 _symmetry_equiv_pos_as_xyz
  1  'x, y, z'
loop_
 _atom_site_type_symbol
 _atom_site_label
 _atom_site_symmetry_multiplicity
 _atom_site_fract_x
 _atom_site_fract_y
 _atom_site_fract_z
 _atom_site_occupancy
  Zr  Zr0  1  0.146331  0.003880  0.874659  1
  Zr  Zr1  1  0.000480  0.653432  0.033044  1
  Zr  Zr2  1  0.999326  0.347738  0.533195  1
  Zr  Zr3  1  0.650750  0.999815  0.966910  1
  Zr  Zr4  1  0.153469  0.499919  0.782708  1
  Zr  Zr5  1  0.846739  0.500593  0.283461  1
  Zr  Zr6  1  0.500483  0.152938  0.217370  1
  Zr  Zr7  1  0.499388  0.846906  0.717179  1
  Zr  Zr8  1  0.348212  0.999610  0.466443  1
  Sc  Sc9  1  0.353488  0.502853  0.375583  1
  Sc  Sc10  1  0.853510  0.997018  0.374644  1
  Sc  Sc11  1  0.002170  0.146765  0.125555  1
  Sc  Sc12  1  0.996904  0.852373  0.625705  1
  Sc  Sc13  1  0.646461  0.496298  0.875332  1
  Sc  Sc14  1  0.503235  0.354029  0.624136  1
  Sc  Sc15  1  0.497112  0.646777  0.124742  1
  Si  Si16  1  0.048339  0.701904  0.433639  1
  Si  Si17  1  0.949848  0.300936  0.933871  1
  Si  Si18  1  0.702349  0.047678  0.566325  1
  Si  Si19  1  0.201575  0.452088  0.183839  1
  Si  Si20  1  0.798552  0.548027  0.683608  1
  Si  Si21  1  0.453475  0.203065  0.815208  1
  Si  Si22  1  0.548503  0.797901  0.316305  1
  Si  Si23  1  0.299314  0.951960  0.067869  1
  Si  Si24  1  0.853062  0.797893  0.821009  1
  Si  Si25  1  0.144552  0.200739  0.320926  1
  Si  Si26  1  0.799282  0.855106  0.179584  1
  Si  Si27  1  0.299383  0.644359  0.570623  1
  Si  Si28  1  0.699958  0.354950  0.071072  1
  Si  Si29  1  0.644210  0.298789  0.429109  1
  Si  Si30  1  0.356951  0.699592  0.929414  1
  Si  Si31  1  0.202468  0.144264  0.677680  1
  W  W32  1  0.678375  0.677542  0.499668  1
  W  W33  1  0.822491  0.177471  0.749686  1
  W  W34  1  0.177403  0.822193  0.250032  1
  W  W35  1  0.321850  0.322597  0.999868  1
