# generated using pymatgen
data_Tb4UTaRu6
_symmetry_space_group_name_H-M   'P 1'
_cell_length_a   5.81508500
_cell_length_b   5.81508546
_cell_length_c   7.89674400
_cell_angle_alpha   90.00000000
_cell_angle_beta   90.00000000
_cell_angle_gamma   120.00001445
_symmetry_Int_Tables_number   1
_chemical_formula_structural   Tb4UTaRu6
_chemical_formula_sum   'Tb4 U1 Ta1 Ru6'
_cell_volume   231.25482159
_cell_formula_units_Z   1
loop_
 _symmetry_equiv_pos_site_id
 _symmetry_equiv_pos_as_xyz
  1  'x, y, z'
loop_
 _atom_site_type_symbol
 _atom_site_label
 _atom_site_symmetry_multiplicity
 _atom_site_fract_x
 _atom_site_fract_y
 _atom_site_fract_z
 _atom_site_occupancy
  Tb  Tb0  1  0.333333  0.666667  0.437266  1
  Tb  Tb1  1  0.666667  0.333333  0.562734  1
  Tb  Tb2  1  0.666667  0.333333  0.945467  1
  Tb  Tb3  1  0.333333  0.666667  0.054533  1
  U  U4  1  0.000000  0.000000  0.500000  1
  Ta  Ta5  1  0.000000  0.000000  0.000000  1
  Ru  Ru6  1  0.832711  0.167289  0.254898  1
  Ru  Ru7  1  0.832711  0.665423  0.254898  1
  Ru  Ru8  1  0.334577  0.167289  0.254898  1
  Ru  Ru9  1  0.167289  0.832711  0.745102  1
  Ru  Ru10  1  0.167289  0.334577  0.745102  1
  Ru  Ru11  1  0.665423  0.832711  0.745102  1
