# generated using pymatgen
data_Hf6Al2IrRh3
_symmetry_space_group_name_H-M   'P 1'
_cell_length_a   8.50105097
_cell_length_b   8.50105094
_cell_length_c   8.50183000
_cell_angle_alpha   59.99696842
_cell_angle_beta   59.99696854
_cell_angle_gamma   60.01944716
_symmetry_Int_Tables_number   1
_chemical_formula_structural   Hf6Al2IrRh3
_chemical_formula_sum   'Hf12 Al4 Ir2 Rh6'
_cell_volume   434.49675586
_cell_formula_units_Z   2
loop_
 _symmetry_equiv_pos_site_id
 _symmetry_equiv_pos_as_xyz
  1  'x, y, z'
loop_
 _atom_site_type_symbol
 _atom_site_label
 _atom_site_symmetry_multiplicity
 _atom_site_fract_x
 _atom_site_fract_y
 _atom_site_fract_z
 _atom_site_occupancy
  Hf  Hf0  1  0.807025  0.807025  0.192975  1
  Hf  Hf1  1  0.192127  0.192127  0.807873  1
  Hf  Hf2  1  0.807401  0.192038  0.807579  1
  Hf  Hf3  1  0.192038  0.807401  0.192982  1
  Hf  Hf4  1  0.192038  0.807401  0.807579  1
  Hf  Hf5  1  0.807401  0.192038  0.192982  1
  Hf  Hf6  1  0.441855  0.441855  0.058145  1
  Hf  Hf7  1  0.056521  0.056521  0.443479  1
  Hf  Hf8  1  0.442857  0.057066  0.442887  1
  Hf  Hf9  1  0.057066  0.442857  0.057190  1
  Hf  Hf10  1  0.057066  0.442857  0.442887  1
  Hf  Hf11  1  0.442857  0.057066  0.057190  1
  Al  Al12  1  0.126399  0.624410  0.624595  1
  Al  Al13  1  0.624410  0.126399  0.624595  1
  Al  Al14  1  0.624726  0.624726  0.125419  1
  Al  Al15  1  0.624726  0.624726  0.625129  1
  Ir  Ir16  1  0.840493  0.840493  0.479460  1
  Ir  Ir17  1  0.840493  0.840493  0.839555  1
  Rh  Rh18  1  0.768340  0.410939  0.410360  1
  Rh  Rh19  1  0.410939  0.768340  0.410360  1
  Rh  Rh20  1  0.410409  0.410409  0.769023  1
  Rh  Rh21  1  0.410409  0.410409  0.410158  1
  Rh  Rh22  1  0.483076  0.839327  0.838799  1
  Rh  Rh23  1  0.839327  0.483076  0.838799  1
