# generated using pymatgen
data_Tm8TiRe11Si16
_symmetry_space_group_name_H-M   'P 1'
_cell_length_a   6.74507766
_cell_length_b   6.74507766
_cell_length_c   12.80268768
_cell_angle_alpha   90.16038641
_cell_angle_beta   89.83961359
_cell_angle_gamma   90.23335435
_symmetry_Int_Tables_number   1
_chemical_formula_structural   Tm8TiRe11Si16
_chemical_formula_sum   'Tm8 Ti1 Re11 Si16'
_cell_volume   582.46263178
_cell_formula_units_Z   1
loop_
 _symmetry_equiv_pos_site_id
 _symmetry_equiv_pos_as_xyz
  1  'x, y, z'
loop_
 _atom_site_type_symbol
 _atom_site_label
 _atom_site_symmetry_multiplicity
 _atom_site_fract_x
 _atom_site_fract_y
 _atom_site_fract_z
 _atom_site_occupancy
  Tm  Tm0  1  0.015368  0.665974  0.032182  1
  Tm  Tm1  1  0.988129  0.328106  0.532533  1
  Tm  Tm2  1  0.328106  0.988129  0.467467  1
  Tm  Tm3  1  0.158116  0.491724  0.781306  1
  Tm  Tm4  1  0.838713  0.502855  0.276105  1
  Tm  Tm5  1  0.491724  0.158116  0.218694  1
  Tm  Tm6  1  0.502855  0.838713  0.723895  1
  Tm  Tm7  1  0.665974  0.015368  0.967818  1
  Ti  Ti8  1  0.658996  0.658996  0.500000  1
  Re  Re9  1  0.162329  0.832269  0.251837  1
  Re  Re10  1  0.340429  0.340429  0.000000  1
  Re  Re11  1  0.991743  0.811482  0.622260  1
  Re  Re12  1  0.990560  0.190219  0.130578  1
  Re  Re13  1  0.811482  0.991743  0.377740  1
  Re  Re14  1  0.320841  0.478935  0.384375  1
  Re  Re15  1  0.700104  0.526872  0.886464  1
  Re  Re16  1  0.478935  0.320841  0.615625  1
  Re  Re17  1  0.526872  0.700104  0.113536  1
  Re  Re18  1  0.190219  0.990560  0.869422  1
  Re  Re19  1  0.832269  0.162329  0.748163  1
  Si  Si20  1  0.026463  0.701860  0.433535  1
  Si  Si21  1  0.620993  0.291937  0.431346  1
  Si  Si22  1  0.389356  0.698895  0.930581  1
  Si  Si23  1  0.190638  0.111178  0.683156  1
  Si  Si24  1  0.291937  0.620993  0.568654  1
  Si  Si25  1  0.698895  0.389356  0.069419  1
  Si  Si26  1  0.809862  0.891039  0.184328  1
  Si  Si27  1  0.111178  0.190638  0.316844  1
  Si  Si28  1  0.984563  0.280691  0.941335  1
  Si  Si29  1  0.701860  0.026463  0.566465  1
  Si  Si30  1  0.241295  0.484608  0.189680  1
  Si  Si31  1  0.766563  0.516295  0.694202  1
  Si  Si32  1  0.484608  0.241295  0.810320  1
  Si  Si33  1  0.516295  0.766563  0.305798  1
  Si  Si34  1  0.280691  0.984563  0.058665  1
  Si  Si35  1  0.891039  0.809862  0.815672  1
