# generated using pymatgen
data_Mn6Fe2TcW3
_symmetry_space_group_name_H-M   'P 1'
_cell_length_a   4.66490800
_cell_length_b   4.66490764
_cell_length_c   7.78812700
_cell_angle_alpha   90.00000000
_cell_angle_beta   90.00000000
_cell_angle_gamma   119.99998835
_symmetry_Int_Tables_number   1
_chemical_formula_structural   Mn6Fe2TcW3
_chemical_formula_sum   'Mn6 Fe2 Tc1 W3'
_cell_volume   146.77424013
_cell_formula_units_Z   1
loop_
 _symmetry_equiv_pos_site_id
 _symmetry_equiv_pos_as_xyz
  1  'x, y, z'
loop_
 _atom_site_type_symbol
 _atom_site_label
 _atom_site_symmetry_multiplicity
 _atom_site_fract_x
 _atom_site_fract_y
 _atom_site_fract_z
 _atom_site_occupancy
  Mn  Mn0  1  0.172977  0.827023  0.249651  1
  Mn  Mn1  1  0.346199  0.173100  0.751373  1
  Mn  Mn2  1  0.826900  0.653801  0.751373  1
  Mn  Mn3  1  0.172977  0.345953  0.249651  1
  Mn  Mn4  1  0.654047  0.827023  0.249651  1
  Mn  Mn5  1  0.826900  0.173100  0.751373  1
  Fe  Fe6  1  0.000000  0.000000  0.999591  1
  Fe  Fe7  1  0.000000  0.000000  0.500947  1
  Tc  Tc8  1  0.333333  0.666667  0.930643  1
  W  W9  1  0.666667  0.333333  0.434712  1
  W  W10  1  0.666667  0.333333  0.062634  1
  W  W11  1  0.333333  0.666667  0.568400  1
