# generated using pymatgen
data_TcMoOsRu5
_symmetry_space_group_name_H-M   'P 1'
_cell_length_a   5.51290900
_cell_length_b   5.50173504
_cell_length_c   4.35074800
_cell_angle_alpha   90.00000000
_cell_angle_beta   90.00000000
_cell_angle_gamma   120.06721337
_symmetry_Int_Tables_number   1
_chemical_formula_structural   TcMoOsRu5
_chemical_formula_sum   'Tc1 Mo1 Os1 Ru5'
_cell_volume   114.20378957
_cell_formula_units_Z   1
loop_
 _symmetry_equiv_pos_site_id
 _symmetry_equiv_pos_as_xyz
  1  'x, y, z'
loop_
 _atom_site_type_symbol
 _atom_site_label
 _atom_site_symmetry_multiplicity
 _atom_site_fract_x
 _atom_site_fract_y
 _atom_site_fract_z
 _atom_site_occupancy
  Tc  Tc0  1  0.666669  0.333338  0.250000  1
  Mo  Mo1  1  0.332215  0.664432  0.750000  1
  Os  Os2  1  0.832353  0.664705  0.750000  1
  Ru  Ru3  1  0.166131  0.332262  0.250000  1
  Ru  Ru4  1  0.667856  0.833336  0.250000  1
  Ru  Ru5  1  0.165479  0.833336  0.250000  1
  Ru  Ru6  1  0.334969  0.169296  0.750000  1
  Ru  Ru7  1  0.834328  0.169296  0.750000  1
