# generated using pymatgen
data_Na20Hf2SiSnP12
_symmetry_space_group_name_H-M   'P 1'
_cell_length_a   7.43647462
_cell_length_b   8.21607134
_cell_length_c   15.77496471
_cell_angle_alpha   57.79876827
_cell_angle_beta   89.65560418
_cell_angle_gamma   89.93778811
_symmetry_Int_Tables_number   1
_chemical_formula_structural   Na20Hf2SiSnP12
_chemical_formula_sum   'Na20 Hf2 Si1 Sn1 P12'
_cell_volume   815.55663747
_cell_formula_units_Z   1
loop_
 _symmetry_equiv_pos_site_id
 _symmetry_equiv_pos_as_xyz
  1  'x, y, z'
loop_
 _atom_site_type_symbol
 _atom_site_label
 _atom_site_symmetry_multiplicity
 _atom_site_fract_x
 _atom_site_fract_y
 _atom_site_fract_z
 _atom_site_occupancy
  Na  Na0  1  0.493698  0.088696  0.238510  1
  Na  Na1  1  0.987968  0.912571  0.262372  1
  Na  Na2  1  0.508796  0.929533  0.753239  1
  Na  Na3  1  0.015121  0.089014  0.738089  1
  Na  Na4  1  0.040006  0.409458  0.415494  1
  Na  Na5  1  0.538483  0.588969  0.087143  1
  Na  Na6  1  0.968852  0.580898  0.584687  1
  Na  Na7  1  0.473410  0.411278  0.914263  1
  Na  Na8  1  0.513170  0.255741  0.410695  1
  Na  Na9  1  0.015027  0.746437  0.092583  1
  Na  Na10  1  0.479489  0.745938  0.590784  1
  Na  Na11  1  0.976653  0.251321  0.908793  1
  Na  Na12  1  0.657180  0.990134  0.084366  1
  Na  Na13  1  0.161397  0.005002  0.420245  1
  Na  Na14  1  0.339623  0.008166  0.915629  1
  Na  Na15  1  0.840214  0.999527  0.580669  1
  Na  Na16  1  0.851351  0.316048  0.262090  1
  Na  Na17  1  0.350347  0.680148  0.242521  1
  Na  Na18  1  0.153336  0.688551  0.738066  1
  Na  Na19  1  0.644158  0.314791  0.756260  1
  Hf  Hf20  1  0.632831  0.646652  0.421179  1
  Hf  Hf21  1  0.139280  0.347493  0.081929  1
  Si  Si22  1  0.362621  0.347951  0.582529  1
  Sn  Sn23  1  0.860575  0.658040  0.913828  1
  P  P24  1  0.680012  0.321845  0.577202  1
  P  P25  1  0.212719  0.668393  0.924456  1
  P  P26  1  0.294983  0.646162  0.437498  1
  P  P27  1  0.797757  0.327921  0.077032  1
  P  P28  1  0.759893  0.928486  0.423188  1
  P  P29  1  0.260947  0.065178  0.079137  1
  P  P30  1  0.243724  0.090964  0.579959  1
  P  P31  1  0.739536  0.939295  0.920334  1
  P  P32  1  0.735317  0.637888  0.272076  1
  P  P33  1  0.235687  0.357025  0.230954  1
  P  P34  1  0.270917  0.368454  0.715484  1
  P  P35  1  0.764923  0.636032  0.766719  1
