# generated using pymatgen
data_La2Sn8PdRh3
_symmetry_space_group_name_H-M   'P 1'
_cell_length_a   4.60690800
_cell_length_b   7.25188200
_cell_length_c   18.93108600
_cell_angle_alpha   90.00000000
_cell_angle_beta   90.00000000
_cell_angle_gamma   90.00000000
_symmetry_Int_Tables_number   1
_chemical_formula_structural   La2Sn8PdRh3
_chemical_formula_sum   'La4 Sn16 Pd2 Rh6'
_cell_volume   632.46398000
_cell_formula_units_Z   2
loop_
 _symmetry_equiv_pos_site_id
 _symmetry_equiv_pos_as_xyz
  1  'x, y, z'
loop_
 _atom_site_type_symbol
 _atom_site_label
 _atom_site_symmetry_multiplicity
 _atom_site_fract_x
 _atom_site_fract_y
 _atom_site_fract_z
 _atom_site_occupancy
  La  La0  1  0.250000  0.998209  0.857764  1
  La  La1  1  0.250000  0.501791  0.357764  1
  La  La2  1  0.750000  0.003397  0.141583  1
  La  La3  1  0.750000  0.496603  0.641583  1
  Sn  Sn4  1  0.250000  0.303137  0.184159  1
  Sn  Sn5  1  0.250000  0.196863  0.684159  1
  Sn  Sn6  1  0.750000  0.697595  0.817797  1
  Sn  Sn7  1  0.750000  0.802405  0.317797  1
  Sn  Sn8  1  0.250000  0.721416  0.195384  1
  Sn  Sn9  1  0.250000  0.778584  0.695384  1
  Sn  Sn10  1  0.750000  0.279436  0.804543  1
  Sn  Sn11  1  0.750000  0.220564  0.304543  1
  Sn  Sn12  1  0.250000  0.857307  0.031120  1
  Sn  Sn13  1  0.250000  0.642693  0.531120  1
  Sn  Sn14  1  0.750000  0.134184  0.968082  1
  Sn  Sn15  1  0.750000  0.365816  0.468082  1
  Sn  Sn16  1  0.250000  0.521084  0.930072  1
  Sn  Sn17  1  0.250000  0.978916  0.430072  1
  Sn  Sn18  1  0.750000  0.487742  0.069158  1
  Sn  Sn19  1  0.750000  0.012258  0.569158  1
  Pd  Pd20  1  0.250000  0.249890  0.033902  1
  Pd  Pd21  1  0.250000  0.250110  0.533902  1
  Rh  Rh22  1  0.750000  0.749523  0.966324  1
  Rh  Rh23  1  0.750000  0.750477  0.466324  1
  Rh  Rh24  1  0.250000  0.015497  0.287929  1
  Rh  Rh25  1  0.250000  0.484503  0.787929  1
  Rh  Rh26  1  0.750000  0.982501  0.712182  1
  Rh  Rh27  1  0.750000  0.517499  0.212182  1
