# generated using pymatgen
data_ErMnNbB2Ru5
_symmetry_space_group_name_H-M   'P 1'
_cell_length_a   9.40648553
_cell_length_b   9.40648420
_cell_length_c   3.05125100
_cell_angle_alpha   90.00000000
_cell_angle_beta   90.00000000
_cell_angle_gamma   89.20734323
_symmetry_Int_Tables_number   1
_chemical_formula_structural   ErMnNbB2Ru5
_chemical_formula_sum   'Er2 Mn2 Nb2 B4 Ru10'
_cell_volume   269.95482576
_cell_formula_units_Z   2
loop_
 _symmetry_equiv_pos_site_id
 _symmetry_equiv_pos_as_xyz
  1  'x, y, z'
loop_
 _atom_site_type_symbol
 _atom_site_label
 _atom_site_symmetry_multiplicity
 _atom_site_fract_x
 _atom_site_fract_y
 _atom_site_fract_z
 _atom_site_occupancy
  Er  Er0  1  0.176925  0.176925  0.000000  1
  Er  Er1  1  0.823075  0.823075  0.000000  1
  Mn  Mn2  1  0.500000  0.000000  0.000000  1
  Mn  Mn3  1  0.000000  0.500000  0.000000  1
  Nb  Nb4  1  0.675796  0.324204  0.000000  1
  Nb  Nb5  1  0.324204  0.675796  0.000000  1
  B  B6  1  0.377105  0.377105  0.000000  1
  B  B7  1  0.622895  0.622895  0.000000  1
  B  B8  1  0.876181  0.123819  0.000000  1
  B  B9  1  0.123819  0.876181  0.000000  1
  Ru  Ru10  1  0.500000  0.500000  0.500000  1
  Ru  Ru11  1  0.000000  0.000000  0.500000  1
  Ru  Ru12  1  0.440548  0.218589  0.500000  1
  Ru  Ru13  1  0.559452  0.781411  0.500000  1
  Ru  Ru14  1  0.919414  0.289057  0.500000  1
  Ru  Ru15  1  0.080586  0.710943  0.500000  1
  Ru  Ru16  1  0.710943  0.080586  0.500000  1
  Ru  Ru17  1  0.289057  0.919414  0.500000  1
  Ru  Ru18  1  0.781411  0.559452  0.500000  1
  Ru  Ru19  1  0.218589  0.440548  0.500000  1
