# generated using pymatgen
data_Er2Mn4Fe8P7
_symmetry_space_group_name_H-M   'P 1'
_cell_length_a   9.04614934
_cell_length_b   9.14849545
_cell_length_c   3.59639100
_cell_angle_alpha   90.00000000
_cell_angle_beta   90.00000000
_cell_angle_gamma   120.15874602
_symmetry_Int_Tables_number   1
_chemical_formula_structural   Er2Mn4Fe8P7
_chemical_formula_sum   'Er2 Mn4 Fe8 P7'
_cell_volume   257.34398847
_cell_formula_units_Z   1
loop_
 _symmetry_equiv_pos_site_id
 _symmetry_equiv_pos_as_xyz
  1  'x, y, z'
loop_
 _atom_site_type_symbol
 _atom_site_label
 _atom_site_symmetry_multiplicity
 _atom_site_fract_x
 _atom_site_fract_y
 _atom_site_fract_z
 _atom_site_occupancy
  Er  Er0  1  0.335633  0.672946  0.000000  1
  Er  Er1  1  0.998293  0.994903  0.500000  1
  Mn  Mn2  1  0.276198  0.380866  0.500000  1
  Mn  Mn3  1  0.790706  0.225988  0.500000  1
  Mn  Mn4  1  0.769766  0.557910  0.500000  1
  Mn  Mn5  1  0.439044  0.209432  0.500000  1
  Fe  Fe6  1  0.043735  0.280753  0.000000  1
  Fe  Fe7  1  0.724861  0.760502  0.000000  1
  Fe  Fe8  1  0.240029  0.961004  0.000000  1
  Fe  Fe9  1  0.548957  0.061596  0.000000  1
  Fe  Fe10  1  0.938721  0.487045  0.000000  1
  Fe  Fe11  1  0.507117  0.452557  0.000000  1
  Fe  Fe12  1  0.617355  0.899180  0.500000  1
  Fe  Fe13  1  0.102881  0.721137  0.500000  1
  P  P14  1  0.777715  0.030637  0.000000  1
  P  P15  1  0.967931  0.745157  0.000000  1
  P  P16  1  0.253804  0.209159  0.000000  1
  P  P17  1  0.379314  0.927358  0.500000  1
  P  P18  1  0.071479  0.460827  0.500000  1
  P  P19  1  0.552070  0.627836  0.500000  1
  P  P20  1  0.664391  0.333210  0.000000  1
