# generated using pymatgen
data_Yb10Pd3Au5
_symmetry_space_group_name_H-M   'P 1'
_cell_length_a   7.66245165
_cell_length_b   7.72740354
_cell_length_c   15.04035700
_cell_angle_alpha   90.00000000
_cell_angle_beta   90.00000000
_cell_angle_gamma   89.65390465
_symmetry_Int_Tables_number   1
_chemical_formula_structural   Yb10Pd3Au5
_chemical_formula_sum   'Yb20 Pd6 Au10'
_cell_volume   890.53616627
_cell_formula_units_Z   2
loop_
 _symmetry_equiv_pos_site_id
 _symmetry_equiv_pos_as_xyz
  1  'x, y, z'
loop_
 _atom_site_type_symbol
 _atom_site_label
 _atom_site_symmetry_multiplicity
 _atom_site_fract_x
 _atom_site_fract_y
 _atom_site_fract_z
 _atom_site_occupancy
  Yb  Yb0  1  0.028828  0.177873  0.397938  1
  Yb  Yb1  1  0.862788  0.658904  0.376341  1
  Yb  Yb2  1  0.529543  0.325654  0.104046  1
  Yb  Yb3  1  0.137212  0.341096  0.623659  1
  Yb  Yb4  1  0.372826  0.836639  0.377377  1
  Yb  Yb5  1  0.137212  0.341096  0.876341  1
  Yb  Yb6  1  0.372826  0.836639  0.122623  1
  Yb  Yb7  1  0.207042  0.490796  0.250000  1
  Yb  Yb8  1  0.529543  0.325654  0.395954  1
  Yb  Yb9  1  0.792958  0.509204  0.750000  1
  Yb  Yb10  1  0.971172  0.822127  0.897938  1
  Yb  Yb11  1  0.971172  0.822127  0.602062  1
  Yb  Yb12  1  0.470457  0.674346  0.604046  1
  Yb  Yb13  1  0.627174  0.163361  0.622623  1
  Yb  Yb14  1  0.297100  0.991039  0.750000  1
  Yb  Yb15  1  0.627174  0.163361  0.877377  1
  Yb  Yb16  1  0.702900  0.008961  0.250000  1
  Yb  Yb17  1  0.862788  0.658904  0.123659  1
  Yb  Yb18  1  0.470457  0.674346  0.895954  1
  Yb  Yb19  1  0.028828  0.177873  0.102062  1
  Pd  Pd20  1  0.831067  0.360892  0.250000  1
  Pd  Pd21  1  0.429410  0.384229  0.750000  1
  Pd  Pd22  1  0.666075  0.860894  0.750000  1
  Pd  Pd23  1  0.168933  0.639108  0.750000  1
  Pd  Pd24  1  0.333925  0.139106  0.250000  1
  Pd  Pd25  1  0.570590  0.615771  0.250000  1
  Au  Au26  1  0.797655  0.474312  0.546258  1
  Au  Au27  1  0.704654  0.975966  0.046004  1
  Au  Au28  1  0.797655  0.474312  0.953742  1
  Au  Au29  1  0.202345  0.525688  0.453742  1
  Au  Au30  1  0.202345  0.525688  0.046258  1
  Au  Au31  1  0.072745  0.884055  0.250000  1
  Au  Au32  1  0.295346  0.024034  0.953996  1
  Au  Au33  1  0.927255  0.115945  0.750000  1
  Au  Au34  1  0.704654  0.975966  0.453996  1
  Au  Au35  1  0.295346  0.024034  0.546004  1
