# generated using pymatgen
data_SrPr(Sn2Ir)2
_symmetry_space_group_name_H-M   'P 1'
_cell_length_a   8.98313919
_cell_length_b   8.98314042
_cell_length_c   9.71876000
_cell_angle_alpha   90.00000000
_cell_angle_beta   90.00000000
_cell_angle_gamma   149.19468987
_symmetry_Int_Tables_number   1
_chemical_formula_structural   SrPr(Sn2Ir)2
_chemical_formula_sum   'Sr2 Pr2 Sn8 Ir4'
_cell_volume   401.64374400
_cell_formula_units_Z   2
loop_
 _symmetry_equiv_pos_site_id
 _symmetry_equiv_pos_as_xyz
  1  'x, y, z'
loop_
 _atom_site_type_symbol
 _atom_site_label
 _atom_site_symmetry_multiplicity
 _atom_site_fract_x
 _atom_site_fract_y
 _atom_site_fract_z
 _atom_site_occupancy
  Sr  Sr0  1  0.500000  0.500000  0.500000  1
  Sr  Sr1  1  0.500000  0.500000  0.000000  1
  Pr  Pr2  1  0.296823  0.703177  0.250000  1
  Pr  Pr3  1  0.703177  0.296823  0.750000  1
  Sn  Sn4  1  0.907389  0.092611  0.750000  1
  Sn  Sn5  1  0.922366  0.077634  0.250000  1
  Sn  Sn6  1  0.092611  0.907389  0.250000  1
  Sn  Sn7  1  0.077634  0.922366  0.750000  1
  Sn  Sn8  1  0.698182  0.301818  0.410953  1
  Sn  Sn9  1  0.301818  0.698182  0.589047  1
  Sn  Sn10  1  0.301818  0.698182  0.910953  1
  Sn  Sn11  1  0.698182  0.301818  0.089047  1
  Ir  Ir12  1  0.150387  0.849613  0.503526  1
  Ir  Ir13  1  0.849613  0.150387  0.003526  1
  Ir  Ir14  1  0.150387  0.849613  0.996474  1
  Ir  Ir15  1  0.849613  0.150387  0.496474  1
