# generated using pymatgen
data_LiDy2(ErSn2)2
_symmetry_space_group_name_H-M   'P 1'
_cell_length_a   7.64822900
_cell_length_b   8.21365300
_cell_length_c   15.21457200
_cell_angle_alpha   90.00000000
_cell_angle_beta   90.00000000
_cell_angle_gamma   90.00000000
_symmetry_Int_Tables_number   1
_chemical_formula_structural   LiDy2(ErSn2)2
_chemical_formula_sum   'Li4 Dy8 Er8 Sn16'
_cell_volume   955.77787744
_cell_formula_units_Z   4
loop_
 _symmetry_equiv_pos_site_id
 _symmetry_equiv_pos_as_xyz
  1  'x, y, z'
loop_
 _atom_site_type_symbol
 _atom_site_label
 _atom_site_symmetry_multiplicity
 _atom_site_fract_x
 _atom_site_fract_y
 _atom_site_fract_z
 _atom_site_occupancy
  Li  Li0  1  0.161566  0.507906  0.750000  1
  Li  Li1  1  0.838434  0.492094  0.250000  1
  Li  Li2  1  0.338434  0.007906  0.250000  1
  Li  Li3  1  0.661566  0.992094  0.750000  1
  Dy  Dy4  1  0.000127  0.186085  0.091827  1
  Dy  Dy5  1  0.999873  0.813915  0.908173  1
  Dy  Dy6  1  0.499873  0.686085  0.908173  1
  Dy  Dy7  1  0.999873  0.813915  0.591827  1
  Dy  Dy8  1  0.500127  0.313915  0.091827  1
  Dy  Dy9  1  0.000127  0.186085  0.408173  1
  Dy  Dy10  1  0.500127  0.313915  0.408173  1
  Dy  Dy11  1  0.499873  0.686085  0.591827  1
  Er  Er12  1  0.335107  0.167747  0.628791  1
  Er  Er13  1  0.664893  0.832253  0.371209  1
  Er  Er14  1  0.164893  0.667747  0.371209  1
  Er  Er15  1  0.664893  0.832253  0.128791  1
  Er  Er16  1  0.835107  0.332253  0.628791  1
  Er  Er17  1  0.335107  0.167747  0.871209  1
  Er  Er18  1  0.835107  0.332253  0.871209  1
  Er  Er19  1  0.164893  0.667747  0.128791  1
  Sn  Sn20  1  0.018847  0.090922  0.750000  1
  Sn  Sn21  1  0.981153  0.909078  0.250000  1
  Sn  Sn22  1  0.481153  0.590922  0.250000  1
  Sn  Sn23  1  0.518847  0.409078  0.750000  1
  Sn  Sn24  1  0.180193  0.462364  0.540376  1
  Sn  Sn25  1  0.819807  0.537636  0.459624  1
  Sn  Sn26  1  0.319807  0.962364  0.459624  1
  Sn  Sn27  1  0.819807  0.537636  0.040376  1
  Sn  Sn28  1  0.680193  0.037636  0.540376  1
  Sn  Sn29  1  0.180193  0.462364  0.959624  1
  Sn  Sn30  1  0.680193  0.037636  0.959624  1
  Sn  Sn31  1  0.319807  0.962364  0.040376  1
  Sn  Sn32  1  0.300683  0.849730  0.750000  1
  Sn  Sn33  1  0.699317  0.150270  0.250000  1
  Sn  Sn34  1  0.199317  0.349730  0.250000  1
  Sn  Sn35  1  0.800683  0.650270  0.750000  1
