# generated using pymatgen
data_Er5Cr2P12IrRh16
_symmetry_space_group_name_H-M   'P 1'
_cell_length_a   12.57808172
_cell_length_b   12.64459259
_cell_length_c   3.92235100
_cell_angle_alpha   90.00000000
_cell_angle_beta   90.00000000
_cell_angle_gamma   120.17507882
_symmetry_Int_Tables_number   1
_chemical_formula_structural   Er5Cr2P12IrRh16
_chemical_formula_sum   'Er5 Cr2 P12 Ir1 Rh16'
_cell_volume   539.29630678
_cell_formula_units_Z   1
loop_
 _symmetry_equiv_pos_site_id
 _symmetry_equiv_pos_as_xyz
  1  'x, y, z'
loop_
 _atom_site_type_symbol
 _atom_site_label
 _atom_site_symmetry_multiplicity
 _atom_site_fract_x
 _atom_site_fract_y
 _atom_site_fract_z
 _atom_site_occupancy
  Er  Er0  1  0.665503  0.329899  0.000000  1
  Er  Er1  1  0.334497  0.664397  0.000000  1
  Er  Er2  1  0.812346  0.817656  0.500000  1
  Er  Er3  1  0.187654  0.005310  0.500000  1
  Er  Er4  1  0.000000  0.183203  0.500000  1
  Cr  Cr5  1  0.286560  0.287561  0.500000  1
  Cr  Cr6  1  0.713440  0.001001  0.500000  1
  P  P7  1  0.685565  0.162890  0.500000  1
  P  P8  1  0.830910  0.516099  0.500000  1
  P  P9  1  0.476519  0.313488  0.500000  1
  P  P10  1  0.169090  0.685189  0.500000  1
  P  P11  1  0.523481  0.836969  0.500000  1
  P  P12  1  0.314435  0.477325  0.500000  1
  P  P13  1  0.635847  0.637799  0.000000  1
  P  P14  1  0.364153  0.001953  0.000000  1
  P  P15  1  0.000000  0.361877  0.000000  1
  P  P16  1  0.182418  0.183805  0.000000  1
  P  P17  1  0.817582  0.001387  0.000000  1
  P  P18  1  0.000000  0.820287  0.000000  1
  Ir  Ir19  1  0.000000  0.997870  0.000000  1
  Rh  Rh20  1  0.805422  0.181080  0.000000  1
  Rh  Rh21  1  0.819382  0.624848  0.000000  1
  Rh  Rh22  1  0.375908  0.196184  0.000000  1
  Rh  Rh23  1  0.180618  0.805465  0.000000  1
  Rh  Rh24  1  0.624092  0.820276  0.000000  1
  Rh  Rh25  1  0.194578  0.375659  0.000000  1
  Rh  Rh26  1  0.450977  0.451173  0.000000  1
  Rh  Rh27  1  0.549023  0.000196  0.000000  1
  Rh  Rh28  1  0.000000  0.544001  0.000000  1
  Rh  Rh29  1  0.000000  0.719662  0.500000  1
  Rh  Rh30  1  0.869791  0.358819  0.500000  1
  Rh  Rh31  1  0.640917  0.508645  0.500000  1
  Rh  Rh32  1  0.487996  0.129635  0.500000  1
  Rh  Rh33  1  0.359083  0.867726  0.500000  1
  Rh  Rh34  1  0.512004  0.641639  0.500000  1
  Rh  Rh35  1  0.130209  0.489027  0.500000  1
