# generated using pymatgen
data_Ho3Er2RuRh
_symmetry_space_group_name_H-M   'P 1'
_cell_length_a   6.35370764
_cell_length_b   7.22322066
_cell_length_c   8.47667872
_cell_angle_alpha   96.68941202
_cell_angle_beta   112.01045125
_cell_angle_gamma   89.99999688
_symmetry_Int_Tables_number   1
_chemical_formula_structural   Ho3Er2RuRh
_chemical_formula_sum   'Ho6 Er4 Ru2 Rh2'
_cell_volume   357.81810761
_cell_formula_units_Z   2
loop_
 _symmetry_equiv_pos_site_id
 _symmetry_equiv_pos_as_xyz
  1  'x, y, z'
loop_
 _atom_site_type_symbol
 _atom_site_label
 _atom_site_symmetry_multiplicity
 _atom_site_fract_x
 _atom_site_fract_y
 _atom_site_fract_z
 _atom_site_occupancy
  Ho  Ho0  1  0.792368  0.581888  0.811839  1
  Ho  Ho1  1  0.980529  0.918112  0.188161  1
  Ho  Ho2  1  0.209575  0.414747  0.185443  1
  Ho  Ho3  1  0.024131  0.085253  0.814557  1
  Ho  Ho4  1  0.207671  0.683844  0.565274  1
  Ho  Ho5  1  0.642398  0.816156  0.434726  1
  Er  Er6  1  0.792017  0.312503  0.436870  1
  Er  Er7  1  0.355147  0.187497  0.563130  1
  Er  Er8  1  0.421066  0.750000  0.000000  1
  Er  Er9  1  0.577068  0.250000  0.000000  1
  Ru  Ru10  1  0.397327  0.074809  0.220561  1
  Ru  Ru11  1  0.176767  0.425191  0.779439  1
  Rh  Rh12  1  0.601442  0.924307  0.778945  1
  Rh  Rh13  1  0.822496  0.575693  0.221055  1
