# generated using pymatgen
data_Tb5Dy7Co4SnRu
_symmetry_space_group_name_H-M   'P 1'
_cell_length_a   8.31579143
_cell_length_b   8.31610088
_cell_length_c   8.31577806
_cell_angle_alpha   106.65033112
_cell_angle_beta   110.58609931
_cell_angle_gamma   111.21253856
_symmetry_Int_Tables_number   1
_chemical_formula_structural   Tb5Dy7Co4SnRu
_chemical_formula_sum   'Tb5 Dy7 Co4 Sn1 Ru1'
_cell_volume   441.89019196
_cell_formula_units_Z   1
loop_
 _symmetry_equiv_pos_site_id
 _symmetry_equiv_pos_as_xyz
  1  'x, y, z'
loop_
 _atom_site_type_symbol
 _atom_site_label
 _atom_site_symmetry_multiplicity
 _atom_site_fract_x
 _atom_site_fract_y
 _atom_site_fract_z
 _atom_site_occupancy
  Tb  Tb0  1  0.473337  0.288191  0.184882  1
  Tb  Tb1  1  0.103309  0.288191  0.814855  1
  Tb  Tb2  1  0.896494  0.711713  0.184896  1
  Tb  Tb3  1  0.526817  0.711713  0.815220  1
  Tb  Tb4  1  0.305981  0.618982  0.313001  1
  Dy  Dy5  1  0.306271  0.993283  0.687011  1
  Dy  Dy6  1  0.693752  0.380600  0.686849  1
  Dy  Dy7  1  0.693927  0.007088  0.313163  1
  Dy  Dy8  1  0.193705  0.212979  0.406853  1
  Dy  Dy9  1  0.806454  0.786977  0.593241  1
  Dy  Dy10  1  0.193736  0.786977  0.980520  1
  Dy  Dy11  1  0.806125  0.212979  0.019276  1
  Co  Co12  1  0.500092  0.611517  0.111425  1
  Co  Co13  1  0.499962  0.388395  0.888433  1
  Co  Co14  1  0.379011  0.000243  0.379065  1
  Co  Co15  1  0.621178  0.000244  0.621232  1
  Sn  Sn16  1  0.999883  0.499942  0.500059  1
  Ru  Ru17  1  0.999966  0.999986  0.000020  1
