# generated using pymatgen
data_CsTbThS4
_symmetry_space_group_name_H-M   'P 1'
_cell_length_a   4.08669400
_cell_length_b   6.90484582
_cell_length_c   8.60527600
_cell_angle_alpha   74.78686808
_cell_angle_beta   90.00000000
_cell_angle_gamma   90.00000000
_symmetry_Int_Tables_number   1
_chemical_formula_structural   CsTbThS4
_chemical_formula_sum   'Cs1 Tb1 Th1 S4'
_cell_volume   234.31418995
_cell_formula_units_Z   1
loop_
 _symmetry_equiv_pos_site_id
 _symmetry_equiv_pos_as_xyz
  1  'x, y, z'
loop_
 _atom_site_type_symbol
 _atom_site_label
 _atom_site_symmetry_multiplicity
 _atom_site_fract_x
 _atom_site_fract_y
 _atom_site_fract_z
 _atom_site_occupancy
  Cs  Cs0  1  0.000000  0.500000  0.500000  1
  Tb  Tb1  1  0.500000  0.500000  0.000000  1
  Th  Th2  1  0.000000  0.000000  0.000000  1
  S  S3  1  0.500000  0.773557  0.182819  1
  S  S4  1  0.000000  0.278084  0.176150  1
  S  S5  1  0.500000  0.226443  0.817181  1
  S  S6  1  0.000000  0.721916  0.823850  1
