# generated using pymatgen
data_Cs2TbU(CuSe3)2
_symmetry_space_group_name_H-M   'P 1'
_cell_length_a   4.11953000
_cell_length_b   8.33407338
_cell_length_c   10.70512333
_cell_angle_alpha   89.64553189
_cell_angle_beta   90.00000000
_cell_angle_gamma   75.69108104
_symmetry_Int_Tables_number   1
_chemical_formula_structural   Cs2TbU(CuSe3)2
_chemical_formula_sum   'Cs2 Tb1 U1 Cu2 Se6'
_cell_volume   356.12413101
_cell_formula_units_Z   1
loop_
 _symmetry_equiv_pos_site_id
 _symmetry_equiv_pos_as_xyz
  1  'x, y, z'
loop_
 _atom_site_type_symbol
 _atom_site_label
 _atom_site_symmetry_multiplicity
 _atom_site_fract_x
 _atom_site_fract_y
 _atom_site_fract_z
 _atom_site_occupancy
  Cs  Cs0  1  0.743567  0.512868  0.235346  1
  Cs  Cs1  1  0.256435  0.487132  0.764654  1
  Tb  Tb2  1  0.000000  0.000000  0.000000  1
  U  U3  1  0.000000  0.000000  0.500000  1
  Cu  Cu4  1  0.465219  0.069565  0.253450  1
  Cu  Cu5  1  0.534782  0.930434  0.746550  1
  Se  Se6  1  0.383650  0.232703  0.061141  1
  Se  Se7  1  0.054832  0.890337  0.260435  1
  Se  Se8  1  0.386268  0.227466  0.445460  1
  Se  Se9  1  0.613733  0.772534  0.554541  1
  Se  Se10  1  0.945169  0.109663  0.739565  1
  Se  Se11  1  0.616351  0.767297  0.938860  1
