# generated using pymatgen
data_TbDy11(TmRh3)2
_symmetry_space_group_name_H-M   'P 1'
_cell_length_a   9.79984100
_cell_length_b   9.79862602
_cell_length_c   6.17497100
_cell_angle_alpha   90.00093383
_cell_angle_beta   90.00000000
_cell_angle_gamma   120.00410519
_symmetry_Int_Tables_number   1
_chemical_formula_structural   TbDy11(TmRh3)2
_chemical_formula_sum   'Tb1 Dy11 Tm2 Rh6'
_cell_volume   513.48977375
_cell_formula_units_Z   1
loop_
 _symmetry_equiv_pos_site_id
 _symmetry_equiv_pos_as_xyz
  1  'x, y, z'
loop_
 _atom_site_type_symbol
 _atom_site_label
 _atom_site_symmetry_multiplicity
 _atom_site_fract_x
 _atom_site_fract_y
 _atom_site_fract_z
 _atom_site_occupancy
  Tb  Tb0  1  0.875881  0.751761  0.741383  1
  Dy  Dy1  1  0.248345  0.124220  0.741231  1
  Dy  Dy2  1  0.875876  0.124220  0.741231  1
  Dy  Dy3  1  0.124128  0.248257  0.241225  1
  Dy  Dy4  1  0.751698  0.875896  0.241224  1
  Dy  Dy5  1  0.124197  0.875896  0.241224  1
  Dy  Dy6  1  0.459031  0.918063  0.547698  1
  Dy  Dy7  1  0.081958  0.540926  0.547742  1
  Dy  Dy8  1  0.458968  0.540926  0.547742  1
  Dy  Dy9  1  0.540962  0.081924  0.047745  1
  Dy  Dy10  1  0.918061  0.458975  0.047805  1
  Dy  Dy11  1  0.540915  0.458975  0.047805  1
  Tm  Tm12  1  0.666642  0.333282  0.533381  1
  Tm  Tm13  1  0.333330  0.666661  0.033395  1
  Rh  Rh14  1  0.190343  0.380685  0.813463  1
  Rh  Rh15  1  0.619220  0.809704  0.813468  1
  Rh  Rh16  1  0.190485  0.809704  0.813468  1
  Rh  Rh17  1  0.809627  0.619254  0.313257  1
  Rh  Rh18  1  0.380684  0.190335  0.313477  1
  Rh  Rh19  1  0.809651  0.190335  0.313477  1
