# generated using pymatgen
data_Lu4Al24CuPd8
_symmetry_space_group_name_H-M   'P 1'
_cell_length_a   7.54821857
_cell_length_b   7.55342642
_cell_length_c   13.14824800
_cell_angle_alpha   84.51811239
_cell_angle_beta   100.93506785
_cell_angle_gamma   119.81147187
_symmetry_Int_Tables_number   1
_chemical_formula_structural   Lu4Al24CuPd8
_chemical_formula_sum   'Lu4 Al24 Cu1 Pd8'
_cell_volume   638.63160973
_cell_formula_units_Z   1
loop_
 _symmetry_equiv_pos_site_id
 _symmetry_equiv_pos_as_xyz
  1  'x, y, z'
loop_
 _atom_site_type_symbol
 _atom_site_label
 _atom_site_symmetry_multiplicity
 _atom_site_fract_x
 _atom_site_fract_y
 _atom_site_fract_z
 _atom_site_occupancy
  Lu  Lu0  1  0.437537  0.830375  0.807251  1
  Lu  Lu1  1  0.562305  0.168695  0.192538  1
  Lu  Lu2  1  0.766942  0.501564  0.806972  1
  Lu  Lu3  1  0.231780  0.498222  0.192707  1
  Al  Al4  1  0.482969  0.166332  0.943746  1
  Al  Al5  1  0.517031  0.833749  0.055911  1
  Al  Al6  1  0.020082  0.165332  0.562014  1
  Al  Al7  1  0.978231  0.833278  0.436719  1
  Al  Al8  1  0.353323  0.832493  0.560120  1
  Al  Al9  1  0.645513  0.166406  0.439678  1
  Al  Al10  1  0.615512  0.834504  0.327926  1
  Al  Al11  1  0.384626  0.168541  0.672281  1
  Al  Al12  1  0.060676  0.493962  0.672410  1
  Al  Al13  1  0.942371  0.505920  0.327697  1
  Al  Al14  1  0.728191  0.836736  0.671231  1
  Al  Al15  1  0.269208  0.160332  0.328801  1
  Al  Al16  1  0.147326  0.501619  0.943687  1
  Al  Al17  1  0.852274  0.498510  0.055925  1
  Al  Al18  1  0.815775  0.831685  0.953045  1
  Al  Al19  1  0.184572  0.168379  0.047508  1
  Al  Al20  1  0.313088  0.499670  0.441909  1
  Al  Al21  1  0.686381  0.499667  0.560068  1
  Al  Al22  1  0.104324  0.835838  0.184071  1
  Al  Al23  1  0.896520  0.164380  0.816163  1
  Al  Al24  1  0.310782  0.373078  0.813068  1
  Al  Al25  1  0.690490  0.629144  0.185188  1
  Al  Al26  1  0.103433  0.957435  0.815837  1
  Al  Al27  1  0.897527  0.043314  0.184146  1
  Cu  Cu28  1  0.390172  0.509374  0.639590  1
  Pd  Pd29  1  0.611017  0.491756  0.362486  1
  Pd  Pd30  1  0.171233  0.828554  0.999393  1
  Pd  Pd31  1  0.828746  0.171694  0.999952  1
  Pd  Pd32  1  0.295540  0.832278  0.362513  1
  Pd  Pd33  1  0.704648  0.166787  0.637973  1
  Pd  Pd34  1  0.046701  0.824558  0.637474  1
  Pd  Pd35  1  0.953680  0.176003  0.362571  1
  Pd  Pd36  1  0.499474  0.499838  0.999430  1
