# generated using pymatgen
data_Sr5TaN5
_symmetry_space_group_name_H-M   'P 1'
_cell_length_a   6.34948200
_cell_length_b   7.15109500
_cell_length_c   17.57930400
_cell_angle_alpha   90.00000000
_cell_angle_beta   90.00000000
_cell_angle_gamma   90.00000000
_symmetry_Int_Tables_number   1
_chemical_formula_structural   Sr5TaN5
_chemical_formula_sum   'Sr20 Ta4 N20'
_cell_volume   798.20146472
_cell_formula_units_Z   4
loop_
 _symmetry_equiv_pos_site_id
 _symmetry_equiv_pos_as_xyz
  1  'x, y, z'
loop_
 _atom_site_type_symbol
 _atom_site_label
 _atom_site_symmetry_multiplicity
 _atom_site_fract_x
 _atom_site_fract_y
 _atom_site_fract_z
 _atom_site_occupancy
  Sr  Sr0  1  0.535736  0.000000  0.250000  1
  Sr  Sr1  1  0.464264  0.500000  0.750000  1
  Sr  Sr2  1  0.464264  0.000000  0.750000  1
  Sr  Sr3  1  0.535736  0.500000  0.250000  1
  Sr  Sr4  1  0.999460  0.250000  0.735308  1
  Sr  Sr5  1  0.999460  0.750000  0.764692  1
  Sr  Sr6  1  0.314953  0.750000  0.920601  1
  Sr  Sr7  1  0.314953  0.250000  0.579399  1
  Sr  Sr8  1  0.685047  0.250000  0.079399  1
  Sr  Sr9  1  0.685047  0.750000  0.420601  1
  Sr  Sr10  1  0.792459  0.493954  0.577162  1
  Sr  Sr11  1  0.792459  0.506046  0.922838  1
  Sr  Sr12  1  0.207541  0.993954  0.422838  1
  Sr  Sr13  1  0.207541  0.006046  0.077162  1
  Sr  Sr14  1  0.207541  0.506046  0.422838  1
  Sr  Sr15  1  0.207541  0.493954  0.077162  1
  Sr  Sr16  1  0.792459  0.006046  0.577162  1
  Sr  Sr17  1  0.792459  0.993954  0.922838  1
  Sr  Sr18  1  0.000540  0.750000  0.264692  1
  Sr  Sr19  1  0.000540  0.250000  0.235308  1
  Ta  Ta20  1  0.226399  0.750000  0.593135  1
  Ta  Ta21  1  0.226399  0.250000  0.906865  1
  Ta  Ta22  1  0.773601  0.250000  0.406865  1
  Ta  Ta23  1  0.773601  0.750000  0.093135  1
  N  N24  1  0.352532  0.750000  0.323461  1
  N  N25  1  0.352532  0.250000  0.176539  1
  N  N26  1  0.647468  0.250000  0.676539  1
  N  N27  1  0.647468  0.750000  0.823461  1
  N  N28  1  0.972330  0.250000  0.490797  1
  N  N29  1  0.972330  0.750000  0.009203  1
  N  N30  1  0.514049  0.750000  0.553458  1
  N  N31  1  0.514049  0.250000  0.946542  1
  N  N32  1  0.485951  0.250000  0.446542  1
  N  N33  1  0.485951  0.750000  0.053458  1
  N  N34  1  0.849713  0.471304  0.345334  1
  N  N35  1  0.849713  0.528696  0.154666  1
  N  N36  1  0.150287  0.971304  0.654666  1
  N  N37  1  0.150287  0.028696  0.845334  1
  N  N38  1  0.150287  0.528696  0.654666  1
  N  N39  1  0.150287  0.471304  0.845334  1
  N  N40  1  0.849713  0.028696  0.345334  1
  N  N41  1  0.849713  0.971304  0.154666  1
  N  N42  1  0.027670  0.750000  0.509203  1
  N  N43  1  0.027670  0.250000  0.990797  1
