# generated using pymatgen
data_Hf18Re6RhW2Se
_symmetry_space_group_name_H-M   'P 1'
_cell_length_a   8.68401041
_cell_length_b   8.68404153
_cell_length_c   8.58130676
_cell_angle_alpha   90.04157577
_cell_angle_beta   89.95834947
_cell_angle_gamma   120.14440541
_symmetry_Int_Tables_number   1
_chemical_formula_structural   Hf18Re6RhW2Se
_chemical_formula_sum   'Hf18 Re6 Rh1 W2 Se1'
_cell_volume   559.61885659
_cell_formula_units_Z   1
loop_
 _symmetry_equiv_pos_site_id
 _symmetry_equiv_pos_as_xyz
  1  'x, y, z'
loop_
 _atom_site_type_symbol
 _atom_site_label
 _atom_site_symmetry_multiplicity
 _atom_site_fract_x
 _atom_site_fract_y
 _atom_site_fract_z
 _atom_site_occupancy
  Hf  Hf0  1  0.196582  0.803411  0.445380  1
  Hf  Hf1  1  0.196848  0.393570  0.445660  1
  Hf  Hf2  1  0.606433  0.803144  0.445648  1
  Hf  Hf3  1  0.806845  0.193154  0.547164  1
  Hf  Hf4  1  0.806522  0.613706  0.546899  1
  Hf  Hf5  1  0.386298  0.193487  0.546890  1
  Hf  Hf6  1  0.808605  0.191399  0.952268  1
  Hf  Hf7  1  0.808094  0.617033  0.952842  1
  Hf  Hf8  1  0.382948  0.191901  0.952849  1
  Hf  Hf9  1  0.195828  0.804178  0.055079  1
  Hf  Hf10  1  0.195769  0.391228  0.054406  1
  Hf  Hf11  1  0.608757  0.804230  0.054391  1
  Hf  Hf12  1  0.542128  0.457895  0.249216  1
  Hf  Hf13  1  0.543035  0.085061  0.249142  1
  Hf  Hf14  1  0.914931  0.456960  0.249120  1
  Hf  Hf15  1  0.455325  0.544687  0.750451  1
  Hf  Hf16  1  0.455445  0.909938  0.750614  1
  Hf  Hf17  1  0.090058  0.544552  0.750625  1
  Re  Re18  1  0.889098  0.110900  0.250832  1
  Re  Re19  1  0.889018  0.778192  0.250732  1
  Re  Re20  1  0.221804  0.110980  0.250737  1
  Re  Re21  1  0.111377  0.221821  0.749336  1
  Re  Re22  1  0.778181  0.888616  0.749335  1
  Re  Re23  1  0.999706  0.000290  0.001609  1
  Rh  Rh24  1  0.333987  0.666029  0.249220  1
  W  W25  1  0.109790  0.890213  0.749775  1
  W  W26  1  0.999567  0.000434  0.498194  1
  Se  Se27  1  0.667021  0.332985  0.751585  1
