# generated using pymatgen
data_Lu5CuNiSb
_symmetry_space_group_name_H-M   'P 1'
_cell_length_a   8.28647691
_cell_length_b   8.28647765
_cell_length_c   8.45505928
_cell_angle_alpha   125.99789268
_cell_angle_beta   125.99789672
_cell_angle_gamma   78.49661113
_symmetry_Int_Tables_number   1
_chemical_formula_structural   Lu5CuNiSb
_chemical_formula_sum   'Lu10 Cu2 Ni2 Sb2'
_cell_volume   370.43178991
_cell_formula_units_Z   2
loop_
 _symmetry_equiv_pos_site_id
 _symmetry_equiv_pos_as_xyz
  1  'x, y, z'
loop_
 _atom_site_type_symbol
 _atom_site_label
 _atom_site_symmetry_multiplicity
 _atom_site_fract_x
 _atom_site_fract_y
 _atom_site_fract_z
 _atom_site_occupancy
  Lu  Lu0  1  0.000000  0.000000  0.000000  1
  Lu  Lu1  1  0.500000  0.500000  0.000000  1
  Lu  Lu2  1  0.787339  0.287339  0.796015  1
  Lu  Lu3  1  0.212661  0.712661  0.203985  1
  Lu  Lu4  1  0.491324  0.991324  0.203985  1
  Lu  Lu5  1  0.302987  0.473997  0.500000  1
  Lu  Lu6  1  0.026003  0.197013  0.500000  1
  Lu  Lu7  1  0.508676  0.008676  0.796015  1
  Lu  Lu8  1  0.697013  0.526003  0.500000  1
  Lu  Lu9  1  0.973997  0.802987  0.500000  1
  Cu  Cu10  1  0.133399  0.633399  0.766798  1
  Cu  Cu11  1  0.866601  0.366601  0.233202  1
  Ni  Ni12  1  0.631516  0.868484  0.500000  1
  Ni  Ni13  1  0.368484  0.131516  0.500000  1
  Sb  Sb14  1  0.250000  0.250000  0.000000  1
  Sb  Sb15  1  0.750000  0.750000  0.000000  1
