# generated using pymatgen
data_Ho4Ni17(MoP4)3
_symmetry_space_group_name_H-M   'P 1'
_cell_length_a   3.69325600
_cell_length_b   10.53457755
_cell_length_c   12.02927434
_cell_angle_alpha   90.07969307
_cell_angle_beta   90.00000000
_cell_angle_gamma   90.00000000
_symmetry_Int_Tables_number   1
_chemical_formula_structural   Ho4Ni17(MoP4)3
_chemical_formula_sum   'Ho4 Ni17 Mo3 P12'
_cell_volume   468.02122150
_cell_formula_units_Z   1
loop_
 _symmetry_equiv_pos_site_id
 _symmetry_equiv_pos_as_xyz
  1  'x, y, z'
loop_
 _atom_site_type_symbol
 _atom_site_label
 _atom_site_symmetry_multiplicity
 _atom_site_fract_x
 _atom_site_fract_y
 _atom_site_fract_z
 _atom_site_occupancy
  Ho  Ho0  1  0.250000  0.914567  0.204123  1
  Ho  Ho1  1  0.750000  0.081241  0.795016  1
  Ho  Ho2  1  0.750000  0.415730  0.292362  1
  Ho  Ho3  1  0.250000  0.585146  0.708472  1
  Ni  Ni4  1  0.250000  0.714336  0.989503  1
  Ni  Ni5  1  0.250000  0.091091  0.986586  1
  Ni  Ni6  1  0.750000  0.909404  0.010922  1
  Ni  Ni7  1  0.750000  0.590172  0.514376  1
  Ni  Ni8  1  0.250000  0.409225  0.488574  1
  Ni  Ni9  1  0.250000  0.278185  0.677651  1
  Ni  Ni10  1  0.750000  0.718599  0.321573  1
  Ni  Ni11  1  0.750000  0.777599  0.824837  1
  Ni  Ni12  1  0.250000  0.220120  0.177162  1
  Ni  Ni13  1  0.250000  0.620706  0.200937  1
  Ni  Ni14  1  0.750000  0.382629  0.798537  1
  Ni  Ni15  1  0.750000  0.113564  0.294957  1
  Ni  Ni16  1  0.250000  0.882856  0.704026  1
  Ni  Ni17  1  0.250000  0.035444  0.430297  1
  Ni  Ni18  1  0.750000  0.963792  0.568439  1
  Ni  Ni19  1  0.750000  0.539560  0.069686  1
  Ni  Ni20  1  0.250000  0.468891  0.930496  1
  Mo  Mo21  1  0.250000  0.790114  0.487217  1
  Mo  Mo22  1  0.750000  0.208907  0.511052  1
  Mo  Mo23  1  0.750000  0.294436  0.013016  1
  P  P24  1  0.250000  0.078444  0.614767  1
  P  P25  1  0.750000  0.919130  0.384487  1
  P  P26  1  0.750000  0.580587  0.888419  1
  P  P27  1  0.250000  0.420468  0.113887  1
  P  P28  1  0.250000  0.233013  0.365950  1
  P  P29  1  0.750000  0.767361  0.634820  1
  P  P30  1  0.750000  0.734154  0.128719  1
  P  P31  1  0.250000  0.267291  0.867606  1
  P  P32  1  0.250000  0.897726  0.892811  1
  P  P33  1  0.750000  0.097067  0.108069  1
  P  P34  1  0.750000  0.402702  0.611667  1
  P  P35  1  0.250000  0.595743  0.388982  1
