# generated using pymatgen
data_Tb4Ho6Tm2Co5Bi
_symmetry_space_group_name_H-M   'P 1'
_cell_length_a   8.28992675
_cell_length_b   8.28449148
_cell_length_c   8.28992780
_cell_angle_alpha   110.70879995
_cell_angle_beta   110.77008151
_cell_angle_gamma   106.98887616
_symmetry_Int_Tables_number   1
_chemical_formula_structural   Tb4Ho6Tm2Co5Bi
_chemical_formula_sum   'Tb4 Ho6 Tm2 Co5 Bi1'
_cell_volume   437.51647599
_cell_formula_units_Z   1
loop_
 _symmetry_equiv_pos_site_id
 _symmetry_equiv_pos_as_xyz
  1  'x, y, z'
loop_
 _atom_site_type_symbol
 _atom_site_label
 _atom_site_symmetry_multiplicity
 _atom_site_fract_x
 _atom_site_fract_y
 _atom_site_fract_z
 _atom_site_occupancy
  Tb  Tb0  1  0.815227  0.710995  0.527153  1
  Tb  Tb1  1  0.184773  0.289005  0.472847  1
  Tb  Tb2  1  0.183844  0.710995  0.895768  1
  Tb  Tb3  1  0.816156  0.289005  0.104232  1
  Ho  Ho4  1  0.687985  0.998066  0.310082  1
  Ho  Ho5  1  0.312015  0.001934  0.689918  1
  Ho  Ho6  1  0.598634  0.792422  0.805402  1
  Ho  Ho7  1  0.401366  0.207578  0.194598  1
  Ho  Ho8  1  0.987019  0.792422  0.193788  1
  Ho  Ho9  1  0.012981  0.207578  0.806212  1
  Tm  Tm10  1  0.687791  0.377320  0.689531  1
  Tm  Tm11  1  0.312209  0.622680  0.310469  1
  Co  Co12  1  0.623912  0.000000  0.623912  1
  Co  Co13  1  0.376088  0.000000  0.376088  1
  Co  Co14  1  0.112241  0.612003  0.499762  1
  Co  Co15  1  0.887759  0.387997  0.500238  1
  Co  Co16  1  0.000000  0.000000  0.000000  1
  Bi  Bi17  1  0.500000  0.500000  0.000000  1
