# generated using pymatgen
data_La15Sm(CdRh)4
_symmetry_space_group_name_H-M   'P 1'
_cell_length_a   10.08155339
_cell_length_b   10.06710948
_cell_length_c   10.09848100
_cell_angle_alpha   59.89685871
_cell_angle_beta   59.94443804
_cell_angle_gamma   60.13156718
_symmetry_Int_Tables_number   1
_chemical_formula_structural   La15Sm(CdRh)4
_chemical_formula_sum   'La15 Sm1 Cd4 Rh4'
_cell_volume   724.56965509
_cell_formula_units_Z   1
loop_
 _symmetry_equiv_pos_site_id
 _symmetry_equiv_pos_as_xyz
  1  'x, y, z'
loop_
 _atom_site_type_symbol
 _atom_site_label
 _atom_site_symmetry_multiplicity
 _atom_site_fract_x
 _atom_site_fract_y
 _atom_site_fract_z
 _atom_site_occupancy
  La  La0  1  0.939430  0.939694  0.560438  1
  La  La1  1  0.561307  0.560370  0.939161  1
  La  La2  1  0.691346  0.691465  0.308595  1
  La  La3  1  0.150475  0.547951  0.150787  1
  La  La4  1  0.687049  0.310292  0.689898  1
  La  La5  1  0.153247  0.153138  0.149295  1
  La  La6  1  0.546313  0.151160  0.151264  1
  La  La7  1  0.687049  0.310292  0.312760  1
  La  La8  1  0.153247  0.153138  0.544320  1
  La  La9  1  0.309708  0.687342  0.312731  1
  La  La10  1  0.309708  0.687342  0.690220  1
  La  La11  1  0.940607  0.558468  0.564346  1
  La  La12  1  0.940607  0.558468  0.936579  1
  La  La13  1  0.559108  0.940845  0.563334  1
  La  La14  1  0.559108  0.940845  0.936713  1
  Sm  Sm15  1  0.308561  0.308604  0.691416  1
  Cd  Cd16  1  0.923648  0.235919  0.920217  1
  Cd  Cd17  1  0.919344  0.920148  0.241367  1
  Cd  Cd18  1  0.241159  0.922261  0.918290  1
  Cd  Cd19  1  0.919344  0.920148  0.919140  1
  Rh  Rh20  1  0.358734  0.359453  0.923603  1
  Rh  Rh21  1  0.358647  0.923820  0.358767  1
  Rh  Rh22  1  0.923518  0.359384  0.358548  1
  Rh  Rh23  1  0.358734  0.359453  0.358209  1
