# generated using pymatgen
data_DyHo5LuRh3
_symmetry_space_group_name_H-M   'P 1'
_cell_length_a   9.72879900
_cell_length_b   9.72988779
_cell_length_c   6.14992100
_cell_angle_alpha   89.99842020
_cell_angle_beta   90.00000000
_cell_angle_gamma   119.99630178
_symmetry_Int_Tables_number   1
_chemical_formula_structural   DyHo5LuRh3
_chemical_formula_sum   'Dy2 Ho10 Lu2 Rh6'
_cell_volume   504.17744654
_cell_formula_units_Z   2
loop_
 _symmetry_equiv_pos_site_id
 _symmetry_equiv_pos_as_xyz
  1  'x, y, z'
loop_
 _atom_site_type_symbol
 _atom_site_label
 _atom_site_symmetry_multiplicity
 _atom_site_fract_x
 _atom_site_fract_y
 _atom_site_fract_z
 _atom_site_occupancy
  Dy  Dy0  1  0.123722  0.876359  0.253685  1
  Dy  Dy1  1  0.752637  0.876359  0.253685  1
  Ho  Ho2  1  0.123736  0.247474  0.253817  1
  Ho  Ho3  1  0.876371  0.123730  0.753825  1
  Ho  Ho4  1  0.247360  0.123730  0.753825  1
  Ho  Ho5  1  0.876306  0.752611  0.753835  1
  Ho  Ho6  1  0.540941  0.458982  0.446991  1
  Ho  Ho7  1  0.918042  0.458982  0.446991  1
  Ho  Ho8  1  0.540990  0.081978  0.446920  1
  Ho  Ho9  1  0.458988  0.540913  0.946870  1
  Ho  Ho10  1  0.081925  0.540913  0.946870  1
  Ho  Ho11  1  0.459029  0.918060  0.946806  1
  Lu  Lu12  1  0.333308  0.666616  0.459800  1
  Lu  Lu13  1  0.666668  0.333335  0.959802  1
  Rh  Rh14  1  0.809455  0.190693  0.179904  1
  Rh  Rh15  1  0.381237  0.190693  0.179904  1
  Rh  Rh16  1  0.809334  0.618669  0.179896  1
  Rh  Rh17  1  0.190589  0.809391  0.680095  1
  Rh  Rh18  1  0.618803  0.809391  0.680095  1
  Rh  Rh19  1  0.190561  0.381120  0.679924  1
