# generated using pymatgen
data_Pr10InBi5Se2
_symmetry_space_group_name_H-M   'P 1'
_cell_length_a   9.67243700
_cell_length_b   9.62542169
_cell_length_c   6.90416700
_cell_angle_alpha   90.00000000
_cell_angle_beta   90.00000000
_cell_angle_gamma   120.16171314
_symmetry_Int_Tables_number   1
_chemical_formula_structural   Pr10InBi5Se2
_chemical_formula_sum   'Pr10 In1 Bi5 Se2'
_cell_volume   555.76038908
_cell_formula_units_Z   1
loop_
 _symmetry_equiv_pos_site_id
 _symmetry_equiv_pos_as_xyz
  1  'x, y, z'
loop_
 _atom_site_type_symbol
 _atom_site_label
 _atom_site_symmetry_multiplicity
 _atom_site_fract_x
 _atom_site_fract_y
 _atom_site_fract_z
 _atom_site_occupancy
  Pr  Pr0  1  0.254867  0.000000  0.750000  1
  Pr  Pr1  1  0.747950  0.000000  0.250000  1
  Pr  Pr2  1  0.996098  0.250610  0.750000  1
  Pr  Pr3  1  0.998913  0.746041  0.250000  1
  Pr  Pr4  1  0.745487  0.749390  0.750000  1
  Pr  Pr5  1  0.252873  0.253959  0.250000  1
  Pr  Pr6  1  0.335678  0.669920  0.499594  1
  Pr  Pr7  1  0.665759  0.330080  0.499594  1
  Pr  Pr8  1  0.665759  0.330080  0.000406  1
  Pr  Pr9  1  0.335678  0.669920  0.000406  1
  In  In10  1  0.606190  0.000000  0.750000  1
  Bi  Bi11  1  0.393209  0.000000  0.250000  1
  Bi  Bi12  1  0.999133  0.607469  0.750000  1
  Bi  Bi13  1  0.999699  0.391383  0.250000  1
  Bi  Bi14  1  0.391663  0.392531  0.750000  1
  Bi  Bi15  1  0.608317  0.608617  0.250000  1
  Se  Se16  1  0.001362  0.000000  0.500112  1
  Se  Se17  1  0.001362  0.000000  0.999888  1
