# generated using pymatgen
data_Hf16MnCo4Rh3
_symmetry_space_group_name_H-M   'P 1'
_cell_length_a   8.59115039
_cell_length_b   8.59196321
_cell_length_c   8.59267200
_cell_angle_alpha   59.89141146
_cell_angle_beta   59.89202250
_cell_angle_gamma   59.90429036
_symmetry_Int_Tables_number   1
_chemical_formula_structural   Hf16MnCo4Rh3
_chemical_formula_sum   'Hf16 Mn1 Co4 Rh3'
_cell_volume   447.43517742
_cell_formula_units_Z   1
loop_
 _symmetry_equiv_pos_site_id
 _symmetry_equiv_pos_as_xyz
  1  'x, y, z'
loop_
 _atom_site_type_symbol
 _atom_site_label
 _atom_site_symmetry_multiplicity
 _atom_site_fract_x
 _atom_site_fract_y
 _atom_site_fract_z
 _atom_site_occupancy
  Hf  Hf0  1  0.065210  0.644190  0.644159  1
  Hf  Hf1  1  0.644190  0.065131  0.644210  1
  Hf  Hf2  1  0.644180  0.644229  0.065149  1
  Hf  Hf3  1  0.643944  0.643974  0.643939  1
  Hf  Hf4  1  0.804720  0.804724  0.195522  1
  Hf  Hf5  1  0.197212  0.197176  0.800213  1
  Hf  Hf6  1  0.804727  0.195503  0.804728  1
  Hf  Hf7  1  0.197184  0.800232  0.197172  1
  Hf  Hf8  1  0.195539  0.804721  0.804721  1
  Hf  Hf9  1  0.800171  0.197226  0.197245  1
  Hf  Hf10  1  0.435996  0.436009  0.071643  1
  Hf  Hf11  1  0.063808  0.063823  0.436543  1
  Hf  Hf12  1  0.435992  0.071635  0.436009  1
  Hf  Hf13  1  0.063800  0.436550  0.063822  1
  Hf  Hf14  1  0.071606  0.436024  0.436033  1
  Hf  Hf15  1  0.436494  0.063846  0.063852  1
  Mn  Mn16  1  0.414979  0.414937  0.414962  1
  Co  Co17  1  0.428757  0.856423  0.856441  1
  Co  Co18  1  0.856461  0.428722  0.856441  1
  Co  Co19  1  0.856467  0.856435  0.428728  1
  Co  Co20  1  0.857665  0.857597  0.857578  1
  Rh  Rh21  1  0.753373  0.413759  0.413741  1
  Rh  Rh22  1  0.413766  0.753383  0.413748  1
  Rh  Rh23  1  0.413755  0.413752  0.753401  1
