# generated using pymatgen
data_TbSmMo3P7Rh9
_symmetry_space_group_name_H-M   'P 1'
_cell_length_a   3.94333958
_cell_length_b   9.55844171
_cell_length_c   9.55788102
_cell_angle_alpha   119.99301428
_cell_angle_beta   90.05411010
_cell_angle_gamma   89.92767394
_symmetry_Int_Tables_number   1
_chemical_formula_structural   TbSmMo3P7Rh9
_chemical_formula_sum   'Tb1 Sm1 Mo3 P7 Rh9'
_cell_volume   312.01373943
_cell_formula_units_Z   1
loop_
 _symmetry_equiv_pos_site_id
 _symmetry_equiv_pos_as_xyz
  1  'x, y, z'
loop_
 _atom_site_type_symbol
 _atom_site_label
 _atom_site_symmetry_multiplicity
 _atom_site_fract_x
 _atom_site_fract_y
 _atom_site_fract_z
 _atom_site_occupancy
  Tb  Tb0  1  0.761965  0.333324  0.666682  1
  Sm  Sm1  1  0.261835  0.666662  0.333310  1
  Mo  Mo2  1  0.761968  0.091351  0.871361  1
  Mo  Mo3  1  0.762017  0.128691  0.220054  1
  Mo  Mo4  1  0.761992  0.779990  0.908626  1
  P  P5  1  0.262104  0.000010  0.999988  1
  P  P6  1  0.761857  0.883722  0.595767  1
  P  P7  1  0.761886  0.404242  0.287961  1
  P  P8  1  0.761847  0.712059  0.116259  1
  P  P9  1  0.261914  0.117052  0.412213  1
  P  P10  1  0.261889  0.587792  0.704857  1
  P  P11  1  0.261924  0.295157  0.882956  1
  Rh  Rh12  1  0.261833  0.884820  0.159609  1
  Rh  Rh13  1  0.261846  0.840360  0.725153  1
  Rh  Rh14  1  0.261885  0.274839  0.115247  1
  Rh  Rh15  1  0.761913  0.611717  0.560487  1
  Rh  Rh16  1  0.761903  0.439457  0.051181  1
  Rh  Rh17  1  0.761927  0.948769  0.388254  1
  Rh  Rh18  1  0.261843  0.369539  0.438397  1
  Rh  Rh19  1  0.261794  0.561607  0.931165  1
  Rh  Rh20  1  0.261856  0.068839  0.630474  1
