# generated using pymatgen
data_LiDy10Y6Cd2HgIr4
_symmetry_space_group_name_H-M   'P 1'
_cell_length_a   9.63017734
_cell_length_b   9.63017710
_cell_length_c   9.63914800
_cell_angle_alpha   59.96918009
_cell_angle_beta   59.96918091
_cell_angle_gamma   59.96085227
_symmetry_Int_Tables_number   1
_chemical_formula_structural   LiDy10Y6Cd2HgIr4
_chemical_formula_sum   'Li1 Dy10 Y6 Cd2 Hg1 Ir4'
_cell_volume   631.62775680
_cell_formula_units_Z   1
loop_
 _symmetry_equiv_pos_site_id
 _symmetry_equiv_pos_as_xyz
  1  'x, y, z'
loop_
 _atom_site_type_symbol
 _atom_site_label
 _atom_site_symmetry_multiplicity
 _atom_site_fract_x
 _atom_site_fract_y
 _atom_site_fract_z
 _atom_site_occupancy
  Li  Li0  1  0.571359  0.571359  0.568390  1
  Dy  Dy1  1  0.350291  0.350291  0.349758  1
  Dy  Dy2  1  0.347073  0.347073  0.958301  1
  Dy  Dy3  1  0.348109  0.954892  0.347253  1
  Dy  Dy4  1  0.954892  0.348109  0.347253  1
  Dy  Dy5  1  0.809368  0.190042  0.191614  1
  Dy  Dy6  1  0.185969  0.812071  0.813792  1
  Dy  Dy7  1  0.190042  0.809368  0.191614  1
  Dy  Dy8  1  0.812071  0.185969  0.813792  1
  Dy  Dy9  1  0.189983  0.189983  0.810760  1
  Dy  Dy10  1  0.811493  0.811493  0.188757  1
  Y  Y11  1  0.940439  0.561181  0.561237  1
  Y  Y12  1  0.562955  0.937413  0.937389  1
  Y  Y13  1  0.561181  0.940439  0.561237  1
  Y  Y14  1  0.937413  0.562955  0.937389  1
  Y  Y15  1  0.561494  0.561494  0.940571  1
  Y  Y16  1  0.937606  0.937606  0.562478  1
  Cd  Cd17  1  0.581543  0.257561  0.583152  1
  Cd  Cd18  1  0.257561  0.581543  0.583152  1
  Hg  Hg19  1  0.586386  0.586386  0.248555  1
  Ir  Ir20  1  0.141808  0.141808  0.141438  1
  Ir  Ir21  1  0.143003  0.143003  0.575409  1
  Ir  Ir22  1  0.142873  0.575091  0.143354  1
  Ir  Ir23  1  0.575091  0.142873  0.143354  1
