# generated using pymatgen
data_Dy9HoSi5Bi
_symmetry_space_group_name_H-M   'P 1'
_cell_length_a   8.53882401
_cell_length_b   8.58391803
_cell_length_c   6.37188500
_cell_angle_alpha   89.99785397
_cell_angle_beta   89.99909404
_cell_angle_gamma   119.81998642
_symmetry_Int_Tables_number   1
_chemical_formula_structural   Dy9HoSi5Bi
_chemical_formula_sum   'Dy9 Ho1 Si5 Bi1'
_cell_volume   405.19783167
_cell_formula_units_Z   1
loop_
 _symmetry_equiv_pos_site_id
 _symmetry_equiv_pos_as_xyz
  1  'x, y, z'
loop_
 _atom_site_type_symbol
 _atom_site_label
 _atom_site_symmetry_multiplicity
 _atom_site_fract_x
 _atom_site_fract_y
 _atom_site_fract_z
 _atom_site_occupancy
  Dy  Dy0  1  0.984884  0.744986  0.750051  1
  Dy  Dy1  1  0.998320  0.243297  0.249942  1
  Dy  Dy2  1  0.754959  0.756747  0.249929  1
  Dy  Dy3  1  0.767668  0.999941  0.750052  1
  Dy  Dy4  1  0.239859  0.255053  0.750073  1
  Dy  Dy5  1  0.240266  0.999948  0.249965  1
  Dy  Dy6  1  0.330692  0.653889  0.495004  1
  Dy  Dy7  1  0.676779  0.346049  0.005044  1
  Dy  Dy8  1  0.676809  0.346124  0.494967  1
  Ho  Ho9  1  0.330717  0.653918  0.004965  1
  Si  Si10  1  0.393048  0.390725  0.249760  1
  Si  Si11  1  0.002764  0.609484  0.249806  1
  Si  Si12  1  0.998951  0.394574  0.750207  1
  Si  Si13  1  0.604164  0.605641  0.750221  1
  Si  Si14  1  0.606856  0.999822  0.249865  1
  Bi  Bi15  1  0.393265  0.999801  0.750150  1
