# generated using pymatgen
data_YHo2Er5(CdIr)2
_symmetry_space_group_name_H-M   'P 1'
_cell_length_a   9.57286141
_cell_length_b   9.57760899
_cell_length_c   9.57760818
_cell_angle_alpha   59.96721020
_cell_angle_beta   60.01639208
_cell_angle_gamma   60.01639414
_symmetry_Int_Tables_number   1
_chemical_formula_structural   YHo2Er5(CdIr)2
_chemical_formula_sum   'Y2 Ho4 Er10 Cd4 Ir4'
_cell_volume   620.92724674
_cell_formula_units_Z   2
loop_
 _symmetry_equiv_pos_site_id
 _symmetry_equiv_pos_as_xyz
  1  'x, y, z'
loop_
 _atom_site_type_symbol
 _atom_site_label
 _atom_site_symmetry_multiplicity
 _atom_site_fract_x
 _atom_site_fract_y
 _atom_site_fract_z
 _atom_site_occupancy
  Y  Y0  1  0.187637  0.812363  0.812363  1
  Y  Y1  1  0.812363  0.187637  0.187637  1
  Ho  Ho2  1  0.811186  0.188814  0.811186  1
  Ho  Ho3  1  0.188814  0.811186  0.188814  1
  Ho  Ho4  1  0.811186  0.811186  0.188814  1
  Ho  Ho5  1  0.188814  0.188814  0.811186  1
  Er  Er6  1  0.598726  0.598753  0.598753  1
  Er  Er7  1  0.598753  0.598726  0.203770  1
  Er  Er8  1  0.598753  0.203770  0.598726  1
  Er  Er9  1  0.203770  0.598753  0.598753  1
  Er  Er10  1  0.060688  0.439312  0.439312  1
  Er  Er11  1  0.439312  0.060688  0.060688  1
  Er  Er12  1  0.439285  0.060715  0.439285  1
  Er  Er13  1  0.060715  0.439285  0.060715  1
  Er  Er14  1  0.439285  0.439285  0.060715  1
  Er  Er15  1  0.060715  0.060715  0.439285  1
  Cd  Cd16  1  0.830006  0.831054  0.831054  1
  Cd  Cd17  1  0.831054  0.830006  0.507886  1
  Cd  Cd18  1  0.831054  0.507886  0.830006  1
  Cd  Cd19  1  0.507886  0.831054  0.831054  1
  Ir  Ir20  1  0.390730  0.391925  0.391925  1
  Ir  Ir21  1  0.391925  0.390730  0.825422  1
  Ir  Ir22  1  0.391925  0.825422  0.390730  1
  Ir  Ir23  1  0.825422  0.391925  0.391925  1
