# generated using pymatgen
data_Zr8Nb7Si16W5
_symmetry_space_group_name_H-M   'P 1'
_cell_length_a   6.63986467
_cell_length_b   6.81452712
_cell_length_c   13.04221846
_cell_angle_alpha   89.97638843
_cell_angle_beta   90.07418618
_cell_angle_gamma   89.96918639
_symmetry_Int_Tables_number   1
_chemical_formula_structural   Zr8Nb7Si16W5
_chemical_formula_sum   'Zr8 Nb7 Si16 W5'
_cell_volume   590.12764359
_cell_formula_units_Z   1
loop_
 _symmetry_equiv_pos_site_id
 _symmetry_equiv_pos_as_xyz
  1  'x, y, z'
loop_
 _atom_site_type_symbol
 _atom_site_label
 _atom_site_symmetry_multiplicity
 _atom_site_fract_x
 _atom_site_fract_y
 _atom_site_fract_z
 _atom_site_occupancy
  Zr  Zr0  1  0.498216  0.671841  0.592460  1
  Zr  Zr1  1  0.996494  0.827731  0.907445  1
  Zr  Zr2  1  0.502885  0.327143  0.091937  1
  Zr  Zr3  1  0.002379  0.173357  0.408382  1
  Zr  Zr4  1  0.503779  0.327002  0.408359  1
  Zr  Zr5  1  0.002701  0.172295  0.092051  1
  Zr  Zr6  1  0.495835  0.671454  0.907183  1
  Zr  Zr7  1  0.997553  0.828383  0.592537  1
  Nb  Nb8  1  0.664712  0.167330  0.624170  1
  Nb  Nb9  1  0.165089  0.332068  0.873870  1
  Nb  Nb10  1  0.335083  0.831845  0.124899  1
  Nb  Nb11  1  0.836438  0.665935  0.376404  1
  Nb  Nb12  1  0.333588  0.832384  0.376964  1
  Nb  Nb13  1  0.835015  0.667072  0.124733  1
  Nb  Nb14  1  0.665114  0.168401  0.874260  1
  Si  Si15  1  0.670146  0.960730  0.459510  1
  Si  Si16  1  0.169873  0.537314  0.040671  1
  Si  Si17  1  0.330087  0.038235  0.959122  1
  Si  Si18  1  0.833764  0.461611  0.542331  1
  Si  Si19  1  0.327631  0.042473  0.541778  1
  Si  Si20  1  0.830051  0.462247  0.958709  1
  Si  Si21  1  0.670103  0.961470  0.039906  1
  Si  Si22  1  0.170831  0.536781  0.461366  1
  Si  Si23  1  0.465066  0.385843  0.748440  1
  Si  Si24  1  0.968456  0.115909  0.748124  1
  Si  Si25  1  0.533470  0.613252  0.250784  1
  Si  Si26  1  0.032280  0.886361  0.250541  1
  Si  Si27  1  0.701492  0.857055  0.749750  1
  Si  Si28  1  0.201375  0.642362  0.749455  1
  Si  Si29  1  0.298166  0.143170  0.250239  1
  Si  Si30  1  0.798183  0.356268  0.250054  1
  W  W31  1  0.165459  0.335074  0.624867  1
  W  W32  1  0.836822  0.502305  0.748896  1
  W  W33  1  0.338266  0.998408  0.748576  1
  W  W34  1  0.162969  0.498919  0.250730  1
  W  W35  1  0.660626  0.999973  0.250494  1
