# generated using pymatgen
data_Mn2MoSeO7
_symmetry_space_group_name_H-M   'P 1'
_cell_length_a   5.49215031
_cell_length_b   8.86957604
_cell_length_c   7.18397179
_cell_angle_alpha   89.99949821
_cell_angle_beta   98.45031893
_cell_angle_gamma   89.98912222
_symmetry_Int_Tables_number   1
_chemical_formula_structural   Mn2MoSeO7
_chemical_formula_sum   'Mn4 Mo2 Se2 O14'
_cell_volume   346.15392173
_cell_formula_units_Z   2
loop_
 _symmetry_equiv_pos_site_id
 _symmetry_equiv_pos_as_xyz
  1  'x, y, z'
loop_
 _atom_site_type_symbol
 _atom_site_label
 _atom_site_symmetry_multiplicity
 _atom_site_fract_x
 _atom_site_fract_y
 _atom_site_fract_z
 _atom_site_occupancy
  Mn  Mn0  1  0.456715  0.862998  0.226693  1
  Mn  Mn1  1  0.935679  0.541218  0.505688  1
  Mn  Mn2  1  0.064234  0.041338  0.494120  1
  Mn  Mn3  1  0.543410  0.363216  0.773561  1
  Mo  Mo4  1  0.088902  0.536798  0.010993  1
  Mo  Mo5  1  0.911156  0.036812  0.988965  1
  Se  Se6  1  0.538892  0.231220  0.377090  1
  Se  Se7  1  0.461078  0.731216  0.622960  1
  O  O8  1  0.243726  0.714560  0.035370  1
  O  O9  1  0.694169  0.892411  0.023042  1
  O  O10  1  0.160813  0.038503  0.190817  1
  O  O11  1  0.971187  0.500233  0.225083  1
  O  O12  1  0.683977  0.055791  0.374518  1
  O  O13  1  0.237922  0.826775  0.471551  1
  O  O14  1  0.653749  0.706581  0.451582  1
  O  O15  1  0.346236  0.206582  0.548431  1
  O  O16  1  0.761964  0.326817  0.528475  1
  O  O17  1  0.316040  0.555762  0.625536  1
  O  O18  1  0.028775  0.000215  0.774826  1
  O  O19  1  0.839117  0.538586  0.809162  1
  O  O20  1  0.305650  0.392144  0.976908  1
  O  O21  1  0.756601  0.214747  0.964628  1
