# generated using pymatgen
data_SmCo3P3RuRh
_symmetry_space_group_name_H-M   'P 1'
_cell_length_a   3.77116200
_cell_length_b   10.51153000
_cell_length_c   12.09169600
_cell_angle_alpha   90.00000000
_cell_angle_beta   90.00000000
_cell_angle_gamma   90.00000000
_symmetry_Int_Tables_number   1
_chemical_formula_structural   SmCo3P3RuRh
_chemical_formula_sum   'Sm4 Co12 P12 Ru4 Rh4'
_cell_volume   479.32308200
_cell_formula_units_Z   4
loop_
 _symmetry_equiv_pos_site_id
 _symmetry_equiv_pos_as_xyz
  1  'x, y, z'
loop_
 _atom_site_type_symbol
 _atom_site_label
 _atom_site_symmetry_multiplicity
 _atom_site_fract_x
 _atom_site_fract_y
 _atom_site_fract_z
 _atom_site_occupancy
  Sm  Sm0  1  0.250000  0.585767  0.709284  1
  Sm  Sm1  1  0.250000  0.914233  0.209284  1
  Sm  Sm2  1  0.750000  0.414233  0.290716  1
  Sm  Sm3  1  0.750000  0.085767  0.790716  1
  Co  Co4  1  0.250000  0.223049  0.177732  1
  Co  Co5  1  0.250000  0.276951  0.677732  1
  Co  Co6  1  0.750000  0.776951  0.822268  1
  Co  Co7  1  0.750000  0.723049  0.322268  1
  Co  Co8  1  0.250000  0.883963  0.698347  1
  Co  Co9  1  0.250000  0.616037  0.198347  1
  Co  Co10  1  0.750000  0.116037  0.301653  1
  Co  Co11  1  0.750000  0.383963  0.801653  1
  Co  Co12  1  0.250000  0.463953  0.933532  1
  Co  Co13  1  0.250000  0.036047  0.433532  1
  Co  Co14  1  0.750000  0.536047  0.066468  1
  Co  Co15  1  0.750000  0.963953  0.566468  1
  P  P16  1  0.250000  0.421745  0.110173  1
  P  P17  1  0.250000  0.078255  0.610173  1
  P  P18  1  0.750000  0.578255  0.889827  1
  P  P19  1  0.750000  0.921745  0.389827  1
  P  P20  1  0.250000  0.276958  0.863175  1
  P  P21  1  0.250000  0.223042  0.363175  1
  P  P22  1  0.750000  0.723042  0.136825  1
  P  P23  1  0.750000  0.776958  0.636825  1
  P  P24  1  0.250000  0.606362  0.381930  1
  P  P25  1  0.250000  0.893638  0.881930  1
  P  P26  1  0.750000  0.393638  0.618070  1
  P  P27  1  0.750000  0.106362  0.118070  1
  Ru  Ru28  1  0.250000  0.708191  0.985361  1
  Ru  Ru29  1  0.250000  0.791809  0.485361  1
  Ru  Ru30  1  0.750000  0.291809  0.014639  1
  Ru  Ru31  1  0.750000  0.208191  0.514639  1
  Rh  Rh32  1  0.250000  0.404614  0.484901  1
  Rh  Rh33  1  0.250000  0.095386  0.984901  1
  Rh  Rh34  1  0.750000  0.595386  0.515099  1
  Rh  Rh35  1  0.750000  0.904614  0.015099  1
