# generated using pymatgen
data_Th14Tc2OsRh3
_symmetry_space_group_name_H-M   'P 1'
_cell_length_a   10.04824300
_cell_length_b   10.01002918
_cell_length_c   6.31404717
_cell_angle_alpha   89.88572731
_cell_angle_beta   90.00000000
_cell_angle_gamma   120.12636750
_symmetry_Int_Tables_number   1
_chemical_formula_structural   Th14Tc2OsRh3
_chemical_formula_sum   'Th14 Tc2 Os1 Rh3'
_cell_volume   549.29841800
_cell_formula_units_Z   1
loop_
 _symmetry_equiv_pos_site_id
 _symmetry_equiv_pos_as_xyz
  1  'x, y, z'
loop_
 _atom_site_type_symbol
 _atom_site_label
 _atom_site_symmetry_multiplicity
 _atom_site_fract_x
 _atom_site_fract_y
 _atom_site_fract_z
 _atom_site_occupancy
  Th  Th0  1  0.667377  0.334753  0.559594  1
  Th  Th1  1  0.333085  0.666171  0.036524  1
  Th  Th2  1  0.876157  0.752314  0.751642  1
  Th  Th3  1  0.248698  0.122511  0.751926  1
  Th  Th4  1  0.873813  0.122511  0.751926  1
  Th  Th5  1  0.128453  0.256907  0.250577  1
  Th  Th6  1  0.744733  0.872747  0.250642  1
  Th  Th7  1  0.128014  0.872747  0.250642  1
  Th  Th8  1  0.458179  0.916360  0.548429  1
  Th  Th9  1  0.084456  0.543260  0.548028  1
  Th  Th10  1  0.458803  0.543260  0.548028  1
  Th  Th11  1  0.540282  0.080562  0.043895  1
  Th  Th12  1  0.919006  0.459401  0.043699  1
  Th  Th13  1  0.540396  0.459401  0.043699  1
  Tc  Tc14  1  0.631013  0.814109  0.797259  1
  Tc  Tc15  1  0.183096  0.814109  0.797259  1
  Os  Os16  1  0.185157  0.370313  0.802248  1
  Rh  Rh17  1  0.811376  0.622752  0.301386  1
  Rh  Rh18  1  0.377064  0.187906  0.302550  1
  Rh  Rh19  1  0.810843  0.187906  0.302550  1
