# generated using pymatgen
data_Tb6Er3TmSn6
_symmetry_space_group_name_H-M   'P 1'
_cell_length_a   8.96654600
_cell_length_b   8.96654633
_cell_length_c   6.52267200
_cell_angle_alpha   90.00000000
_cell_angle_beta   90.00000000
_cell_angle_gamma   119.99999879
_symmetry_Int_Tables_number   1
_chemical_formula_structural   Tb6Er3TmSn6
_chemical_formula_sum   'Tb6 Er3 Tm1 Sn6'
_cell_volume   454.15756705
_cell_formula_units_Z   1
loop_
 _symmetry_equiv_pos_site_id
 _symmetry_equiv_pos_as_xyz
  1  'x, y, z'
loop_
 _atom_site_type_symbol
 _atom_site_label
 _atom_site_symmetry_multiplicity
 _atom_site_fract_x
 _atom_site_fract_y
 _atom_site_fract_z
 _atom_site_occupancy
  Tb  Tb0  1  0.000020  0.761148  0.749987  1
  Tb  Tb1  1  0.000020  0.238872  0.250013  1
  Tb  Tb2  1  0.761128  0.761148  0.250013  1
  Tb  Tb3  1  0.761128  0.999980  0.749987  1
  Tb  Tb4  1  0.238852  0.238872  0.749987  1
  Tb  Tb5  1  0.238852  0.999980  0.250013  1
  Er  Er6  1  0.666667  0.333333  0.000000  1
  Er  Er7  1  0.666667  0.333333  0.500000  1
  Er  Er8  1  0.333333  0.666667  0.000000  1
  Tm  Tm9  1  0.333333  0.666667  0.500000  1
  Sn  Sn10  1  0.396299  0.999934  0.749959  1
  Sn  Sn11  1  0.396299  0.396365  0.250041  1
  Sn  Sn12  1  0.000066  0.603701  0.250041  1
  Sn  Sn13  1  0.000066  0.396365  0.749959  1
  Sn  Sn14  1  0.603635  0.603701  0.749959  1
  Sn  Sn15  1  0.603635  0.999934  0.250041  1
