# generated using pymatgen
data_Y2Ho10Tc3Pd
_symmetry_space_group_name_H-M   'P 1'
_cell_length_a   6.29531301
_cell_length_b   7.42902973
_cell_length_c   9.15375800
_cell_angle_alpha   90.00000000
_cell_angle_beta   90.00000000
_cell_angle_gamma   90.13832009
_symmetry_Int_Tables_number   1
_chemical_formula_structural   Y2Ho10Tc3Pd
_chemical_formula_sum   'Y2 Ho10 Tc3 Pd1'
_cell_volume   428.10232449
_cell_formula_units_Z   1
loop_
 _symmetry_equiv_pos_site_id
 _symmetry_equiv_pos_as_xyz
  1  'x, y, z'
loop_
 _atom_site_type_symbol
 _atom_site_label
 _atom_site_symmetry_multiplicity
 _atom_site_fract_x
 _atom_site_fract_y
 _atom_site_fract_z
 _atom_site_occupancy
  Y  Y0  1  0.626349  0.044528  0.250000  1
  Y  Y1  1  0.869446  0.533879  0.250000  1
  Ho  Ho2  1  0.371357  0.956540  0.750000  1
  Ho  Ho3  1  0.123997  0.461632  0.750000  1
  Ho  Ho4  1  0.165536  0.184207  0.057702  1
  Ho  Ho5  1  0.829918  0.824000  0.931116  1
  Ho  Ho6  1  0.664425  0.322066  0.934893  1
  Ho  Ho7  1  0.829918  0.824000  0.568884  1
  Ho  Ho8  1  0.341265  0.670279  0.058295  1
  Ho  Ho9  1  0.165536  0.184207  0.442298  1
  Ho  Ho10  1  0.341265  0.670279  0.441705  1
  Ho  Ho11  1  0.664425  0.322066  0.565107  1
  Tc  Tc12  1  0.451952  0.385074  0.250000  1
  Tc  Tc13  1  0.537542  0.615436  0.750000  1
  Tc  Tc14  1  0.964548  0.114072  0.750000  1
  Pd  Pd15  1  0.052519  0.887736  0.250000  1
