# generated using pymatgen
data_Th4Ga18TcIr5
_symmetry_space_group_name_H-M   'P 1'
_cell_length_a   7.71372597
_cell_length_b   7.71372581
_cell_length_c   9.55668086
_cell_angle_alpha   89.79230314
_cell_angle_beta   89.79230065
_cell_angle_gamma   119.45324505
_symmetry_Int_Tables_number   1
_chemical_formula_structural   Th4Ga18TcIr5
_chemical_formula_sum   'Th4 Ga18 Tc1 Ir5'
_cell_volume   495.13240613
_cell_formula_units_Z   1
loop_
 _symmetry_equiv_pos_site_id
 _symmetry_equiv_pos_as_xyz
  1  'x, y, z'
loop_
 _atom_site_type_symbol
 _atom_site_label
 _atom_site_symmetry_multiplicity
 _atom_site_fract_x
 _atom_site_fract_y
 _atom_site_fract_z
 _atom_site_occupancy
  Th  Th0  1  0.996871  0.672244  0.249351  1
  Th  Th1  1  0.003129  0.327756  0.750649  1
  Th  Th2  1  0.672244  0.996871  0.249351  1
  Th  Th3  1  0.327756  0.003129  0.750649  1
  Ga  Ga4  1  0.131777  0.131777  0.248259  1
  Ga  Ga5  1  0.868223  0.868223  0.751741  1
  Ga  Ga6  1  0.004996  0.334327  0.078761  1
  Ga  Ga7  1  0.995004  0.665673  0.921239  1
  Ga  Ga8  1  0.995602  0.664353  0.579743  1
  Ga  Ga9  1  0.335647  0.004398  0.420257  1
  Ga  Ga10  1  0.004398  0.335647  0.420257  1
  Ga  Ga11  1  0.664353  0.995602  0.579743  1
  Ga  Ga12  1  0.665673  0.995004  0.921239  1
  Ga  Ga13  1  0.334327  0.004996  0.078761  1
  Ga  Ga14  1  0.336349  0.336349  0.561768  1
  Ga  Ga15  1  0.663651  0.663651  0.438232  1
  Ga  Ga16  1  0.665645  0.665645  0.059796  1
  Ga  Ga17  1  0.334355  0.334355  0.940204  1
  Ga  Ga18  1  0.340379  0.543972  0.250157  1
  Ga  Ga19  1  0.659621  0.456028  0.749843  1
  Ga  Ga20  1  0.543972  0.340379  0.250157  1
  Ga  Ga21  1  0.456028  0.659621  0.749843  1
  Tc  Tc22  1  0.000000  0.000000  0.000000  1
  Ir  Ir23  1  0.672393  0.327607  0.000000  1
  Ir  Ir24  1  0.327607  0.672393  0.000000  1
  Ir  Ir25  1  0.327857  0.672143  0.500000  1
  Ir  Ir26  1  0.672143  0.327857  0.500000  1
  Ir  Ir27  1  0.000000  0.000000  0.500000  1
