# generated using pymatgen
data_Rb2V2HgO7
_symmetry_space_group_name_H-M   'P 1'
_cell_length_a   5.84506700
_cell_length_b   9.17709100
_cell_length_c   9.17709100
_cell_angle_alpha   90.00000000
_cell_angle_beta   90.00000000
_cell_angle_gamma   90.00000000
_symmetry_Int_Tables_number   1
_chemical_formula_structural   Rb2V2HgO7
_chemical_formula_sum   'Rb4 V4 Hg2 O14'
_cell_volume   492.26569313
_cell_formula_units_Z   2
loop_
 _symmetry_equiv_pos_site_id
 _symmetry_equiv_pos_as_xyz
  1  'x, y, z'
loop_
 _atom_site_type_symbol
 _atom_site_label
 _atom_site_symmetry_multiplicity
 _atom_site_fract_x
 _atom_site_fract_y
 _atom_site_fract_z
 _atom_site_occupancy
  Rb  Rb0  1  0.508794  0.836981  0.336981  1
  Rb  Rb1  1  0.491206  0.663019  0.836981  1
  Rb  Rb2  1  0.491206  0.336981  0.163019  1
  Rb  Rb3  1  0.508794  0.163019  0.663019  1
  V  V4  1  0.943708  0.364729  0.864729  1
  V  V5  1  0.056292  0.864729  0.635271  1
  V  V6  1  0.056292  0.135271  0.364729  1
  V  V7  1  0.943708  0.635271  0.135271  1
  Hg  Hg8  1  0.000000  0.500000  0.500000  1
  Hg  Hg9  1  0.000000  0.000000  0.000000  1
  O  O10  1  0.852400  0.500000  0.000000  1
  O  O11  1  0.147600  0.000000  0.500000  1
  O  O12  1  0.770010  0.856536  0.643464  1
  O  O13  1  0.229990  0.643464  0.143464  1
  O  O14  1  0.229990  0.356536  0.856536  1
  O  O15  1  0.770010  0.143464  0.356536  1
  O  O16  1  0.180516  0.699101  0.585478  1
  O  O17  1  0.180516  0.300899  0.414522  1
  O  O18  1  0.819484  0.414522  0.699101  1
  O  O19  1  0.819484  0.585478  0.300899  1
  O  O20  1  0.180516  0.085478  0.199101  1
  O  O21  1  0.819484  0.199101  0.914522  1
  O  O22  1  0.819484  0.800899  0.085478  1
  O  O23  1  0.180516  0.914522  0.800899  1
