# generated using pymatgen
data_SrEr7(Si4W3)4
_symmetry_space_group_name_H-M   'P 1'
_cell_length_a   6.76100258
_cell_length_b   6.93595597
_cell_length_c   12.91848228
_cell_angle_alpha   89.81217916
_cell_angle_beta   89.99745882
_cell_angle_gamma   89.69905680
_symmetry_Int_Tables_number   1
_chemical_formula_structural   SrEr7(Si4W3)4
_chemical_formula_sum   'Sr1 Er7 Si16 W12'
_cell_volume   605.78790594
_cell_formula_units_Z   1
loop_
 _symmetry_equiv_pos_site_id
 _symmetry_equiv_pos_as_xyz
  1  'x, y, z'
loop_
 _atom_site_type_symbol
 _atom_site_label
 _atom_site_symmetry_multiplicity
 _atom_site_fract_x
 _atom_site_fract_y
 _atom_site_fract_z
 _atom_site_occupancy
  Sr  Sr0  1  0.997769  0.835256  0.589437  1
  Er  Er1  1  0.497840  0.668102  0.593899  1
  Er  Er2  1  0.995932  0.830701  0.906276  1
  Er  Er3  1  0.503532  0.331104  0.092896  1
  Er  Er4  1  0.004895  0.167359  0.406027  1
  Er  Er5  1  0.504417  0.332357  0.405846  1
  Er  Er6  1  0.005041  0.168141  0.093284  1
  Er  Er7  1  0.496714  0.668759  0.907508  1
  Si  Si8  1  0.658836  0.958549  0.451094  1
  Si  Si9  1  0.162408  0.543981  0.045913  1
  Si  Si10  1  0.335484  0.041122  0.954629  1
  Si  Si11  1  0.837593  0.453816  0.546068  1
  Si  Si12  1  0.344047  0.044401  0.546383  1
  Si  Si13  1  0.837334  0.456796  0.954931  1
  Si  Si14  1  0.663508  0.958610  0.046195  1
  Si  Si15  1  0.162390  0.539694  0.451308  1
  Si  Si16  1  0.465729  0.374346  0.751221  1
  Si  Si17  1  0.964263  0.131567  0.752479  1
  Si  Si18  1  0.532929  0.626923  0.249237  1
  Si  Si19  1  0.034316  0.869101  0.250349  1
  Si  Si20  1  0.695932  0.868902  0.750721  1
  Si  Si21  1  0.198875  0.634940  0.751077  1
  Si  Si22  1  0.303025  0.132800  0.249504  1
  Si  Si23  1  0.802600  0.362614  0.249086  1
  W  W24  1  0.664174  0.169127  0.626604  1
  W  W25  1  0.172037  0.340612  0.876774  1
  W  W26  1  0.331865  0.835523  0.125817  1
  W  W27  1  0.826629  0.657627  0.372175  1
  W  W28  1  0.333442  0.835982  0.373426  1
  W  W29  1  0.828235  0.660527  0.124829  1
  W  W30  1  0.665525  0.165228  0.875236  1
  W  W31  1  0.171011  0.337030  0.627039  1
  W  W32  1  0.836292  0.495126  0.752255  1
  W  W33  1  0.334386  0.003242  0.753058  1
  W  W34  1  0.163923  0.500506  0.249119  1
  W  W35  1  0.667072  0.999528  0.248298  1
