# generated using pymatgen
data_DyHo10In9Ag4
_symmetry_space_group_name_H-M   'P 1'
_cell_length_a   3.90475300
_cell_length_b   13.17474951
_cell_length_c   13.17680200
_cell_angle_alpha   112.83224438
_cell_angle_beta   90.00000000
_cell_angle_gamma   90.00000000
_symmetry_Int_Tables_number   1
_chemical_formula_structural   DyHo10In9Ag4
_chemical_formula_sum   'Dy1 Ho10 In9 Ag4'
_cell_volume   624.75478239
_cell_formula_units_Z   1
loop_
 _symmetry_equiv_pos_site_id
 _symmetry_equiv_pos_as_xyz
  1  'x, y, z'
loop_
 _atom_site_type_symbol
 _atom_site_label
 _atom_site_symmetry_multiplicity
 _atom_site_fract_x
 _atom_site_fract_y
 _atom_site_fract_z
 _atom_site_occupancy
  Dy  Dy0  1  0.000000  0.000000  0.000000  1
  Ho  Ho1  1  0.000000  0.932005  0.582832  1
  Ho  Ho2  1  0.000000  0.067995  0.417168  1
  Ho  Ho3  1  0.000000  0.582836  0.932022  1
  Ho  Ho4  1  0.000000  0.417164  0.067978  1
  Ho  Ho5  1  0.000000  0.160664  0.839332  1
  Ho  Ho6  1  0.000000  0.839336  0.160668  1
  Ho  Ho7  1  0.000000  0.364344  0.635657  1
  Ho  Ho8  1  0.000000  0.635656  0.364343  1
  Ho  Ho9  1  0.000000  0.702634  0.702642  1
  Ho  Ho10  1  0.000000  0.297366  0.297358  1
  In  In11  1  0.500000  0.153292  0.631913  1
  In  In12  1  0.500000  0.846708  0.368087  1
  In  In13  1  0.500000  0.631906  0.153349  1
  In  In14  1  0.500000  0.368094  0.846651  1
  In  In15  1  0.500000  0.934029  0.785002  1
  In  In16  1  0.500000  0.065971  0.214998  1
  In  In17  1  0.500000  0.784996  0.933987  1
  In  In18  1  0.500000  0.215004  0.066013  1
  In  In19  1  0.500000  0.500000  0.500000  1
  Ag  Ag20  1  0.500000  0.749803  0.550686  1
  Ag  Ag21  1  0.500000  0.250197  0.449314  1
  Ag  Ag22  1  0.500000  0.550679  0.749831  1
  Ag  Ag23  1  0.500000  0.449321  0.250169  1
