# generated using pymatgen
data_AlHg2Ir3S8
_symmetry_space_group_name_H-M   'P 1'
_cell_length_a   7.24926019
_cell_length_b   7.24926052
_cell_length_c   7.24926091
_cell_angle_alpha   61.06049225
_cell_angle_beta   61.06049088
_cell_angle_gamma   61.06048768
_symmetry_Int_Tables_number   1
_chemical_formula_structural   AlHg2Ir3S8
_chemical_formula_sum   'Al1 Hg2 Ir3 S8'
_cell_volume   275.81264601
_cell_formula_units_Z   1
loop_
 _symmetry_equiv_pos_site_id
 _symmetry_equiv_pos_as_xyz
  1  'x, y, z'
loop_
 _atom_site_type_symbol
 _atom_site_label
 _atom_site_symmetry_multiplicity
 _atom_site_fract_x
 _atom_site_fract_y
 _atom_site_fract_z
 _atom_site_occupancy
  Al  Al0  1  0.625000  0.625000  0.625000  1
  Hg  Hg1  1  0.248263  0.248263  0.248263  1
  Hg  Hg2  1  0.001737  0.001737  0.001737  1
  Ir  Ir3  1  0.125000  0.625000  0.625000  1
  Ir  Ir4  1  0.625000  0.125000  0.625000  1
  Ir  Ir5  1  0.625000  0.625000  0.125000  1
  S  S6  1  0.820116  0.391059  0.391059  1
  S  S7  1  0.391059  0.820116  0.391059  1
  S  S8  1  0.391059  0.391059  0.820116  1
  S  S9  1  0.395394  0.395394  0.395394  1
  S  S10  1  0.429884  0.858941  0.858941  1
  S  S11  1  0.858941  0.429884  0.858941  1
  S  S12  1  0.858941  0.858941  0.429884  1
  S  S13  1  0.854606  0.854606  0.854606  1
