# generated using pymatgen
data_Tb4Y2LuCo17P12
_symmetry_space_group_name_H-M   'P 1'
_cell_length_a   3.72283500
_cell_length_b   10.61315111
_cell_length_c   12.36023713
_cell_angle_alpha   90.01674100
_cell_angle_beta   90.00000000
_cell_angle_gamma   90.00000000
_symmetry_Int_Tables_number   1
_chemical_formula_structural   Tb4Y2LuCo17P12
_chemical_formula_sum   'Tb4 Y2 Lu1 Co17 P12'
_cell_volume   488.36543732
_cell_formula_units_Z   1
loop_
 _symmetry_equiv_pos_site_id
 _symmetry_equiv_pos_as_xyz
  1  'x, y, z'
loop_
 _atom_site_type_symbol
 _atom_site_label
 _atom_site_symmetry_multiplicity
 _atom_site_fract_x
 _atom_site_fract_y
 _atom_site_fract_z
 _atom_site_occupancy
  Tb  Tb0  1  0.000000  0.500018  0.530913  1
  Tb  Tb1  1  0.500000  0.999989  0.478074  1
  Tb  Tb2  1  0.500000  0.822152  0.207881  1
  Tb  Tb3  1  0.000000  0.683422  0.795242  1
  Y  Y4  1  0.500000  0.178155  0.207698  1
  Y  Y5  1  0.000000  0.316408  0.795166  1
  Lu  Lu6  1  0.500000  0.500064  0.154319  1
  Co  Co7  1  0.000000  0.999898  0.835342  1
  Co  Co8  1  0.500000  0.500024  0.703445  1
  Co  Co9  1  0.000000  0.999999  0.295166  1
  Co  Co10  1  0.000000  0.499724  0.982136  1
  Co  Co11  1  0.500000  0.000145  0.012966  1
  Co  Co12  1  0.500000  0.324608  0.987007  1
  Co  Co13  1  0.500000  0.675191  0.987074  1
  Co  Co14  1  0.000000  0.159864  0.999256  1
  Co  Co15  1  0.000000  0.840331  0.999201  1
  Co  Co16  1  0.500000  0.293291  0.435993  1
  Co  Co17  1  0.500000  0.706751  0.436000  1
  Co  Co18  1  0.000000  0.201178  0.571104  1
  Co  Co19  1  0.000000  0.798927  0.571083  1
  Co  Co20  1  0.500000  0.881148  0.707584  1
  Co  Co21  1  0.500000  0.118984  0.707631  1
  Co  Co22  1  0.000000  0.622140  0.302856  1
  Co  Co23  1  0.000000  0.377588  0.302519  1
  P  P24  1  0.500000  0.499792  0.882161  1
  P  P25  1  0.000000  0.000138  0.115413  1
  P  P26  1  0.500000  0.500036  0.363250  1
  P  P27  1  0.000000  0.999952  0.654790  1
  P  P28  1  0.500000  0.307599  0.618368  1
  P  P29  1  0.500000  0.692579  0.618235  1
  P  P30  1  0.000000  0.188557  0.387392  1
  P  P31  1  0.000000  0.811315  0.387559  1
  P  P32  1  0.500000  0.853840  0.887690  1
  P  P33  1  0.500000  0.146211  0.887527  1
  P  P34  1  0.000000  0.667249  0.095711  1
  P  P35  1  0.000000  0.332733  0.096250  1
