# generated using pymatgen
data_Ba4TmMn3O12
_symmetry_space_group_name_H-M   'P 1'
_cell_length_a   5.86823404
_cell_length_b   5.86823486
_cell_length_c   10.24437994
_cell_angle_alpha   73.35670824
_cell_angle_beta   73.35670801
_cell_angle_gamma   60.00000284
_symmetry_Int_Tables_number   1
_chemical_formula_structural   Ba4TmMn3O12
_chemical_formula_sum   'Ba4 Tm1 Mn3 O12'
_cell_volume   288.32241996
_cell_formula_units_Z   1
loop_
 _symmetry_equiv_pos_site_id
 _symmetry_equiv_pos_as_xyz
  1  'x, y, z'
loop_
 _atom_site_type_symbol
 _atom_site_label
 _atom_site_symmetry_multiplicity
 _atom_site_fract_x
 _atom_site_fract_y
 _atom_site_fract_z
 _atom_site_occupancy
  Ba  Ba0  1  0.284796  0.284796  0.145613  1
  Ba  Ba1  1  0.129042  0.129042  0.612875  1
  Ba  Ba2  1  0.715204  0.715204  0.854387  1
  Ba  Ba3  1  0.870958  0.870958  0.387125  1
  Tm  Tm4  1  0.000000  0.000000  0.000000  1
  Mn  Mn5  1  0.411400  0.411400  0.765800  1
  Mn  Mn6  1  0.588600  0.588600  0.234200  1
  Mn  Mn7  1  0.500000  0.500000  0.500000  1
  O  O8  1  0.780185  0.780185  0.131538  1
  O  O9  1  0.219815  0.219815  0.868462  1
  O  O10  1  0.780185  0.308093  0.131538  1
  O  O11  1  0.835032  0.395887  0.373194  1
  O  O12  1  0.219815  0.691907  0.868462  1
  O  O13  1  0.395887  0.835032  0.373194  1
  O  O14  1  0.395887  0.395887  0.373194  1
  O  O15  1  0.604113  0.164968  0.626806  1
  O  O16  1  0.604113  0.604113  0.626806  1
  O  O17  1  0.308093  0.780185  0.131538  1
  O  O18  1  0.164968  0.604113  0.626806  1
  O  O19  1  0.691907  0.219815  0.868462  1
