# generated using pymatgen
data_Yb5Sm(GdSn2)4
_symmetry_space_group_name_H-M   'P 1'
_cell_length_a   7.94995900
_cell_length_b   8.50582863
_cell_length_c   16.22265500
_cell_angle_alpha   90.03549904
_cell_angle_beta   90.00000000
_cell_angle_gamma   90.00000000
_symmetry_Int_Tables_number   1
_chemical_formula_structural   Yb5Sm(GdSn2)4
_chemical_formula_sum   'Yb10 Sm2 Gd8 Sn16'
_cell_volume   1096.99176297
_cell_formula_units_Z   2
loop_
 _symmetry_equiv_pos_site_id
 _symmetry_equiv_pos_as_xyz
  1  'x, y, z'
loop_
 _atom_site_type_symbol
 _atom_site_label
 _atom_site_symmetry_multiplicity
 _atom_site_fract_x
 _atom_site_fract_y
 _atom_site_fract_z
 _atom_site_occupancy
  Yb  Yb0  1  0.493350  0.311982  0.093289  1
  Yb  Yb1  1  0.993350  0.188018  0.406711  1
  Yb  Yb2  1  0.492543  0.312742  0.406630  1
  Yb  Yb3  1  0.992543  0.187258  0.093370  1
  Yb  Yb4  1  0.507326  0.687182  0.906285  1
  Yb  Yb5  1  0.007326  0.812818  0.593715  1
  Yb  Yb6  1  0.839810  0.508618  0.750422  1
  Yb  Yb7  1  0.339810  0.991382  0.749578  1
  Yb  Yb8  1  0.160234  0.489612  0.250019  1
  Yb  Yb9  1  0.660234  0.010388  0.249981  1
  Sm  Sm10  1  0.509055  0.686921  0.593495  1
  Sm  Sm11  1  0.009055  0.813079  0.906505  1
  Gd  Gd12  1  0.673561  0.168980  0.623613  1
  Gd  Gd13  1  0.173561  0.331020  0.876387  1
  Gd  Gd14  1  0.325385  0.833240  0.121493  1
  Gd  Gd15  1  0.825385  0.666760  0.378507  1
  Gd  Gd16  1  0.324791  0.833875  0.377557  1
  Gd  Gd17  1  0.824791  0.666125  0.122443  1
  Gd  Gd18  1  0.673754  0.167943  0.876402  1
  Gd  Gd19  1  0.173754  0.332057  0.623598  1
  Sn  Sn20  1  0.669870  0.963959  0.461494  1
  Sn  Sn21  1  0.169870  0.536041  0.038506  1
  Sn  Sn22  1  0.329433  0.034369  0.957546  1
  Sn  Sn23  1  0.829433  0.465631  0.542454  1
  Sn  Sn24  1  0.331311  0.031786  0.542519  1
  Sn  Sn25  1  0.831311  0.468214  0.957481  1
  Sn  Sn26  1  0.672674  0.964173  0.039254  1
  Sn  Sn27  1  0.172674  0.535827  0.460746  1
  Sn  Sn28  1  0.473164  0.382338  0.749958  1
  Sn  Sn29  1  0.973164  0.117662  0.750042  1
  Sn  Sn30  1  0.525138  0.617146  0.249960  1
  Sn  Sn31  1  0.025138  0.882854  0.250040  1
  Sn  Sn32  1  0.717491  0.866444  0.750145  1
  Sn  Sn33  1  0.217491  0.633556  0.749855  1
  Sn  Sn34  1  0.281111  0.131063  0.249749  1
  Sn  Sn35  1  0.781111  0.368937  0.250251  1
