# generated using pymatgen
data_Er3ThCdRu
_symmetry_space_group_name_H-M   'P 1'
_cell_length_a   9.62256548
_cell_length_b   9.62256594
_cell_length_c   9.62256600
_cell_angle_alpha   59.99999979
_cell_angle_beta   59.99999820
_cell_angle_gamma   59.99999642
_symmetry_Int_Tables_number   1
_chemical_formula_structural   Er3ThCdRu
_chemical_formula_sum   'Er12 Th4 Cd4 Ru4'
_cell_volume   630.02481147
_cell_formula_units_Z   4
loop_
 _symmetry_equiv_pos_site_id
 _symmetry_equiv_pos_as_xyz
  1  'x, y, z'
loop_
 _atom_site_type_symbol
 _atom_site_label
 _atom_site_symmetry_multiplicity
 _atom_site_fract_x
 _atom_site_fract_y
 _atom_site_fract_z
 _atom_site_occupancy
  Er  Er0  1  0.062166  0.437834  0.437834  1
  Er  Er1  1  0.437834  0.062166  0.062166  1
  Er  Er2  1  0.437834  0.062166  0.437834  1
  Er  Er3  1  0.062166  0.437834  0.062166  1
  Er  Er4  1  0.437834  0.437834  0.062166  1
  Er  Er5  1  0.062166  0.062166  0.437834  1
  Er  Er6  1  0.185615  0.814385  0.814385  1
  Er  Er7  1  0.814385  0.185615  0.185615  1
  Er  Er8  1  0.814385  0.185615  0.814385  1
  Er  Er9  1  0.185615  0.814385  0.185615  1
  Er  Er10  1  0.814385  0.814385  0.185615  1
  Er  Er11  1  0.185615  0.185615  0.814385  1
  Th  Th12  1  0.598552  0.598552  0.598552  1
  Th  Th13  1  0.598552  0.598552  0.204343  1
  Th  Th14  1  0.598552  0.204343  0.598552  1
  Th  Th15  1  0.204343  0.598552  0.598552  1
  Cd  Cd16  1  0.832052  0.832052  0.832052  1
  Cd  Cd17  1  0.832052  0.832052  0.503843  1
  Cd  Cd18  1  0.832052  0.503843  0.832052  1
  Cd  Cd19  1  0.503843  0.832052  0.832052  1
  Ru  Ru20  1  0.393164  0.393164  0.393164  1
  Ru  Ru21  1  0.393164  0.393164  0.820509  1
  Ru  Ru22  1  0.393164  0.820509  0.393164  1
  Ru  Ru23  1  0.820509  0.393164  0.393164  1
