# generated using pymatgen
data_ThCd3P6N13
_symmetry_space_group_name_H-M   'P 1'
_cell_length_a   7.31414929
_cell_length_b   7.39729166
_cell_length_c   7.39729232
_cell_angle_alpha   109.69778064
_cell_angle_beta   109.24370548
_cell_angle_gamma   109.24370185
_symmetry_Int_Tables_number   1
_chemical_formula_structural   ThCd3P6N13
_chemical_formula_sum   'Th1 Cd3 P6 N13'
_cell_volume   308.95780624
_cell_formula_units_Z   1
loop_
 _symmetry_equiv_pos_site_id
 _symmetry_equiv_pos_as_xyz
  1  'x, y, z'
loop_
 _atom_site_type_symbol
 _atom_site_label
 _atom_site_symmetry_multiplicity
 _atom_site_fract_x
 _atom_site_fract_y
 _atom_site_fract_z
 _atom_site_occupancy
  Th  Th0  1  0.699511  0.000000  0.000000  1
  Cd  Cd1  1  0.995674  0.000000  0.698622  1
  Cd  Cd2  1  0.995674  0.698622  0.000000  1
  Cd  Cd3  1  0.297052  0.301378  0.301378  1
  P  P4  1  0.247011  0.749329  0.497010  1
  P  P5  1  0.750001  0.252319  0.502990  1
  P  P6  1  0.750001  0.502990  0.252319  1
  P  P7  1  0.247011  0.497010  0.749329  1
  P  P8  1  0.497682  0.747681  0.250671  1
  P  P9  1  0.497682  0.250671  0.747681  1
  N  N10  1  0.006332  0.000000  0.000000  1
  N  N11  1  0.717413  0.290909  0.290909  1
  N  N12  1  0.281425  0.712864  0.283145  1
  N  N13  1  0.312610  0.594207  0.594207  1
  N  N14  1  0.568561  0.570281  0.287136  1
  N  N15  1  0.426503  0.709091  0.000000  1
  N  N16  1  0.998280  0.716855  0.429719  1
  N  N17  1  0.568561  0.287136  0.570281  1
  N  N18  1  0.718403  0.000000  0.405793  1
  N  N19  1  0.426503  0.000000  0.709091  1
  N  N20  1  0.718403  0.405793  0.000000  1
  N  N21  1  0.281425  0.283145  0.712864  1
  N  N22  1  0.998280  0.429719  0.716855  1
