# generated using pymatgen
data_Tb5Er11Cd4OsPt3
_symmetry_space_group_name_H-M   'P 1'
_cell_length_a   9.64780920
_cell_length_b   9.64229270
_cell_length_c   9.64229217
_cell_angle_alpha   59.60496584
_cell_angle_beta   59.59947744
_cell_angle_gamma   59.59947777
_symmetry_Int_Tables_number   1
_chemical_formula_structural   Tb5Er11Cd4OsPt3
_chemical_formula_sum   'Tb5 Er11 Cd4 Os1 Pt3'
_cell_volume   628.52259262
_cell_formula_units_Z   1
loop_
 _symmetry_equiv_pos_site_id
 _symmetry_equiv_pos_as_xyz
  1  'x, y, z'
loop_
 _atom_site_type_symbol
 _atom_site_label
 _atom_site_symmetry_multiplicity
 _atom_site_fract_x
 _atom_site_fract_y
 _atom_site_fract_z
 _atom_site_occupancy
  Tb  Tb0  1  0.556826  0.938949  0.938949  1
  Tb  Tb1  1  0.565717  0.935409  0.564562  1
  Tb  Tb2  1  0.938773  0.557298  0.937785  1
  Tb  Tb3  1  0.565717  0.564562  0.935409  1
  Tb  Tb4  1  0.938773  0.937785  0.557298  1
  Er  Er5  1  0.351641  0.351760  0.351760  1
  Er  Er6  1  0.349839  0.350574  0.948490  1
  Er  Er7  1  0.349839  0.948490  0.350574  1
  Er  Er8  1  0.947726  0.350439  0.350439  1
  Er  Er9  1  0.815230  0.188203  0.188203  1
  Er  Er10  1  0.187342  0.810339  0.810339  1
  Er  Er11  1  0.187811  0.814959  0.188811  1
  Er  Er12  1  0.810651  0.187560  0.810168  1
  Er  Er13  1  0.187811  0.188811  0.814959  1
  Er  Er14  1  0.810651  0.810168  0.187560  1
  Er  Er15  1  0.936942  0.563938  0.563938  1
  Cd  Cd16  1  0.580848  0.580110  0.580110  1
  Cd  Cd17  1  0.580607  0.580679  0.255294  1
  Cd  Cd18  1  0.580607  0.255294  0.580679  1
  Cd  Cd19  1  0.254374  0.580959  0.580959  1
  Os  Os20  1  0.143287  0.143398  0.143398  1
  Pt  Pt21  1  0.143206  0.144301  0.572464  1
  Pt  Pt22  1  0.143206  0.572464  0.144301  1
  Pt  Pt23  1  0.572581  0.143554  0.143554  1
