# generated using pymatgen
data_SrNd(AlAg)5
_symmetry_space_group_name_H-M   'P 1'
_cell_length_a   4.46777300
_cell_length_b   5.51341300
_cell_length_c   9.93959200
_cell_angle_alpha   90.00000000
_cell_angle_beta   90.00000000
_cell_angle_gamma   90.00000000
_symmetry_Int_Tables_number   1
_chemical_formula_structural   SrNd(AlAg)5
_chemical_formula_sum   'Sr1 Nd1 Al5 Ag5'
_cell_volume   244.83876660
_cell_formula_units_Z   1
loop_
 _symmetry_equiv_pos_site_id
 _symmetry_equiv_pos_as_xyz
  1  'x, y, z'
loop_
 _atom_site_type_symbol
 _atom_site_label
 _atom_site_symmetry_multiplicity
 _atom_site_fract_x
 _atom_site_fract_y
 _atom_site_fract_z
 _atom_site_occupancy
  Sr  Sr0  1  0.000000  0.000000  0.500000  1
  Nd  Nd1  1  0.000000  0.500000  0.000000  1
  Al  Al2  1  0.500000  0.000000  0.000000  1
  Al  Al3  1  0.500000  0.744722  0.242975  1
  Al  Al4  1  0.500000  0.255278  0.757025  1
  Al  Al5  1  0.500000  0.255278  0.242975  1
  Al  Al6  1  0.500000  0.744722  0.757025  1
  Ag  Ag7  1  0.000000  0.500000  0.317179  1
  Ag  Ag8  1  0.000000  0.000000  0.833313  1
  Ag  Ag9  1  0.000000  0.000000  0.166687  1
  Ag  Ag10  1  0.000000  0.500000  0.682821  1
  Ag  Ag11  1  0.500000  0.500000  0.500000  1
