# generated using pymatgen
data_TbTm4In4PdAu
_symmetry_space_group_name_H-M   'P 1'
_cell_length_a   3.62880900
_cell_length_b   8.14589912
_cell_length_c   18.28703700
_cell_angle_alpha   89.99037087
_cell_angle_beta   90.00000000
_cell_angle_gamma   90.00000000
_symmetry_Int_Tables_number   1
_chemical_formula_structural   TbTm4In4PdAu
_chemical_formula_sum   'Tb2 Tm8 In8 Pd2 Au2'
_cell_volume   540.56319722
_cell_formula_units_Z   2
loop_
 _symmetry_equiv_pos_site_id
 _symmetry_equiv_pos_as_xyz
  1  'x, y, z'
loop_
 _atom_site_type_symbol
 _atom_site_label
 _atom_site_symmetry_multiplicity
 _atom_site_fract_x
 _atom_site_fract_y
 _atom_site_fract_z
 _atom_site_occupancy
  Tb  Tb0  1  0.000000  0.500000  0.500000  1
  Tb  Tb1  1  0.000000  0.000000  0.000000  1
  Tm  Tm2  1  0.000000  0.746335  0.282488  1
  Tm  Tm3  1  0.000000  0.253665  0.717512  1
  Tm  Tm4  1  0.000000  0.767224  0.778976  1
  Tm  Tm5  1  0.000000  0.232776  0.221024  1
  Tm  Tm6  1  0.000000  0.618829  0.080758  1
  Tm  Tm7  1  0.000000  0.381171  0.919242  1
  Tm  Tm8  1  0.000000  0.885897  0.582973  1
  Tm  Tm9  1  0.000000  0.114103  0.417027  1
  In  In10  1  0.500000  0.709676  0.932123  1
  In  In11  1  0.500000  0.290324  0.067877  1
  In  In12  1  0.500000  0.792035  0.432538  1
  In  In13  1  0.500000  0.207965  0.567462  1
  In  In14  1  0.500000  0.584440  0.647870  1
  In  In15  1  0.500000  0.415560  0.352130  1
  In  In16  1  0.500000  0.920497  0.149180  1
  In  In17  1  0.500000  0.079503  0.850820  1
  Pd  Pd18  1  0.500000  0.975487  0.695815  1
  Pd  Pd19  1  0.500000  0.024513  0.304185  1
  Au  Au20  1  0.500000  0.526466  0.197182  1
  Au  Au21  1  0.500000  0.473534  0.802818  1
