# generated using pymatgen
data_Y3Er2(InSb)2
_symmetry_space_group_name_H-M   'P 1'
_cell_length_a   8.82732108
_cell_length_b   8.77376708
_cell_length_c   8.09114499
_cell_angle_alpha   90.07114361
_cell_angle_beta   90.04512114
_cell_angle_gamma   125.15825100
_symmetry_Int_Tables_number   1
_chemical_formula_structural   Y3Er2(InSb)2
_chemical_formula_sum   'Y6 Er4 In4 Sb4'
_cell_volume   512.32561862
_cell_formula_units_Z   2
loop_
 _symmetry_equiv_pos_site_id
 _symmetry_equiv_pos_as_xyz
  1  'x, y, z'
loop_
 _atom_site_type_symbol
 _atom_site_label
 _atom_site_symmetry_multiplicity
 _atom_site_fract_x
 _atom_site_fract_y
 _atom_site_fract_z
 _atom_site_occupancy
  Y  Y0  1  0.033960  0.310067  0.333489  1
  Y  Y1  1  0.966040  0.689933  0.666511  1
  Y  Y2  1  0.466038  0.189015  0.832802  1
  Y  Y3  1  0.806099  0.530978  0.166211  1
  Y  Y4  1  0.533962  0.810985  0.167198  1
  Y  Y5  1  0.193901  0.469022  0.833789  1
  Er  Er6  1  0.695929  0.968169  0.665596  1
  Er  Er7  1  0.304071  0.031831  0.334404  1
  Er  Er8  1  0.000000  0.000000  0.000000  1
  Er  Er9  1  0.500000  0.500000  0.500000  1
  In  In10  1  0.370331  0.370275  0.128533  1
  In  In11  1  0.629669  0.629725  0.871467  1
  In  In12  1  0.130249  0.130164  0.628512  1
  In  In13  1  0.869751  0.869836  0.371488  1
  Sb  Sb14  1  0.798755  0.203487  0.996770  1
  Sb  Sb15  1  0.201245  0.796513  0.003230  1
  Sb  Sb16  1  0.699617  0.292664  0.497824  1
  Sb  Sb17  1  0.300383  0.707336  0.502176  1
