# generated using pymatgen
data_Li2BeGeSe4
_symmetry_space_group_name_H-M   'P 1'
_cell_length_a   6.64921000
_cell_length_b   6.41393882
_cell_length_c   10.41199800
_cell_angle_alpha   51.73501425
_cell_angle_beta   90.00000000
_cell_angle_gamma   90.00000000
_symmetry_Int_Tables_number   1
_chemical_formula_structural   Li2BeGeSe4
_chemical_formula_sum   'Li4 Be2 Ge2 Se8'
_cell_volume   348.64571149
_cell_formula_units_Z   2
loop_
 _symmetry_equiv_pos_site_id
 _symmetry_equiv_pos_as_xyz
  1  'x, y, z'
loop_
 _atom_site_type_symbol
 _atom_site_label
 _atom_site_symmetry_multiplicity
 _atom_site_fract_x
 _atom_site_fract_y
 _atom_site_fract_z
 _atom_site_occupancy
  Li  Li0  1  0.667581  0.388393  0.130086  1
  Li  Li1  1  0.332419  0.388393  0.630086  1
  Li  Li2  1  0.838653  0.128713  0.888802  1
  Li  Li3  1  0.161347  0.128713  0.388802  1
  Be  Be4  1  0.316299  0.877365  0.136214  1
  Be  Be5  1  0.683701  0.877365  0.636214  1
  Ge  Ge6  1  0.819044  0.629799  0.383764  1
  Ge  Ge7  1  0.180956  0.629799  0.883764  1
  Se  Se8  1  0.837345  0.759673  0.863119  1
  Se  Se9  1  0.162655  0.759673  0.363119  1
  Se  Se10  1  0.637622  0.979022  0.145709  1
  Se  Se11  1  0.362378  0.979022  0.645709  1
  Se  Se12  1  0.800842  0.238092  0.401484  1
  Se  Se13  1  0.199158  0.238092  0.901484  1
  Se  Se14  1  0.315004  0.535943  0.126821  1
  Se  Se15  1  0.684996  0.535943  0.626821  1
