# generated using pymatgen
data_HoLu11Co4SnRh
_symmetry_space_group_name_H-M   'P 1'
_cell_length_a   8.11655958
_cell_length_b   8.10816798
_cell_length_c   8.10816733
_cell_angle_alpha   111.08041154
_cell_angle_beta   110.96402889
_cell_angle_gamma   106.37234529
_symmetry_Int_Tables_number   1
_chemical_formula_structural   HoLu11Co4SnRh
_chemical_formula_sum   'Ho1 Lu11 Co4 Sn1 Rh1'
_cell_volume   410.08307122
_cell_formula_units_Z   1
loop_
 _symmetry_equiv_pos_site_id
 _symmetry_equiv_pos_as_xyz
  1  'x, y, z'
loop_
 _atom_site_type_symbol
 _atom_site_label
 _atom_site_symmetry_multiplicity
 _atom_site_fract_x
 _atom_site_fract_y
 _atom_site_fract_z
 _atom_site_occupancy
  Ho  Ho0  1  0.413733  0.217991  0.195740  1
  Lu  Lu1  1  0.584955  0.781578  0.803378  1
  Lu  Lu2  1  0.021424  0.218390  0.803034  1
  Lu  Lu3  1  0.977621  0.781835  0.195786  1
  Lu  Lu4  1  0.184780  0.286639  0.472264  1
  Lu  Lu5  1  0.816195  0.715253  0.530379  1
  Lu  Lu6  1  0.184780  0.712517  0.898140  1
  Lu  Lu7  1  0.816195  0.285815  0.100943  1
  Lu  Lu8  1  0.314279  0.621841  0.306152  1
  Lu  Lu9  1  0.686333  0.379559  0.694950  1
  Lu  Lu10  1  0.314279  0.008127  0.692438  1
  Lu  Lu11  1  0.686333  0.991383  0.306775  1
  Co  Co12  1  0.373000  0.999344  0.373655  1
  Co  Co13  1  0.628224  0.000494  0.627730  1
  Co  Co14  1  0.113218  0.613293  0.499925  1
  Co  Co15  1  0.888732  0.387244  0.501488  1
  Sn  Sn16  1  0.500362  0.500482  0.999880  1
  Rh  Rh17  1  0.995556  0.998214  0.997342  1
