# generated using pymatgen
data_Tm8LuHfIr6
_symmetry_space_group_name_H-M   'P 1'
_cell_length_a   10.74067400
_cell_length_b   10.74067400
_cell_length_c   6.24291800
_cell_angle_alpha   90.00000000
_cell_angle_beta   90.00000000
_cell_angle_gamma   90.00000000
_symmetry_Int_Tables_number   1
_chemical_formula_structural   Tm8LuHfIr6
_chemical_formula_sum   'Tm16 Lu2 Hf2 Ir12'
_cell_volume   720.19599310
_cell_formula_units_Z   2
loop_
 _symmetry_equiv_pos_site_id
 _symmetry_equiv_pos_as_xyz
  1  'x, y, z'
loop_
 _atom_site_type_symbol
 _atom_site_label
 _atom_site_symmetry_multiplicity
 _atom_site_fract_x
 _atom_site_fract_y
 _atom_site_fract_z
 _atom_site_occupancy
  Tm  Tm0  1  0.291469  0.086642  0.374625  1
  Tm  Tm1  1  0.291469  0.913358  0.874625  1
  Tm  Tm2  1  0.708531  0.086642  0.874625  1
  Tm  Tm3  1  0.708531  0.913358  0.374625  1
  Tm  Tm4  1  0.585924  0.789382  0.874495  1
  Tm  Tm5  1  0.585924  0.210618  0.374495  1
  Tm  Tm6  1  0.414076  0.789382  0.374495  1
  Tm  Tm7  1  0.414076  0.210618  0.874495  1
  Tm  Tm8  1  0.210618  0.414076  0.625505  1
  Tm  Tm9  1  0.210618  0.585924  0.125505  1
  Tm  Tm10  1  0.789382  0.414076  0.125505  1
  Tm  Tm11  1  0.789382  0.585924  0.625505  1
  Tm  Tm12  1  0.913358  0.708531  0.125375  1
  Tm  Tm13  1  0.913358  0.291469  0.625375  1
  Tm  Tm14  1  0.086642  0.708531  0.625375  1
  Tm  Tm15  1  0.086642  0.291469  0.125375  1
  Lu  Lu16  1  0.000000  0.000000  0.500000  1
  Lu  Lu17  1  0.000000  0.000000  0.000000  1
  Hf  Hf18  1  0.500000  0.500000  0.000000  1
  Hf  Hf19  1  0.500000  0.500000  0.500000  1
  Ir  Ir20  1  0.846435  0.153565  0.250000  1
  Ir  Ir21  1  0.846435  0.846435  0.750000  1
  Ir  Ir22  1  0.153565  0.153565  0.750000  1
  Ir  Ir23  1  0.153565  0.846435  0.250000  1
  Ir  Ir24  1  0.644292  0.355708  0.750000  1
  Ir  Ir25  1  0.644292  0.644292  0.250000  1
  Ir  Ir26  1  0.355708  0.355708  0.250000  1
  Ir  Ir27  1  0.355708  0.644292  0.750000  1
  Ir  Ir28  1  0.500000  0.000000  0.122395  1
  Ir  Ir29  1  0.500000  0.000000  0.622395  1
  Ir  Ir30  1  0.000000  0.500000  0.877605  1
  Ir  Ir31  1  0.000000  0.500000  0.377605  1
