# generated using pymatgen
data_Li4AcSm3(Si2Pb)2
_symmetry_space_group_name_H-M   'P 1'
_cell_length_a   9.87646104
_cell_length_b   9.87646160
_cell_length_c   6.98910100
_cell_angle_alpha   90.00000000
_cell_angle_beta   90.00000000
_cell_angle_gamma   153.31739490
_symmetry_Int_Tables_number   1
_chemical_formula_structural   Li4AcSm3(Si2Pb)2
_chemical_formula_sum   'Li4 Ac1 Sm3 Si4 Pb2'
_cell_volume   306.13753254
_cell_formula_units_Z   1
loop_
 _symmetry_equiv_pos_site_id
 _symmetry_equiv_pos_as_xyz
  1  'x, y, z'
loop_
 _atom_site_type_symbol
 _atom_site_label
 _atom_site_symmetry_multiplicity
 _atom_site_fract_x
 _atom_site_fract_y
 _atom_site_fract_z
 _atom_site_occupancy
  Li  Li0  1  0.817159  0.182841  0.555143  1
  Li  Li1  1  0.183917  0.816083  0.448332  1
  Li  Li2  1  0.183917  0.816083  0.051668  1
  Li  Li3  1  0.817159  0.182841  0.944857  1
  Ac  Ac4  1  0.549109  0.450891  0.250000  1
  Sm  Sm5  1  0.450984  0.549016  0.750000  1
  Sm  Sm6  1  0.352924  0.647076  0.250000  1
  Sm  Sm7  1  0.646702  0.353298  0.750000  1
  Si  Si8  1  0.941418  0.058582  0.072836  1
  Si  Si9  1  0.055612  0.944388  0.920670  1
  Si  Si10  1  0.055612  0.944388  0.579330  1
  Si  Si11  1  0.941418  0.058582  0.427164  1
  Pb  Pb12  1  0.723352  0.276648  0.250000  1
  Pb  Pb13  1  0.280716  0.719284  0.750000  1
