# generated using pymatgen
data_Tm3LuFe16(P3Ru)4
_symmetry_space_group_name_H-M   'P 1'
_cell_length_a   3.69485900
_cell_length_b   10.32564013
_cell_length_c   11.77845915
_cell_angle_alpha   90.01850287
_cell_angle_beta   90.00000000
_cell_angle_gamma   90.00000000
_symmetry_Int_Tables_number   1
_chemical_formula_structural   Tm3LuFe16(P3Ru)4
_chemical_formula_sum   'Tm3 Lu1 Fe16 P12 Ru4'
_cell_volume   449.36921055
_cell_formula_units_Z   1
loop_
 _symmetry_equiv_pos_site_id
 _symmetry_equiv_pos_as_xyz
  1  'x, y, z'
loop_
 _atom_site_type_symbol
 _atom_site_label
 _atom_site_symmetry_multiplicity
 _atom_site_fract_x
 _atom_site_fract_y
 _atom_site_fract_z
 _atom_site_occupancy
  Tm  Tm0  1  0.250000  0.581796  0.704014  1
  Tm  Tm1  1  0.250000  0.918608  0.203901  1
  Tm  Tm2  1  0.750000  0.418311  0.295965  1
  Lu  Lu3  1  0.750000  0.081177  0.796248  1
  Fe  Fe4  1  0.250000  0.405709  0.488832  1
  Fe  Fe5  1  0.250000  0.094245  0.988250  1
  Fe  Fe6  1  0.750000  0.594436  0.511257  1
  Fe  Fe7  1  0.750000  0.905970  0.010943  1
  Fe  Fe8  1  0.250000  0.219879  0.175324  1
  Fe  Fe9  1  0.250000  0.279826  0.675674  1
  Fe  Fe10  1  0.750000  0.780138  0.824550  1
  Fe  Fe11  1  0.750000  0.720048  0.324522  1
  Fe  Fe12  1  0.250000  0.878392  0.704401  1
  Fe  Fe13  1  0.250000  0.622283  0.204065  1
  Fe  Fe14  1  0.750000  0.122032  0.296049  1
  Fe  Fe15  1  0.750000  0.377102  0.795749  1
  Fe  Fe16  1  0.250000  0.462381  0.931978  1
  Fe  Fe17  1  0.250000  0.037285  0.432795  1
  Fe  Fe18  1  0.750000  0.537274  0.067484  1
  Fe  Fe19  1  0.750000  0.962980  0.568177  1
  P  P20  1  0.250000  0.424478  0.114928  1
  P  P21  1  0.250000  0.075550  0.615825  1
  P  P22  1  0.750000  0.575424  0.884774  1
  P  P23  1  0.750000  0.924618  0.385168  1
  P  P24  1  0.250000  0.264664  0.866964  1
  P  P25  1  0.250000  0.234226  0.366947  1
  P  P26  1  0.750000  0.734551  0.132743  1
  P  P27  1  0.750000  0.765789  0.633049  1
  P  P28  1  0.250000  0.595218  0.394605  1
  P  P29  1  0.250000  0.905208  0.894304  1
  P  P30  1  0.750000  0.404930  0.605251  1
  P  P31  1  0.750000  0.095254  0.105480  1
  Ru  Ru32  1  0.250000  0.708195  0.988150  1
  Ru  Ru33  1  0.250000  0.792082  0.488537  1
  Ru  Ru34  1  0.750000  0.291788  0.011460  1
  Ru  Ru35  1  0.750000  0.208150  0.511637  1
