# generated using pymatgen
data_Ca12Al3Ga5Ir8
_symmetry_space_group_name_H-M   'P 1'
_cell_length_a   5.82244500
_cell_length_b   7.82005957
_cell_length_c   13.80174302
_cell_angle_alpha   89.95614970
_cell_angle_beta   90.00000000
_cell_angle_gamma   90.00000000
_symmetry_Int_Tables_number   1
_chemical_formula_structural   Ca12Al3Ga5Ir8
_chemical_formula_sum   'Ca12 Al3 Ga5 Ir8'
_cell_volume   628.41893974
_cell_formula_units_Z   1
loop_
 _symmetry_equiv_pos_site_id
 _symmetry_equiv_pos_as_xyz
  1  'x, y, z'
loop_
 _atom_site_type_symbol
 _atom_site_label
 _atom_site_symmetry_multiplicity
 _atom_site_fract_x
 _atom_site_fract_y
 _atom_site_fract_z
 _atom_site_occupancy
  Ca  Ca0  1  0.140565  0.605517  0.096220  1
  Ca  Ca1  1  0.140565  0.894483  0.903780  1
  Ca  Ca2  1  0.857795  0.106013  0.404110  1
  Ca  Ca3  1  0.857795  0.393987  0.595890  1
  Ca  Ca4  1  0.859586  0.394448  0.903503  1
  Ca  Ca5  1  0.859586  0.105552  0.096497  1
  Ca  Ca6  1  0.140953  0.894553  0.596132  1
  Ca  Ca7  1  0.140953  0.605447  0.403868  1
  Ca  Ca8  1  0.375446  0.256721  0.249992  1
  Ca  Ca9  1  0.375446  0.243279  0.750008  1
  Ca  Ca10  1  0.624725  0.756616  0.250434  1
  Ca  Ca11  1  0.624725  0.743384  0.749566  1
  Al  Al12  1  0.406864  0.250000  0.000000  1
  Al  Al13  1  0.593870  0.750000  0.500000  1
  Al  Al14  1  0.593378  0.750000  0.000000  1
  Ga  Ga15  1  0.399339  0.250000  0.500000  1
  Ga  Ga16  1  0.843503  0.411034  0.249923  1
  Ga  Ga17  1  0.843503  0.088966  0.750077  1
  Ga  Ga18  1  0.157282  0.910327  0.249968  1
  Ga  Ga19  1  0.157282  0.589673  0.750032  1
  Ir  Ir20  1  0.640185  0.473232  0.092435  1
  Ir  Ir21  1  0.640185  0.026768  0.907565  1
  Ir  Ir22  1  0.360313  0.971604  0.406626  1
  Ir  Ir23  1  0.360313  0.528396  0.593374  1
  Ir  Ir24  1  0.359738  0.526555  0.907583  1
  Ir  Ir25  1  0.359738  0.973445  0.092417  1
  Ir  Ir26  1  0.643183  0.025229  0.592781  1
  Ir  Ir27  1  0.643183  0.474771  0.407219  1
