# generated using pymatgen
data_Ba3TmScO6
_symmetry_space_group_name_H-M   'P 1'
_cell_length_a   7.25542309
_cell_length_b   7.25542216
_cell_length_c   7.25542385
_cell_angle_alpha   93.33603626
_cell_angle_beta   93.33604740
_cell_angle_gamma   93.33603451
_symmetry_Int_Tables_number   1
_chemical_formula_structural   Ba3TmScO6
_chemical_formula_sum   'Ba6 Tm2 Sc2 O12'
_cell_volume   379.91328443
_cell_formula_units_Z   2
loop_
 _symmetry_equiv_pos_site_id
 _symmetry_equiv_pos_as_xyz
  1  'x, y, z'
loop_
 _atom_site_type_symbol
 _atom_site_label
 _atom_site_symmetry_multiplicity
 _atom_site_fract_x
 _atom_site_fract_y
 _atom_site_fract_z
 _atom_site_occupancy
  Ba  Ba0  1  0.250000  0.890328  0.609672  1
  Ba  Ba1  1  0.890328  0.609672  0.250000  1
  Ba  Ba2  1  0.750000  0.109672  0.390328  1
  Ba  Ba3  1  0.390328  0.750000  0.109672  1
  Ba  Ba4  1  0.109672  0.390328  0.750000  1
  Ba  Ba5  1  0.609672  0.250000  0.890328  1
  Tm  Tm6  1  0.750000  0.750000  0.750000  1
  Tm  Tm7  1  0.250000  0.250000  0.250000  1
  Sc  Sc8  1  0.500000  0.500000  0.500000  1
  Sc  Sc9  1  0.000000  0.000000  0.000000  1
  O  O10  1  0.597918  0.782650  0.469957  1
  O  O11  1  0.469957  0.597918  0.782650  1
  O  O12  1  0.782650  0.469957  0.597918  1
  O  O13  1  0.902082  0.030043  0.717350  1
  O  O14  1  0.717350  0.902082  0.030043  1
  O  O15  1  0.030043  0.717350  0.902082  1
  O  O16  1  0.402082  0.217350  0.530043  1
  O  O17  1  0.530043  0.402082  0.217350  1
  O  O18  1  0.217350  0.530043  0.402082  1
  O  O19  1  0.097918  0.969957  0.282650  1
  O  O20  1  0.969957  0.282650  0.097918  1
  O  O21  1  0.282650  0.097918  0.969957  1
