# generated using pymatgen
data_TbY4(Pd4Au)3
_symmetry_space_group_name_H-M   'P 1'
_cell_length_a   4.18886100
_cell_length_b   4.10030500
_cell_length_c   21.02327600
_cell_angle_alpha   90.00000000
_cell_angle_beta   90.00000000
_cell_angle_gamma   90.00000000
_symmetry_Int_Tables_number   1
_chemical_formula_structural   TbY4(Pd4Au)3
_chemical_formula_sum   'Tb1 Y4 Pd12 Au3'
_cell_volume   361.08754120
_cell_formula_units_Z   1
loop_
 _symmetry_equiv_pos_site_id
 _symmetry_equiv_pos_as_xyz
  1  'x, y, z'
loop_
 _atom_site_type_symbol
 _atom_site_label
 _atom_site_symmetry_multiplicity
 _atom_site_fract_x
 _atom_site_fract_y
 _atom_site_fract_z
 _atom_site_occupancy
  Tb  Tb0  1  0.000000  0.000000  0.995012  1
  Y  Y1  1  0.000000  0.000000  0.199945  1
  Y  Y2  1  0.000000  0.000000  0.404882  1
  Y  Y3  1  0.000000  0.000000  0.597202  1
  Y  Y4  1  0.000000  0.000000  0.802879  1
  Pd  Pd5  1  0.500000  0.500000  0.999414  1
  Pd  Pd6  1  0.500000  0.500000  0.199933  1
  Pd  Pd7  1  0.500000  0.500000  0.400565  1
  Pd  Pd8  1  0.500000  0.500000  0.599247  1
  Pd  Pd9  1  0.500000  0.500000  0.800804  1
  Pd  Pd10  1  0.500000  0.000000  0.499989  1
  Pd  Pd11  1  0.500000  0.000000  0.900121  1
  Pd  Pd12  1  0.000000  0.500000  0.099473  1
  Pd  Pd13  1  0.000000  0.500000  0.300361  1
  Pd  Pd14  1  0.000000  0.500000  0.500034  1
  Pd  Pd15  1  0.000000  0.500000  0.700020  1
  Pd  Pd16  1  0.000000  0.500000  0.900111  1
  Au  Au17  1  0.500000  0.000000  0.098483  1
  Au  Au18  1  0.500000  0.000000  0.301457  1
  Au  Au19  1  0.500000  0.000000  0.700070  1
