# generated using pymatgen
data_K3TlSi12AsP11
_symmetry_space_group_name_H-M   'P 1'
_cell_length_a   3.55386300
_cell_length_b   9.99740283
_cell_length_c   19.25923784
_cell_angle_alpha   90.70751807
_cell_angle_beta   90.00000000
_cell_angle_gamma   90.00000000
_symmetry_Int_Tables_number   1
_chemical_formula_structural   K3TlSi12AsP11
_chemical_formula_sum   'K3 Tl1 Si12 As1 P11'
_cell_volume   684.21699514
_cell_formula_units_Z   1
loop_
 _symmetry_equiv_pos_site_id
 _symmetry_equiv_pos_as_xyz
  1  'x, y, z'
loop_
 _atom_site_type_symbol
 _atom_site_label
 _atom_site_symmetry_multiplicity
 _atom_site_fract_x
 _atom_site_fract_y
 _atom_site_fract_z
 _atom_site_occupancy
  K  K0  1  0.000000  0.679598  0.694296  1
  K  K1  1  0.000000  0.179357  0.803269  1
  K  K2  1  0.000000  0.828252  0.203571  1
  Tl  Tl3  1  0.000000  0.318999  0.302931  1
  Si  Si4  1  0.500000  0.403893  0.033622  1
  Si  Si5  1  0.500000  0.593746  0.963107  1
  Si  Si6  1  0.500000  0.096673  0.534886  1
  Si  Si7  1  0.500000  0.901343  0.464915  1
  Si  Si8  1  0.000000  0.116154  0.014167  1
  Si  Si9  1  0.000000  0.889280  0.984072  1
  Si  Si10  1  0.000000  0.384172  0.515918  1
  Si  Si11  1  0.000000  0.611214  0.485074  1
  Si  Si12  1  0.000000  0.187190  0.131103  1
  Si  Si13  1  0.000000  0.817443  0.867302  1
  Si  Si14  1  0.000000  0.319317  0.632952  1
  Si  Si15  1  0.000000  0.675325  0.367969  1
  As  As16  1  0.500000  0.782896  0.043886  1
  P  P17  1  0.500000  0.122379  0.193798  1
  P  P18  1  0.500000  0.882293  0.805110  1
  P  P19  1  0.500000  0.384706  0.695716  1
  P  P20  1  0.500000  0.612030  0.304106  1
  P  P21  1  0.500000  0.280792  0.462766  1
  P  P22  1  0.500000  0.716995  0.537106  1
  P  P23  1  0.500000  0.217550  0.961515  1
  P  P24  1  0.000000  0.413717  0.107880  1
  P  P25  1  0.000000  0.589669  0.889170  1
  P  P26  1  0.000000  0.091250  0.608966  1
  P  P27  1  0.000000  0.903765  0.390829  1
