# generated using pymatgen
data_HoZr3(Al8Pt3)3
_symmetry_space_group_name_H-M   'P 1'
_cell_length_a   7.48662678
_cell_length_b   7.48771030
_cell_length_c   13.00298701
_cell_angle_alpha   84.44865781
_cell_angle_beta   101.01804090
_cell_angle_gamma   119.92395569
_symmetry_Int_Tables_number   1
_chemical_formula_structural   HoZr3(Al8Pt3)3
_chemical_formula_sum   'Ho1 Zr3 Al24 Pt9'
_cell_volume   620.09844441
_cell_formula_units_Z   1
loop_
 _symmetry_equiv_pos_site_id
 _symmetry_equiv_pos_as_xyz
  1  'x, y, z'
loop_
 _atom_site_type_symbol
 _atom_site_label
 _atom_site_symmetry_multiplicity
 _atom_site_fract_x
 _atom_site_fract_y
 _atom_site_fract_z
 _atom_site_occupancy
  Ho  Ho0  1  0.938334  0.331925  0.808898  1
  Zr  Zr1  1  0.731755  0.998880  0.189079  1
  Zr  Zr2  1  0.268307  0.000447  0.811431  1
  Zr  Zr3  1  0.060991  0.668168  0.189121  1
  Al  Al4  1  0.811875  0.868713  0.815403  1
  Al  Al5  1  0.187381  0.125124  0.184883  1
  Al  Al6  1  0.984493  0.668763  0.943867  1
  Al  Al7  1  0.016821  0.333612  0.060730  1
  Al  Al8  1  0.398440  0.669448  0.816322  1
  Al  Al9  1  0.607593  0.335686  0.183445  1
  Al  Al10  1  0.885594  0.667087  0.673231  1
  Al  Al11  1  0.113364  0.334841  0.323533  1
  Al  Al12  1  0.597749  0.453030  0.815945  1
  Al  Al13  1  0.397714  0.548136  0.184465  1
  Al  Al14  1  0.230005  0.337413  0.671484  1
  Al  Al15  1  0.770426  0.662204  0.325218  1
  Al  Al16  1  0.852868  0.333354  0.559870  1
  Al  Al17  1  0.187075  0.999812  0.561128  1
  Al  Al18  1  0.812894  0.000331  0.438937  1
  Al  Al19  1  0.353217  0.995856  0.059340  1
  Al  Al20  1  0.645469  0.001137  0.943768  1
  Al  Al21  1  0.554849  0.993954  0.673258  1
  Al  Al22  1  0.442165  0.004519  0.323314  1
  Al  Al23  1  0.521528  0.667445  0.563525  1
  Al  Al24  1  0.478131  0.332581  0.436554  1
  Al  Al25  1  0.687532  0.670401  0.051863  1
  Al  Al26  1  0.316603  0.330303  0.951875  1
  Al  Al27  1  0.146864  0.666759  0.438825  1
  Pt  Pt28  1  0.328029  0.670778  0.000668  1
  Pt  Pt29  1  0.545616  0.324213  0.637447  1
  Pt  Pt30  1  0.454465  0.676594  0.362482  1
  Pt  Pt31  1  0.888344  0.008852  0.638829  1
  Pt  Pt32  1  0.110776  0.990496  0.361055  1
  Pt  Pt33  1  0.672757  0.328712  0.000249  1
  Pt  Pt34  1  0.203266  0.666477  0.638736  1
  Pt  Pt35  1  0.797015  0.333420  0.360673  1
  Pt  Pt36  1  0.999696  0.000530  0.000547  1
