# generated using pymatgen
data_Ho3In3Ag2Rh
_symmetry_space_group_name_H-M   'P 1'
_cell_length_a   7.74151500
_cell_length_b   7.74151555
_cell_length_c   3.93918500
_cell_angle_alpha   90.00000000
_cell_angle_beta   90.00000000
_cell_angle_gamma   120.00000192
_symmetry_Int_Tables_number   1
_chemical_formula_structural   Ho3In3Ag2Rh
_chemical_formula_sum   'Ho3 In3 Ag2 Rh1'
_cell_volume   204.45086431
_cell_formula_units_Z   1
loop_
 _symmetry_equiv_pos_site_id
 _symmetry_equiv_pos_as_xyz
  1  'x, y, z'
loop_
 _atom_site_type_symbol
 _atom_site_label
 _atom_site_symmetry_multiplicity
 _atom_site_fract_x
 _atom_site_fract_y
 _atom_site_fract_z
 _atom_site_occupancy
  Ho  Ho0  1  0.974573  0.397700  0.500000  1
  Ho  Ho1  1  0.602300  0.576873  0.500000  1
  Ho  Ho2  1  0.423127  0.025427  0.500000  1
  In  In3  1  0.264229  0.261577  0.000000  1
  In  In4  1  0.997348  0.735771  0.000000  1
  In  In5  1  0.738423  0.002652  0.000000  1
  Ag  Ag6  1  0.333333  0.666667  0.000000  1
  Ag  Ag7  1  0.000000  0.000000  0.500000  1
  Rh  Rh8  1  0.666667  0.333333  0.000000  1
