# generated using pymatgen
data_TmCu4HgO8
_symmetry_space_group_name_H-M   'P 1'
_cell_length_a   6.26018893
_cell_length_b   6.26019006
_cell_length_c   6.26018980
_cell_angle_alpha   125.57480611
_cell_angle_beta   125.57480800
_cell_angle_gamma   80.58810453
_symmetry_Int_Tables_number   1
_chemical_formula_structural   TmCu4HgO8
_chemical_formula_sum   'Tm1 Cu4 Hg1 O8'
_cell_volume   156.52595487
_cell_formula_units_Z   1
loop_
 _symmetry_equiv_pos_site_id
 _symmetry_equiv_pos_as_xyz
  1  'x, y, z'
loop_
 _atom_site_type_symbol
 _atom_site_label
 _atom_site_symmetry_multiplicity
 _atom_site_fract_x
 _atom_site_fract_y
 _atom_site_fract_z
 _atom_site_occupancy
  Tm  Tm0  1  0.000000  0.000000  0.000000  1
  Cu  Cu1  1  0.383345  0.627225  0.261321  1
  Cu  Cu2  1  0.372775  0.634095  0.756119  1
  Cu  Cu3  1  0.877976  0.616655  0.243881  1
  Cu  Cu4  1  0.365905  0.122024  0.738679  1
  Hg  Hg5  1  0.750000  0.250000  0.500000  1
  O  O6  1  0.172801  0.612527  0.882184  1
  O  O7  1  0.730343  0.290618  0.117816  1
  O  O8  1  0.325517  0.984365  0.916344  1
  O  O9  1  0.709382  0.827199  0.439725  1
  O  O10  1  0.068021  0.409172  0.083656  1
  O  O11  1  0.387473  0.269657  0.560275  1
  O  O12  1  0.015635  0.931979  0.341152  1
  O  O13  1  0.590828  0.674483  0.658848  1
