# generated using pymatgen
data_Ho4Ga20(OsRu)3
_symmetry_space_group_name_H-M   'P 1'
_cell_length_a   8.88830400
_cell_length_b   8.88830402
_cell_length_c   6.40688700
_cell_angle_alpha   90.00000000
_cell_angle_beta   90.00000000
_cell_angle_gamma   90.00285567
_symmetry_Int_Tables_number   1
_chemical_formula_structural   Ho4Ga20(OsRu)3
_chemical_formula_sum   'Ho4 Ga20 Os3 Ru3'
_cell_volume   506.15655398
_cell_formula_units_Z   1
loop_
 _symmetry_equiv_pos_site_id
 _symmetry_equiv_pos_as_xyz
  1  'x, y, z'
loop_
 _atom_site_type_symbol
 _atom_site_label
 _atom_site_symmetry_multiplicity
 _atom_site_fract_x
 _atom_site_fract_y
 _atom_site_fract_z
 _atom_site_occupancy
  Ho  Ho0  1  0.183459  0.316662  0.000000  1
  Ho  Ho1  1  0.683400  0.183400  0.000000  1
  Ho  Ho2  1  0.816662  0.683459  0.000000  1
  Ho  Ho3  1  0.316492  0.816492  0.000000  1
  Ga  Ga4  1  0.499351  0.999351  0.285061  1
  Ga  Ga5  1  0.499351  0.999351  0.714939  1
  Ga  Ga6  1  0.292807  0.561449  0.706324  1
  Ga  Ga7  1  0.000151  0.500151  0.284987  1
  Ga  Ga8  1  0.000151  0.500151  0.715013  1
  Ga  Ga9  1  0.061449  0.792807  0.706324  1
  Ga  Ga10  1  0.207008  0.061188  0.293570  1
  Ga  Ga11  1  0.061449  0.792807  0.293676  1
  Ga  Ga12  1  0.706986  0.439386  0.706909  1
  Ga  Ga13  1  0.207008  0.061188  0.706430  1
  Ga  Ga14  1  0.939386  0.206986  0.706909  1
  Ga  Ga15  1  0.706986  0.439386  0.293091  1
  Ga  Ga16  1  0.561188  0.707008  0.293570  1
  Ga  Ga17  1  0.939386  0.206986  0.293091  1
  Ga  Ga18  1  0.561188  0.707008  0.706430  1
  Ga  Ga19  1  0.793395  0.938289  0.293270  1
  Ga  Ga20  1  0.438289  0.293395  0.706730  1
  Ga  Ga21  1  0.793395  0.938289  0.706730  1
  Ga  Ga22  1  0.438289  0.293395  0.293270  1
  Ga  Ga23  1  0.292807  0.561449  0.293676  1
  Os  Os24  1  0.999837  0.000119  0.000000  1
  Os  Os25  1  0.678186  0.178186  0.500000  1
  Os  Os26  1  0.500119  0.499837  0.000000  1
  Ru  Ru27  1  0.178099  0.321817  0.500000  1
  Ru  Ru28  1  0.321910  0.821910  0.500000  1
  Ru  Ru29  1  0.821817  0.678099  0.500000  1
