# generated using pymatgen
data_Ho10Pt17Au
_symmetry_space_group_name_H-M   'P 1'
_cell_length_a   9.74440000
_cell_length_b   9.74439978
_cell_length_c   5.76256800
_cell_angle_alpha   90.00000000
_cell_angle_beta   90.00000000
_cell_angle_gamma   90.61688058
_symmetry_Int_Tables_number   1
_chemical_formula_structural   Ho10Pt17Au
_chemical_formula_sum   'Ho10 Pt17 Au1'
_cell_volume   547.14330247
_cell_formula_units_Z   1
loop_
 _symmetry_equiv_pos_site_id
 _symmetry_equiv_pos_as_xyz
  1  'x, y, z'
loop_
 _atom_site_type_symbol
 _atom_site_label
 _atom_site_symmetry_multiplicity
 _atom_site_fract_x
 _atom_site_fract_y
 _atom_site_fract_z
 _atom_site_occupancy
  Ho  Ho0  1  0.453436  0.807785  0.000000  1
  Ho  Ho1  1  0.546564  0.192215  0.000000  1
  Ho  Ho2  1  0.192215  0.546564  0.000000  1
  Ho  Ho3  1  0.807785  0.453436  0.000000  1
  Ho  Ho4  1  0.500000  0.500000  0.500000  1
  Ho  Ho5  1  0.315194  0.047010  0.500000  1
  Ho  Ho6  1  0.684806  0.952990  0.500000  1
  Ho  Ho7  1  0.952990  0.684806  0.500000  1
  Ho  Ho8  1  0.047010  0.315194  0.500000  1
  Ho  Ho9  1  0.000000  0.000000  0.000000  1
  Pt  Pt10  1  0.193108  0.806892  0.249997  1
  Pt  Pt11  1  0.806892  0.193108  0.750003  1
  Pt  Pt12  1  0.806892  0.193108  0.249997  1
  Pt  Pt13  1  0.193108  0.806892  0.750003  1
  Pt  Pt14  1  0.441363  0.780555  0.500000  1
  Pt  Pt15  1  0.558637  0.219445  0.500000  1
  Pt  Pt16  1  0.219445  0.558637  0.500000  1
  Pt  Pt17  1  0.780555  0.441363  0.500000  1
  Pt  Pt18  1  0.306959  0.306959  0.249207  1
  Pt  Pt19  1  0.693041  0.693041  0.750793  1
  Pt  Pt20  1  0.693041  0.693041  0.249207  1
  Pt  Pt21  1  0.306959  0.306959  0.750793  1
  Pt  Pt22  1  0.281416  0.057704  0.000000  1
  Pt  Pt23  1  0.718584  0.942296  0.000000  1
  Pt  Pt24  1  0.942296  0.718584  0.000000  1
  Pt  Pt25  1  0.057704  0.281416  0.000000  1
  Pt  Pt26  1  0.500000  0.500000  0.000000  1
  Au  Au27  1  0.000000  0.000000  0.500000  1
