# generated using pymatgen
data_Cr2SbPtO8
_symmetry_space_group_name_H-M   'P 1'
_cell_length_a   4.61842557
_cell_length_b   6.23618700
_cell_length_c   9.75393342
_cell_angle_alpha   71.35670296
_cell_angle_beta   91.41211339
_cell_angle_gamma   89.99999379
_symmetry_Int_Tables_number   1
_chemical_formula_structural   Cr2SbPtO8
_chemical_formula_sum   'Cr4 Sb2 Pt2 O16'
_cell_volume   266.09552761
_cell_formula_units_Z   2
loop_
 _symmetry_equiv_pos_site_id
 _symmetry_equiv_pos_as_xyz
  1  'x, y, z'
loop_
 _atom_site_type_symbol
 _atom_site_label
 _atom_site_symmetry_multiplicity
 _atom_site_fract_x
 _atom_site_fract_y
 _atom_site_fract_z
 _atom_site_occupancy
  Cr  Cr0  1  0.500000  0.125000  0.250000  1
  Cr  Cr1  1  0.500000  0.873307  0.750000  1
  Cr  Cr2  1  0.500000  0.376693  0.750000  1
  Cr  Cr3  1  0.500000  0.625000  0.250000  1
  Sb  Sb4  1  0.999349  0.249999  0.500003  1
  Sb  Sb5  1  0.000651  0.000001  0.999997  1
  Pt  Pt6  1  0.000349  0.750075  0.499850  1
  Pt  Pt7  1  0.999651  0.499925  0.000150  1
  O  O8  1  0.694169  0.576497  0.847007  1
  O  O9  1  0.691017  0.326763  0.346474  1
  O  O10  1  0.691618  0.077158  0.845684  1
  O  O11  1  0.695140  0.826611  0.346778  1
  O  O12  1  0.305831  0.673503  0.652993  1
  O  O13  1  0.304860  0.423389  0.153222  1
  O  O14  1  0.308382  0.172842  0.654316  1
  O  O15  1  0.308983  0.923237  0.153526  1
  O  O16  1  0.194191  0.298203  0.902844  1
  O  O17  1  0.194132  0.049234  0.403012  1
  O  O18  1  0.194191  0.798952  0.902844  1
  O  O19  1  0.194132  0.547753  0.403012  1
  O  O20  1  0.805809  0.451048  0.597156  1
  O  O21  1  0.805868  0.200766  0.096988  1
  O  O22  1  0.805809  0.951797  0.597156  1
  O  O23  1  0.805868  0.702247  0.096988  1
