# generated using pymatgen
data_LaNdCuNi4Sb3
_symmetry_space_group_name_H-M   'P 1'
_cell_length_a   4.35750900
_cell_length_b   4.36044500
_cell_length_c   10.06978700
_cell_angle_alpha   90.00000000
_cell_angle_beta   90.00000000
_cell_angle_gamma   90.00000000
_symmetry_Int_Tables_number   1
_chemical_formula_structural   LaNdCuNi4Sb3
_chemical_formula_sum   'La1 Nd1 Cu1 Ni4 Sb3'
_cell_volume   191.33278365
_cell_formula_units_Z   1
loop_
 _symmetry_equiv_pos_site_id
 _symmetry_equiv_pos_as_xyz
  1  'x, y, z'
loop_
 _atom_site_type_symbol
 _atom_site_label
 _atom_site_symmetry_multiplicity
 _atom_site_fract_x
 _atom_site_fract_y
 _atom_site_fract_z
 _atom_site_occupancy
  La  La0  1  0.000000  0.500000  0.750601  1
  Nd  Nd1  1  0.500000  0.000000  0.248200  1
  Cu  Cu2  1  0.500000  0.500000  0.496386  1
  Ni  Ni3  1  0.000000  0.500000  0.381102  1
  Ni  Ni4  1  0.500000  0.000000  0.618599  1
  Ni  Ni5  1  0.500000  0.500000  0.001646  1
  Ni  Ni6  1  0.000000  0.000000  0.001722  1
  Sb  Sb7  1  0.000000  0.500000  0.134446  1
  Sb  Sb8  1  0.500000  0.000000  0.868974  1
  Sb  Sb9  1  0.000000  0.000000  0.498323  1
