# generated using pymatgen
data_TiNb5B4(Os4Ru)2
_symmetry_space_group_name_H-M   'P 1'
_cell_length_a   9.47770400
_cell_length_b   9.47770400
_cell_length_c   3.02685100
_cell_angle_alpha   90.00000000
_cell_angle_beta   90.00000000
_cell_angle_gamma   90.00000000
_symmetry_Int_Tables_number   1
_chemical_formula_structural   TiNb5B4(Os4Ru)2
_chemical_formula_sum   'Ti1 Nb5 B4 Os8 Ru2'
_cell_volume   271.89256070
_cell_formula_units_Z   1
loop_
 _symmetry_equiv_pos_site_id
 _symmetry_equiv_pos_as_xyz
  1  'x, y, z'
loop_
 _atom_site_type_symbol
 _atom_site_label
 _atom_site_symmetry_multiplicity
 _atom_site_fract_x
 _atom_site_fract_y
 _atom_site_fract_z
 _atom_site_occupancy
  Ti  Ti0  1  0.500000  0.500000  0.000000  1
  Nb  Nb1  1  0.821154  0.675451  0.000000  1
  Nb  Nb2  1  0.178846  0.324549  0.000000  1
  Nb  Nb3  1  0.324549  0.821154  0.000000  1
  Nb  Nb4  1  0.675451  0.178846  0.000000  1
  Nb  Nb5  1  0.000000  0.000000  0.000000  1
  B  B6  1  0.618373  0.874786  0.000000  1
  B  B7  1  0.381627  0.125214  0.000000  1
  B  B8  1  0.125214  0.618373  0.000000  1
  B  B9  1  0.874786  0.381627  0.000000  1
  Os  Os10  1  0.568681  0.716124  0.500000  1
  Os  Os11  1  0.431319  0.283876  0.500000  1
  Os  Os12  1  0.071159  0.779630  0.500000  1
  Os  Os13  1  0.928841  0.220370  0.500000  1
  Os  Os14  1  0.283876  0.568681  0.500000  1
  Os  Os15  1  0.716124  0.431319  0.500000  1
  Os  Os16  1  0.220370  0.071159  0.500000  1
  Os  Os17  1  0.779630  0.928841  0.500000  1
  Ru  Ru18  1  0.500000  0.000000  0.500000  1
  Ru  Ru19  1  0.000000  0.500000  0.500000  1
