# generated using pymatgen
data_LaTb2Th3Si4
_symmetry_space_group_name_H-M   'P 1'
_cell_length_a   7.70329348
_cell_length_b   7.70329313
_cell_length_c   4.29843800
_cell_angle_alpha   90.00000000
_cell_angle_beta   90.00000000
_cell_angle_gamma   90.57819944
_symmetry_Int_Tables_number   1
_chemical_formula_structural   LaTb2Th3Si4
_chemical_formula_sum   'La1 Tb2 Th3 Si4'
_cell_volume   255.05945114
_cell_formula_units_Z   1
loop_
 _symmetry_equiv_pos_site_id
 _symmetry_equiv_pos_as_xyz
  1  'x, y, z'
loop_
 _atom_site_type_symbol
 _atom_site_label
 _atom_site_symmetry_multiplicity
 _atom_site_fract_x
 _atom_site_fract_y
 _atom_site_fract_z
 _atom_site_occupancy
  La  La0  1  0.822534  0.677466  0.500000  1
  Tb  Tb1  1  0.999302  0.001187  0.000000  1
  Tb  Tb2  1  0.498813  0.500698  0.000000  1
  Th  Th3  1  0.677348  0.178962  0.500000  1
  Th  Th4  1  0.321038  0.822652  0.500000  1
  Th  Th5  1  0.179220  0.320780  0.500000  1
  Si  Si6  1  0.120640  0.613082  0.000000  1
  Si  Si7  1  0.886918  0.379360  0.000000  1
  Si  Si8  1  0.611242  0.888758  0.000000  1
  Si  Si9  1  0.382944  0.117056  0.000000  1
