# generated using pymatgen
data_UPa3Tc2Ge3P3Ru5
_symmetry_space_group_name_H-M   'P 1'
_cell_length_a   7.21423114
_cell_length_b   7.18772770
_cell_length_c   7.18979100
_cell_angle_alpha   109.61862899
_cell_angle_beta   109.32781192
_cell_angle_gamma   109.52663020
_symmetry_Int_Tables_number   1
_chemical_formula_structural   UPa3Tc2Ge3P3Ru5
_chemical_formula_sum   'U1 Pa3 Tc2 Ge3 P3 Ru5'
_cell_volume   286.78407035
_cell_formula_units_Z   1
loop_
 _symmetry_equiv_pos_site_id
 _symmetry_equiv_pos_as_xyz
  1  'x, y, z'
loop_
 _atom_site_type_symbol
 _atom_site_label
 _atom_site_symmetry_multiplicity
 _atom_site_fract_x
 _atom_site_fract_y
 _atom_site_fract_z
 _atom_site_occupancy
  U  U0  1  0.489558  0.000262  0.997086  1
  Pa  Pa1  1  0.490672  0.491743  0.489402  1
  Pa  Pa2  1  0.002371  0.000956  0.509881  1
  Pa  Pa3  1  0.002294  0.492168  0.001145  1
  Tc  Tc4  1  0.243152  0.743655  0.504879  1
  Tc  Tc5  1  0.017227  0.017355  0.000169  1
  Ge  Ge6  1  0.679874  0.995852  0.685200  1
  Ge  Ge7  1  0.311796  0.995110  0.314718  1
  Ge  Ge8  1  0.695804  0.697167  0.999970  1
  P  P9  1  0.323901  0.323412  0.999860  1
  P  P10  1  0.997769  0.310798  0.312851  1
  P  P11  1  0.998720  0.685819  0.688126  1
  Ru  Ru12  1  0.751985  0.251737  0.495964  1
  Ru  Ru13  1  0.498536  0.251512  0.756106  1
  Ru  Ru14  1  0.498690  0.745792  0.243873  1
  Ru  Ru15  1  0.248652  0.501485  0.750237  1
  Ru  Ru16  1  0.748999  0.495180  0.250532  1
