# generated using pymatgen
data_Er4FeB4Ir9
_symmetry_space_group_name_H-M   'P 1'
_cell_length_a   10.73927020
_cell_length_b   10.73926946
_cell_length_c   10.73926948
_cell_angle_alpha   29.65111717
_cell_angle_beta   29.65112785
_cell_angle_gamma   29.65111681
_symmetry_Int_Tables_number   1
_chemical_formula_structural   Er4FeB4Ir9
_chemical_formula_sum   'Er4 Fe1 B4 Ir9'
_cell_volume   268.37506369
_cell_formula_units_Z   1
loop_
 _symmetry_equiv_pos_site_id
 _symmetry_equiv_pos_as_xyz
  1  'x, y, z'
loop_
 _atom_site_type_symbol
 _atom_site_label
 _atom_site_symmetry_multiplicity
 _atom_site_fract_x
 _atom_site_fract_y
 _atom_site_fract_z
 _atom_site_occupancy
  Er  Er0  1  0.151353  0.151353  0.151353  1
  Er  Er1  1  0.949696  0.949696  0.949696  1
  Er  Er2  1  0.848647  0.848647  0.848647  1
  Er  Er3  1  0.050304  0.050304  0.050304  1
  Fe  Fe4  1  0.500000  0.500000  0.500000  1
  B  B5  1  0.615505  0.615505  0.615505  1
  B  B6  1  0.717907  0.717907  0.717907  1
  B  B7  1  0.384495  0.384495  0.384495  1
  B  B8  1  0.282093  0.282093  0.282093  1
  Ir  Ir9  1  0.402166  0.899513  0.402166  1
  Ir  Ir10  1  0.899513  0.402166  0.402166  1
  Ir  Ir11  1  0.500000  0.500000  0.000000  1
  Ir  Ir12  1  0.500000  0.000000  0.500000  1
  Ir  Ir13  1  0.000000  0.500000  0.500000  1
  Ir  Ir14  1  0.597834  0.100487  0.597834  1
  Ir  Ir15  1  0.597834  0.597834  0.100487  1
  Ir  Ir16  1  0.100487  0.597834  0.597834  1
  Ir  Ir17  1  0.402166  0.402166  0.899513  1
