# generated using pymatgen
data_TbDyZrSc(Al3Ir)6
_symmetry_space_group_name_H-M   'P 1'
_cell_length_a   7.51957800
_cell_length_b   7.51832141
_cell_length_c   9.38679500
_cell_angle_alpha   90.00000000
_cell_angle_beta   90.00000000
_cell_angle_gamma   119.63640906
_symmetry_Int_Tables_number   1
_chemical_formula_structural   TbDyZrSc(Al3Ir)6
_chemical_formula_sum   'Tb1 Dy1 Zr1 Sc1 Al18 Ir6'
_cell_volume   461.25581222
_cell_formula_units_Z   1
loop_
 _symmetry_equiv_pos_site_id
 _symmetry_equiv_pos_as_xyz
  1  'x, y, z'
loop_
 _atom_site_type_symbol
 _atom_site_label
 _atom_site_symmetry_multiplicity
 _atom_site_fract_x
 _atom_site_fract_y
 _atom_site_fract_z
 _atom_site_occupancy
  Tb  Tb0  1  0.005838  0.327480  0.250000  1
  Dy  Dy1  1  0.329239  0.007009  0.250000  1
  Zr  Zr2  1  0.996700  0.672019  0.750000  1
  Sc  Sc3  1  0.671586  0.996083  0.750000  1
  Al  Al4  1  0.122213  0.121173  0.750000  1
  Al  Al5  1  0.869248  0.868889  0.250000  1
  Al  Al6  1  0.997117  0.334681  0.581790  1
  Al  Al7  1  0.998802  0.664998  0.430158  1
  Al  Al8  1  0.998802  0.664998  0.069842  1
  Al  Al9  1  0.335536  0.998009  0.918192  1
  Al  Al10  1  0.997117  0.334681  0.918210  1
  Al  Al11  1  0.664647  0.998050  0.070139  1
  Al  Al12  1  0.664647  0.998050  0.429861  1
  Al  Al13  1  0.335536  0.998009  0.581808  1
  Al  Al14  1  0.334264  0.334353  0.048621  1
  Al  Al15  1  0.669247  0.669551  0.939575  1
  Al  Al16  1  0.669247  0.669551  0.560425  1
  Al  Al17  1  0.334264  0.334353  0.451379  1
  Al  Al18  1  0.338551  0.553943  0.750000  1
  Al  Al19  1  0.660175  0.452515  0.250000  1
  Al  Al20  1  0.556125  0.342298  0.750000  1
  Al  Al21  1  0.451821  0.660168  0.250000  1
  Ir  Ir22  1  0.672454  0.328261  0.501483  1
  Ir  Ir23  1  0.327770  0.672303  0.502101  1
  Ir  Ir24  1  0.327770  0.672303  0.997899  1
  Ir  Ir25  1  0.672454  0.328261  0.998517  1
  Ir  Ir26  1  0.999415  0.999005  0.501405  1
  Ir  Ir27  1  0.999415  0.999005  0.998595  1
