# generated using pymatgen
data_KHgSbAu2
_symmetry_space_group_name_H-M   'P 1'
_cell_length_a   4.74787900
_cell_length_b   4.84909075
_cell_length_c   11.36262200
_cell_angle_alpha   88.51675334
_cell_angle_beta   90.00000000
_cell_angle_gamma   90.00000000
_symmetry_Int_Tables_number   1
_chemical_formula_structural   KHgSbAu2
_chemical_formula_sum   'K2 Hg2 Sb2 Au4'
_cell_volume   261.51281361
_cell_formula_units_Z   2
loop_
 _symmetry_equiv_pos_site_id
 _symmetry_equiv_pos_as_xyz
  1  'x, y, z'
loop_
 _atom_site_type_symbol
 _atom_site_label
 _atom_site_symmetry_multiplicity
 _atom_site_fract_x
 _atom_site_fract_y
 _atom_site_fract_z
 _atom_site_occupancy
  K  K0  1  0.250000  0.728531  0.746310  1
  K  K1  1  0.750000  0.271469  0.253690  1
  Hg  Hg2  1  0.750000  0.746373  0.501223  1
  Hg  Hg3  1  0.250000  0.253627  0.498777  1
  Sb  Sb4  1  0.250000  0.824790  0.115835  1
  Sb  Sb5  1  0.750000  0.175210  0.884165  1
  Au  Au6  1  0.750000  0.671164  0.006840  1
  Au  Au7  1  0.750000  0.236765  0.648239  1
  Au  Au8  1  0.250000  0.763235  0.351761  1
  Au  Au9  1  0.250000  0.328836  0.993160  1
