# generated using pymatgen
data_La8Si13P
_symmetry_space_group_name_H-M   'P 1'
_cell_length_a   8.19389142
_cell_length_b   8.17820048
_cell_length_c   8.66873900
_cell_angle_alpha   90.00000000
_cell_angle_beta   90.00000000
_cell_angle_gamma   120.18404877
_symmetry_Int_Tables_number   1
_chemical_formula_structural   La8Si13P
_chemical_formula_sum   'La8 Si13 P1'
_cell_volume   502.14146308
_cell_formula_units_Z   1
loop_
 _symmetry_equiv_pos_site_id
 _symmetry_equiv_pos_as_xyz
  1  'x, y, z'
loop_
 _atom_site_type_symbol
 _atom_site_label
 _atom_site_symmetry_multiplicity
 _atom_site_fract_x
 _atom_site_fract_y
 _atom_site_fract_z
 _atom_site_occupancy
  La  La0  1  0.252720  0.254308  0.001735  1
  La  La1  1  0.745940  0.745073  0.000577  1
  La  La2  1  0.745940  0.745073  0.499423  1
  La  La3  1  0.252720  0.254308  0.498265  1
  La  La4  1  0.250133  0.747207  0.495617  1
  La  La5  1  0.750501  0.251496  0.501408  1
  La  La6  1  0.750501  0.251496  0.998592  1
  La  La7  1  0.250133  0.747207  0.004383  1
  Si  Si8  1  0.924955  0.599591  0.750000  1
  Si  Si9  1  0.582237  0.415078  0.250000  1
  Si  Si10  1  0.416906  0.582375  0.750000  1
  Si  Si11  1  0.417095  0.586011  0.250000  1
  Si  Si12  1  0.586241  0.411225  0.750000  1
  Si  Si13  1  0.076533  0.922799  0.250000  1
  Si  Si14  1  0.924165  0.074044  0.750000  1
  Si  Si15  1  0.597263  0.923387  0.250000  1
  Si  Si16  1  0.399076  0.074226  0.750000  1
  Si  Si17  1  0.918351  0.583921  0.250000  1
  Si  Si18  1  0.076387  0.414132  0.750000  1
  Si  Si19  1  0.414983  0.076149  0.250000  1
  Si  Si20  1  0.584413  0.923184  0.750000  1
  P  P21  1  0.082809  0.417711  0.250000  1
