# generated using pymatgen
data_Tb13Dy4Y3Sn16
_symmetry_space_group_name_H-M   'P 1'
_cell_length_a   8.03027800
_cell_length_b   8.19122100
_cell_length_c   15.49731500
_cell_angle_alpha   90.00079740
_cell_angle_beta   89.99934358
_cell_angle_gamma   90.00030078
_symmetry_Int_Tables_number   1
_chemical_formula_structural   Tb13Dy4Y3Sn16
_chemical_formula_sum   'Tb13 Dy4 Y3 Sn16'
_cell_volume   1019.37900439
_cell_formula_units_Z   1
loop_
 _symmetry_equiv_pos_site_id
 _symmetry_equiv_pos_as_xyz
  1  'x, y, z'
loop_
 _atom_site_type_symbol
 _atom_site_label
 _atom_site_symmetry_multiplicity
 _atom_site_fract_x
 _atom_site_fract_y
 _atom_site_fract_z
 _atom_site_occupancy
  Tb  Tb0  1  0.133382  0.337469  0.122225  1
  Tb  Tb1  1  0.633294  0.162684  0.122313  1
  Tb  Tb2  1  0.133188  0.337273  0.377723  1
  Tb  Tb3  1  0.366781  0.837289  0.622336  1
  Tb  Tb4  1  0.866788  0.662632  0.877711  1
  Tb  Tb5  1  0.520243  0.320361  0.902399  1
  Tb  Tb6  1  0.020299  0.179680  0.597616  1
  Tb  Tb7  1  0.479729  0.679727  0.402423  1
  Tb  Tb8  1  0.979713  0.820363  0.097616  1
  Tb  Tb9  1  0.479690  0.679530  0.097573  1
  Tb  Tb10  1  0.979639  0.820449  0.402419  1
  Tb  Tb11  1  0.520335  0.320499  0.597616  1
  Tb  Tb12  1  0.020276  0.179480  0.902348  1
  Dy  Dy13  1  0.197777  0.502582  0.750069  1
  Dy  Dy14  1  0.697773  0.997409  0.749951  1
  Dy  Dy15  1  0.802224  0.497378  0.250057  1
  Dy  Dy16  1  0.302247  0.002527  0.249983  1
  Y  Y17  1  0.366703  0.837342  0.877595  1
  Y  Y18  1  0.866649  0.662722  0.622356  1
  Y  Y19  1  0.633284  0.162661  0.377655  1
  Sn  Sn20  1  0.293242  0.035406  0.041774  1
  Sn  Sn21  1  0.793079  0.464390  0.458218  1
  Sn  Sn22  1  0.706929  0.964395  0.541797  1
  Sn  Sn23  1  0.207045  0.535825  0.958063  1
  Sn  Sn24  1  0.706482  0.964250  0.958057  1
  Sn  Sn25  1  0.206508  0.535743  0.541943  1
  Sn  Sn26  1  0.293465  0.035693  0.458052  1
  Sn  Sn27  1  0.793161  0.464304  0.041921  1
  Sn  Sn28  1  0.563389  0.618711  0.749956  1
  Sn  Sn29  1  0.063363  0.881242  0.750039  1
  Sn  Sn30  1  0.436693  0.381283  0.250008  1
  Sn  Sn31  1  0.936569  0.118602  0.250057  1
  Sn  Sn32  1  0.329538  0.148066  0.750058  1
  Sn  Sn33  1  0.829555  0.351921  0.749968  1
  Sn  Sn34  1  0.670426  0.851924  0.250071  1
  Sn  Sn35  1  0.170544  0.648186  0.250035  1
