# generated using pymatgen
data_Yb7Eu3(Sb3H)2
_symmetry_space_group_name_H-M   'P 1'
_cell_length_a   6.88434200
_cell_length_b   9.15175757
_cell_length_c   9.15175700
_cell_angle_alpha   119.99999432
_cell_angle_beta   90.00000000
_cell_angle_gamma   90.00000000
_symmetry_Int_Tables_number   1
_chemical_formula_structural   Yb7Eu3(Sb3H)2
_chemical_formula_sum   'Yb7 Eu3 Sb6 H2'
_cell_volume   499.34658133
_cell_formula_units_Z   1
loop_
 _symmetry_equiv_pos_site_id
 _symmetry_equiv_pos_as_xyz
  1  'x, y, z'
loop_
 _atom_site_type_symbol
 _atom_site_label
 _atom_site_symmetry_multiplicity
 _atom_site_fract_x
 _atom_site_fract_y
 _atom_site_fract_z
 _atom_site_occupancy
  Yb  Yb0  1  0.499403  0.333333  0.666667  1
  Yb  Yb1  1  0.499403  0.666666  0.333333  1
  Yb  Yb2  1  0.000597  0.666667  0.333333  1
  Yb  Yb3  1  0.000597  0.333334  0.666667  1
  Yb  Yb4  1  0.250000  0.755671  0.000000  1
  Yb  Yb5  1  0.250000  0.244329  0.244329  1
  Yb  Yb6  1  0.250000  0.000000  0.755671  1
  Eu  Eu7  1  0.750000  0.242608  0.000000  1
  Eu  Eu8  1  0.750000  0.757392  0.757392  1
  Eu  Eu9  1  0.750000  0.000000  0.242608  1
  Sb  Sb10  1  0.750000  0.603609  0.000000  1
  Sb  Sb11  1  0.750000  0.396391  0.396391  1
  Sb  Sb12  1  0.750000  0.000000  0.603609  1
  Sb  Sb13  1  0.250000  0.391240  0.000000  1
  Sb  Sb14  1  0.250000  0.608760  0.608760  1
  Sb  Sb15  1  0.250000  0.000000  0.391240  1
  H  H16  1  0.499308  0.000000  0.000000  1
  H  H17  1  0.000692  0.000000  0.000000  1
