# generated using pymatgen
data_Tm12Co5Pb
_symmetry_space_group_name_H-M   'P 1'
_cell_length_a   8.16639083
_cell_length_b   8.16639085
_cell_length_c   8.16639058
_cell_angle_alpha   110.94870745
_cell_angle_beta   110.84445788
_cell_angle_gamma   106.65664782
_symmetry_Int_Tables_number   1
_chemical_formula_structural   Tm12Co5Pb
_chemical_formula_sum   'Tm12 Co5 Pb1'
_cell_volume   418.49125286
_cell_formula_units_Z   1
loop_
 _symmetry_equiv_pos_site_id
 _symmetry_equiv_pos_as_xyz
  1  'x, y, z'
loop_
 _atom_site_type_symbol
 _atom_site_label
 _atom_site_symmetry_multiplicity
 _atom_site_fract_x
 _atom_site_fract_y
 _atom_site_fract_z
 _atom_site_occupancy
  Tm  Tm0  1  0.286683  0.184262  0.470945  1
  Tm  Tm1  1  0.713317  0.815738  0.529055  1
  Tm  Tm2  1  0.286683  0.815738  0.102420  1
  Tm  Tm3  1  0.713317  0.184262  0.897580  1
  Tm  Tm4  1  0.619211  0.312710  0.306501  1
  Tm  Tm5  1  0.380789  0.687290  0.693499  1
  Tm  Tm6  1  0.006209  0.312710  0.693499  1
  Tm  Tm7  1  0.993791  0.687290  0.306501  1
  Tm  Tm8  1  0.211610  0.406083  0.194474  1
  Tm  Tm9  1  0.788390  0.593917  0.805526  1
  Tm  Tm10  1  0.211610  0.017136  0.805526  1
  Tm  Tm11  1  0.788390  0.982864  0.194474  1
  Co  Co12  1  0.000000  0.375983  0.375983  1
  Co  Co13  1  0.000000  0.624017  0.624017  1
  Co  Co14  1  0.387305  0.887305  0.500000  1
  Co  Co15  1  0.612695  0.112695  0.500000  1
  Co  Co16  1  0.000000  0.000000  0.000000  1
  Pb  Pb17  1  0.500000  0.500000  0.000000  1
