# generated using pymatgen
data_YErGa9CuRu2
_symmetry_space_group_name_H-M   'P 1'
_cell_length_a   7.55356420
_cell_length_b   7.55537905
_cell_length_c   9.55350400
_cell_angle_alpha   90.00000000
_cell_angle_beta   90.00000000
_cell_angle_gamma   119.91570122
_symmetry_Int_Tables_number   1
_chemical_formula_structural   YErGa9CuRu2
_chemical_formula_sum   'Y2 Er2 Ga18 Cu2 Ru4'
_cell_volume   472.57396239
_cell_formula_units_Z   2
loop_
 _symmetry_equiv_pos_site_id
 _symmetry_equiv_pos_as_xyz
  1  'x, y, z'
loop_
 _atom_site_type_symbol
 _atom_site_label
 _atom_site_symmetry_multiplicity
 _atom_site_fract_x
 _atom_site_fract_y
 _atom_site_fract_z
 _atom_site_occupancy
  Y  Y0  1  0.669425  0.996177  0.250000  1
  Y  Y1  1  0.330575  0.003823  0.750000  1
  Er  Er2  1  0.996374  0.669186  0.250000  1
  Er  Er3  1  0.003626  0.330814  0.750000  1
  Ga  Ga4  1  0.125779  0.125449  0.250000  1
  Ga  Ga5  1  0.874221  0.874551  0.750000  1
  Ga  Ga6  1  0.002248  0.337203  0.077123  1
  Ga  Ga7  1  0.997752  0.662797  0.922877  1
  Ga  Ga8  1  0.997752  0.662797  0.577123  1
  Ga  Ga9  1  0.336456  0.001855  0.422633  1
  Ga  Ga10  1  0.002248  0.337203  0.422877  1
  Ga  Ga11  1  0.663544  0.998145  0.577367  1
  Ga  Ga12  1  0.663544  0.998145  0.922633  1
  Ga  Ga13  1  0.336456  0.001855  0.077367  1
  Ga  Ga14  1  0.338629  0.338977  0.563279  1
  Ga  Ga15  1  0.661371  0.661023  0.436721  1
  Ga  Ga16  1  0.661371  0.661023  0.063279  1
  Ga  Ga17  1  0.338629  0.338977  0.936721  1
  Ga  Ga18  1  0.334557  0.549189  0.250000  1
  Ga  Ga19  1  0.665443  0.450811  0.750000  1
  Ga  Ga20  1  0.549586  0.335221  0.250000  1
  Ga  Ga21  1  0.450414  0.664779  0.750000  1
  Cu  Cu22  1  0.000000  0.000000  0.000000  1
  Cu  Cu23  1  0.000000  0.000000  0.500000  1
  Ru  Ru24  1  0.673421  0.327021  0.000013  1
  Ru  Ru25  1  0.326579  0.672979  0.999987  1
  Ru  Ru26  1  0.326579  0.672979  0.500013  1
  Ru  Ru27  1  0.673421  0.327021  0.499987  1
