# generated using pymatgen
data_Nd4AgPd2Pt
_symmetry_space_group_name_H-M   'P 1'
_cell_length_a   4.72332200
_cell_length_b   5.74206349
_cell_length_c   7.38890500
_cell_angle_alpha   90.53731700
_cell_angle_beta   90.00000000
_cell_angle_gamma   90.00000000
_symmetry_Int_Tables_number   1
_chemical_formula_structural   Nd4AgPd2Pt
_chemical_formula_sum   'Nd4 Ag1 Pd2 Pt1'
_cell_volume   200.39022331
_cell_formula_units_Z   1
loop_
 _symmetry_equiv_pos_site_id
 _symmetry_equiv_pos_as_xyz
  1  'x, y, z'
loop_
 _atom_site_type_symbol
 _atom_site_label
 _atom_site_symmetry_multiplicity
 _atom_site_fract_x
 _atom_site_fract_y
 _atom_site_fract_z
 _atom_site_occupancy
  Nd  Nd0  1  0.000000  0.114138  0.696165  1
  Nd  Nd1  1  0.000000  0.893747  0.171817  1
  Nd  Nd2  1  0.500000  0.390192  0.308882  1
  Nd  Nd3  1  0.500000  0.607015  0.822706  1
  Ag  Ag4  1  0.500000  0.890541  0.461582  1
  Pd  Pd5  1  0.000000  0.604116  0.538299  1
  Pd  Pd6  1  0.000000  0.404946  0.042976  1
  Pt  Pt7  1  0.500000  0.095304  0.957573  1
