# generated using pymatgen
data_DyEr2Sc(Co4P3)2
_symmetry_space_group_name_H-M   'P 1'
_cell_length_a   3.71902300
_cell_length_b   10.65385300
_cell_length_c   12.34087700
_cell_angle_alpha   90.00000000
_cell_angle_beta   90.00000000
_cell_angle_gamma   90.00000000
_symmetry_Int_Tables_number   1
_chemical_formula_structural   DyEr2Sc(Co4P3)2
_chemical_formula_sum   'Dy2 Er4 Sc2 Co16 P12'
_cell_volume   488.96929485
_cell_formula_units_Z   2
loop_
 _symmetry_equiv_pos_site_id
 _symmetry_equiv_pos_as_xyz
  1  'x, y, z'
loop_
 _atom_site_type_symbol
 _atom_site_label
 _atom_site_symmetry_multiplicity
 _atom_site_fract_x
 _atom_site_fract_y
 _atom_site_fract_z
 _atom_site_occupancy
  Dy  Dy0  1  0.000000  0.500000  0.527866  1
  Dy  Dy1  1  0.500000  0.000000  0.472134  1
  Er  Er2  1  0.500000  0.822466  0.205641  1
  Er  Er3  1  0.500000  0.177534  0.205641  1
  Er  Er4  1  0.000000  0.677534  0.794359  1
  Er  Er5  1  0.000000  0.322466  0.794359  1
  Sc  Sc6  1  0.500000  0.500000  0.157209  1
  Sc  Sc7  1  0.000000  0.000000  0.842791  1
  Co  Co8  1  0.500000  0.500000  0.705927  1
  Co  Co9  1  0.000000  0.000000  0.294073  1
  Co  Co10  1  0.000000  0.500000  0.987477  1
  Co  Co11  1  0.500000  0.000000  0.012523  1
  Co  Co12  1  0.500000  0.331167  0.994610  1
  Co  Co13  1  0.500000  0.668833  0.994610  1
  Co  Co14  1  0.000000  0.168833  0.005390  1
  Co  Co15  1  0.000000  0.831167  0.005390  1
  Co  Co16  1  0.500000  0.295454  0.432719  1
  Co  Co17  1  0.500000  0.704546  0.432719  1
  Co  Co18  1  0.000000  0.204546  0.567281  1
  Co  Co19  1  0.000000  0.795454  0.567281  1
  Co  Co20  1  0.500000  0.877600  0.703221  1
  Co  Co21  1  0.500000  0.122400  0.703221  1
  Co  Co22  1  0.000000  0.622400  0.296779  1
  Co  Co23  1  0.000000  0.377600  0.296779  1
  P  P24  1  0.500000  0.500000  0.885350  1
  P  P25  1  0.000000  0.000000  0.114650  1
  P  P26  1  0.500000  0.500000  0.360027  1
  P  P27  1  0.000000  0.000000  0.639973  1
  P  P28  1  0.500000  0.309671  0.616129  1
  P  P29  1  0.500000  0.690329  0.616129  1
  P  P30  1  0.000000  0.190329  0.383871  1
  P  P31  1  0.000000  0.809671  0.383871  1
  P  P32  1  0.500000  0.839032  0.892244  1
  P  P33  1  0.500000  0.160968  0.892244  1
  P  P34  1  0.000000  0.660968  0.107756  1
  P  P35  1  0.000000  0.339032  0.107756  1
