# generated using pymatgen
data_Ce4B20IrPt
_symmetry_space_group_name_H-M   'P 1'
_cell_length_a   4.19407200
_cell_length_b   5.71679297
_cell_length_c   11.42936686
_cell_angle_alpha   89.74682828
_cell_angle_beta   90.00000000
_cell_angle_gamma   90.00000000
_symmetry_Int_Tables_number   1
_chemical_formula_structural   Ce4B20IrPt
_chemical_formula_sum   'Ce4 B20 Ir1 Pt1'
_cell_volume   274.03515450
_cell_formula_units_Z   1
loop_
 _symmetry_equiv_pos_site_id
 _symmetry_equiv_pos_as_xyz
  1  'x, y, z'
loop_
 _atom_site_type_symbol
 _atom_site_label
 _atom_site_symmetry_multiplicity
 _atom_site_fract_x
 _atom_site_fract_y
 _atom_site_fract_z
 _atom_site_occupancy
  Ce  Ce0  1  0.500000  0.296386  0.864165  1
  Ce  Ce1  1  0.500000  0.703614  0.135835  1
  Ce  Ce2  1  0.500000  0.804819  0.639046  1
  Ce  Ce3  1  0.500000  0.195181  0.360954  1
  B  B4  1  0.000000  0.115249  0.544128  1
  B  B5  1  0.000000  0.884751  0.455872  1
  B  B6  1  0.000000  0.618238  0.957011  1
  B  B7  1  0.000000  0.381762  0.042989  1
  B  B8  1  0.000000  0.137885  0.697461  1
  B  B9  1  0.000000  0.862115  0.302539  1
  B  B10  1  0.302167  0.216594  0.118741  1
  B  B11  1  0.302167  0.783406  0.881259  1
  B  B12  1  0.696572  0.718276  0.379462  1
  B  B13  1  0.696572  0.281724  0.620538  1
  B  B14  1  0.697833  0.783406  0.881259  1
  B  B15  1  0.697833  0.216594  0.118741  1
  B  B16  1  0.303428  0.281724  0.620538  1
  B  B17  1  0.303428  0.718276  0.379462  1
  B  B18  1  0.000000  0.052825  0.192789  1
  B  B19  1  0.000000  0.947175  0.807211  1
  B  B20  1  0.000000  0.553950  0.305556  1
  B  B21  1  0.000000  0.446050  0.694444  1
  B  B22  1  0.000000  0.361156  0.197505  1
  B  B23  1  0.000000  0.638844  0.802495  1
  Ir  Ir24  1  0.000000  0.000000  0.000000  1
  Pt  Pt25  1  0.000000  0.500000  0.500000  1
