# generated using pymatgen
data_LaCo3Ni2P3
_symmetry_space_group_name_H-M   'P 1'
_cell_length_a   6.08665376
_cell_length_b   6.08665444
_cell_length_c   11.43158000
_cell_angle_alpha   90.00000000
_cell_angle_beta   90.00000000
_cell_angle_gamma   145.51412111
_symmetry_Int_Tables_number   1
_chemical_formula_structural   LaCo3Ni2P3
_chemical_formula_sum   'La2 Co6 Ni4 P6'
_cell_volume   239.79258584
_cell_formula_units_Z   2
loop_
 _symmetry_equiv_pos_site_id
 _symmetry_equiv_pos_as_xyz
  1  'x, y, z'
loop_
 _atom_site_type_symbol
 _atom_site_label
 _atom_site_symmetry_multiplicity
 _atom_site_fract_x
 _atom_site_fract_y
 _atom_site_fract_z
 _atom_site_occupancy
  La  La0  1  0.339291  0.660709  0.250000  1
  La  La1  1  0.663051  0.336949  0.750000  1
  Co  Co2  1  0.696378  0.303622  0.434066  1
  Co  Co3  1  0.301490  0.698510  0.569248  1
  Co  Co4  1  0.301490  0.698510  0.930752  1
  Co  Co5  1  0.696378  0.303622  0.065934  1
  Co  Co6  1  0.949800  0.050200  0.641523  1
  Co  Co7  1  0.949800  0.050200  0.858477  1
  Ni  Ni8  1  0.052126  0.947874  0.144101  1
  Ni  Ni9  1  0.052126  0.947874  0.355899  1
  Ni  Ni10  1  0.497271  0.502729  0.496615  1
  Ni  Ni11  1  0.497271  0.502729  0.003385  1
  P  P12  1  0.618701  0.381299  0.250000  1
  P  P13  1  0.391839  0.608161  0.750000  1
  P  P14  1  0.118932  0.881068  0.539135  1
  P  P15  1  0.877561  0.122439  0.465342  1
  P  P16  1  0.877561  0.122439  0.034658  1
  P  P17  1  0.118932  0.881068  0.960865  1
