# generated using pymatgen
data_Lu4GaMoRu6
_symmetry_space_group_name_H-M   'P 1'
_cell_length_a   5.39163486
_cell_length_b   5.24731386
_cell_length_c   8.84926100
_cell_angle_alpha   90.00000000
_cell_angle_beta   90.00000000
_cell_angle_gamma   121.95549743
_symmetry_Int_Tables_number   1
_chemical_formula_structural   Lu4GaMoRu6
_chemical_formula_sum   'Lu4 Ga1 Mo1 Ru6'
_cell_volume   212.42009716
_cell_formula_units_Z   1
loop_
 _symmetry_equiv_pos_site_id
 _symmetry_equiv_pos_as_xyz
  1  'x, y, z'
loop_
 _atom_site_type_symbol
 _atom_site_label
 _atom_site_symmetry_multiplicity
 _atom_site_fract_x
 _atom_site_fract_y
 _atom_site_fract_z
 _atom_site_occupancy
  Lu  Lu0  1  0.335716  0.665645  0.435811  1
  Lu  Lu1  1  0.671686  0.344782  0.564232  1
  Lu  Lu2  1  0.671686  0.344782  0.935768  1
  Lu  Lu3  1  0.335716  0.665645  0.064189  1
  Ga  Ga4  1  0.333680  0.162466  0.250000  1
  Mo  Mo5  1  0.167820  0.331159  0.750000  1
  Ru  Ru6  1  0.173185  0.823643  0.750000  1
  Ru  Ru7  1  0.831907  0.649178  0.250000  1
  Ru  Ru8  1  0.654385  0.826374  0.750000  1
  Ru  Ru9  1  0.997638  0.009212  0.000750  1
  Ru  Ru10  1  0.828943  0.167900  0.250000  1
  Ru  Ru11  1  0.997638  0.009212  0.499250  1
