# generated using pymatgen
data_Zr8Si16OsRu11
_symmetry_space_group_name_H-M   'P 1'
_cell_length_a   9.91829552
_cell_length_b   9.91726318
_cell_length_c   13.38346760
_cell_angle_alpha   53.85177760
_cell_angle_beta   53.84391290
_cell_angle_gamma   31.51685911
_symmetry_Int_Tables_number   1
_chemical_formula_structural   Zr8Si16OsRu11
_chemical_formula_sum   'Zr8 Si16 Os1 Ru11'
_cell_volume   543.72160551
_cell_formula_units_Z   1
loop_
 _symmetry_equiv_pos_site_id
 _symmetry_equiv_pos_as_xyz
  1  'x, y, z'
loop_
 _atom_site_type_symbol
 _atom_site_label
 _atom_site_symmetry_multiplicity
 _atom_site_fract_x
 _atom_site_fract_y
 _atom_site_fract_z
 _atom_site_occupancy
  Zr  Zr0  1  0.038808  0.293510  0.637142  1
  Zr  Zr1  1  0.706461  0.960161  0.863183  1
  Zr  Zr2  1  0.960704  0.706526  0.362889  1
  Zr  Zr3  1  0.293437  0.039442  0.137041  1
  Zr  Zr4  1  0.300978  0.552753  0.648106  1
  Zr  Zr5  1  0.447144  0.699747  0.851726  1
  Zr  Zr6  1  0.699622  0.446980  0.351761  1
  Zr  Zr7  1  0.553036  0.300463  0.148187  1
  Si  Si8  1  0.971787  0.253370  0.894976  1
  Si  Si9  1  0.745914  0.027327  0.605361  1
  Si  Si10  1  0.028317  0.746445  0.105100  1
  Si  Si11  1  0.254147  0.972069  0.393887  1
  Si  Si12  1  0.141524  0.388544  0.895383  1
  Si  Si13  1  0.611341  0.858457  0.604564  1
  Si  Si14  1  0.858585  0.611520  0.104406  1
  Si  Si15  1  0.388952  0.141567  0.395221  1
  Si  Si16  1  0.087177  0.572328  0.565094  1
  Si  Si17  1  0.427349  0.912900  0.934983  1
  Si  Si18  1  0.913042  0.428277  0.434478  1
  Si  Si19  1  0.572592  0.087041  0.065109  1
  Si  Si20  1  0.620473  0.379751  0.750699  1
  Si  Si21  1  0.379853  0.620212  0.249758  1
  Si  Si22  1  0.130756  0.869386  0.750609  1
  Si  Si23  1  0.869650  0.130380  0.250010  1
  Os  Os24  1  0.910076  0.131950  0.585084  1
  Ru  Ru25  1  0.868411  0.088221  0.915422  1
  Ru  Ru26  1  0.088874  0.868001  0.415135  1
  Ru  Ru27  1  0.131461  0.911601  0.085134  1
  Ru  Ru28  1  0.829032  0.646487  0.779565  1
  Ru  Ru29  1  0.353299  0.171307  0.720370  1
  Ru  Ru30  1  0.171181  0.353134  0.220360  1
  Ru  Ru31  1  0.646722  0.828551  0.279706  1
  Ru  Ru32  1  0.236147  0.516420  0.933777  1
  Ru  Ru33  1  0.482937  0.765252  0.565712  1
  Ru  Ru34  1  0.763967  0.483590  0.065803  1
  Ru  Ru35  1  0.516245  0.236328  0.434261  1
