# generated using pymatgen
data_Gd5Dy3C10
_symmetry_space_group_name_H-M   'P 1'
_cell_length_a   3.72171400
_cell_length_b   6.64686216
_cell_length_c   11.96862211
_cell_angle_alpha   90.00489984
_cell_angle_beta   90.00000000
_cell_angle_gamma   90.00000000
_symmetry_Int_Tables_number   1
_chemical_formula_structural   Gd5Dy3C10
_chemical_formula_sum   'Gd5 Dy3 C10'
_cell_volume   296.07642086
_cell_formula_units_Z   1
loop_
 _symmetry_equiv_pos_site_id
 _symmetry_equiv_pos_as_xyz
  1  'x, y, z'
loop_
 _atom_site_type_symbol
 _atom_site_label
 _atom_site_symmetry_multiplicity
 _atom_site_fract_x
 _atom_site_fract_y
 _atom_site_fract_z
 _atom_site_occupancy
  Gd  Gd0  1  0.500000  0.390158  0.303003  1
  Gd  Gd1  1  0.500000  0.612026  0.697251  1
  Gd  Gd2  1  0.500000  0.109608  0.802071  1
  Gd  Gd3  1  0.500000  0.887478  0.197060  1
  Gd  Gd4  1  0.000000  0.250781  0.044213  1
  Dy  Dy5  1  0.000000  0.763326  0.957315  1
  Dy  Dy6  1  0.000000  0.250160  0.543961  1
  Dy  Dy7  1  0.000000  0.735698  0.458254  1
  C  C8  1  0.500000  0.009915  0.999068  1
  C  C9  1  0.500000  0.487480  0.499514  1
  C  C10  1  0.000000  0.140033  0.240615  1
  C  C11  1  0.000000  0.867803  0.763467  1
  C  C12  1  0.000000  0.358794  0.737628  1
  C  C13  1  0.000000  0.632501  0.264422  1
  C  C14  1  0.000000  0.069966  0.344643  1
  C  C15  1  0.000000  0.891135  0.652666  1
  C  C16  1  0.000000  0.430085  0.841344  1
  C  C17  1  0.000000  0.613054  0.153505  1
