# generated using pymatgen
data_Eu4Zn(Si2Pt)5
_symmetry_space_group_name_H-M   'P 1'
_cell_length_a   8.39100798
_cell_length_b   8.39100788
_cell_length_c   8.39100782
_cell_angle_alpha   137.77800685
_cell_angle_beta   105.20001126
_cell_angle_gamma   89.84323100
_symmetry_Int_Tables_number   1
_chemical_formula_structural   Eu4Zn(Si2Pt)5
_chemical_formula_sum   'Eu4 Zn1 Si10 Pt5'
_cell_volume   366.06041910
_cell_formula_units_Z   1
loop_
 _symmetry_equiv_pos_site_id
 _symmetry_equiv_pos_as_xyz
  1  'x, y, z'
loop_
 _atom_site_type_symbol
 _atom_site_label
 _atom_site_symmetry_multiplicity
 _atom_site_fract_x
 _atom_site_fract_y
 _atom_site_fract_z
 _atom_site_occupancy
  Eu  Eu0  1  0.110910  0.872127  0.235088  1
  Eu  Eu1  1  0.889090  0.124178  0.761217  1
  Eu  Eu2  1  0.637039  0.375822  0.264912  1
  Eu  Eu3  1  0.362961  0.627873  0.738783  1
  Zn  Zn4  1  0.500000  0.750000  0.250000  1
  Si  Si5  1  0.000000  0.750000  0.750000  1
  Si  Si6  1  0.000000  0.250000  0.250000  1
  Si  Si7  1  0.269996  0.019996  0.750000  1
  Si  Si8  1  0.730004  0.480004  0.750000  1
  Si  Si9  1  0.736494  0.986494  0.250000  1
  Si  Si10  1  0.263506  0.513506  0.250000  1
  Si  Si11  1  0.766190  0.614588  0.146736  1
  Si  Si12  1  0.233810  0.380545  0.848397  1
  Si  Si13  1  0.467852  0.119455  0.353264  1
  Si  Si14  1  0.532148  0.885412  0.651603  1
  Pt  Pt15  1  0.500000  0.250000  0.750000  1
  Pt  Pt16  1  0.022318  0.636445  0.389141  1
  Pt  Pt17  1  0.977682  0.366822  0.614127  1
  Pt  Pt18  1  0.247304  0.133178  0.110859  1
  Pt  Pt19  1  0.752696  0.863555  0.885873  1
