# generated using pymatgen
data_Er3Tm5Mn2(B12Ru)2
_symmetry_space_group_name_H-M   'P 1'
_cell_length_a   3.57789800
_cell_length_b   9.05987222
_cell_length_c   11.43577700
_cell_angle_alpha   89.98658510
_cell_angle_beta   90.00000000
_cell_angle_gamma   90.00000000
_symmetry_Int_Tables_number   1
_chemical_formula_structural   Er3Tm5Mn2(B12Ru)2
_chemical_formula_sum   'Er3 Tm5 Mn2 B24 Ru2'
_cell_volume   370.69411702
_cell_formula_units_Z   1
loop_
 _symmetry_equiv_pos_site_id
 _symmetry_equiv_pos_as_xyz
  1  'x, y, z'
loop_
 _atom_site_type_symbol
 _atom_site_label
 _atom_site_symmetry_multiplicity
 _atom_site_fract_x
 _atom_site_fract_y
 _atom_site_fract_z
 _atom_site_occupancy
  Er  Er0  1  0.000000  0.326505  0.416417  1
  Er  Er1  1  0.000000  0.673470  0.583606  1
  Er  Er2  1  0.000000  0.820229  0.087562  1
  Tm  Tm3  1  0.000000  0.179896  0.912428  1
  Tm  Tm4  1  0.000000  0.940007  0.370902  1
  Tm  Tm5  1  0.000000  0.060025  0.629147  1
  Tm  Tm6  1  0.000000  0.445083  0.131365  1
  Tm  Tm7  1  0.000000  0.554815  0.868590  1
  Mn  Mn8  1  0.000000  0.638129  0.320192  1
  Mn  Mn9  1  0.000000  0.361831  0.679859  1
  B  B10  1  0.500000  0.553987  0.432447  1
  B  B11  1  0.500000  0.445994  0.567568  1
  B  B12  1  0.500000  0.053606  0.066637  1
  B  B13  1  0.500000  0.946567  0.933264  1
  B  B14  1  0.500000  0.746556  0.417910  1
  B  B15  1  0.500000  0.253448  0.582103  1
  B  B16  1  0.500000  0.249574  0.080871  1
  B  B17  1  0.500000  0.750398  0.918977  1
  B  B18  1  0.500000  0.789627  0.265850  1
  B  B19  1  0.500000  0.210324  0.734284  1
  B  B20  1  0.500000  0.292159  0.235669  1
  B  B21  1  0.500000  0.707840  0.764323  1
  B  B22  1  0.500000  0.631033  0.186491  1
  B  B23  1  0.500000  0.368831  0.813584  1
  B  B24  1  0.500000  0.130890  0.315469  1
  B  B25  1  0.500000  0.869101  0.684534  1
  B  B26  1  0.500000  0.981528  0.212583  1
  B  B27  1  0.500000  0.018632  0.787493  1
  B  B28  1  0.500000  0.484804  0.288918  1
  B  B29  1  0.500000  0.515160  0.711074  1
  B  B30  1  0.500000  0.602827  0.028443  1
  B  B31  1  0.500000  0.396984  0.971500  1
  B  B32  1  0.500000  0.103623  0.471537  1
  B  B33  1  0.500000  0.896376  0.528473  1
  Ru  Ru34  1  0.000000  0.138157  0.179080  1
  Ru  Ru35  1  0.000000  0.861984  0.820852  1
