# generated using pymatgen
data_NdTh3(GeAu)4
_symmetry_space_group_name_H-M   'P 1'
_cell_length_a   4.42206200
_cell_length_b   7.66008977
_cell_length_c   8.24707995
_cell_angle_alpha   90.17911900
_cell_angle_beta   90.00000000
_cell_angle_gamma   90.00000000
_symmetry_Int_Tables_number   1
_chemical_formula_structural   NdTh3(GeAu)4
_chemical_formula_sum   'Nd1 Th3 Ge4 Au4'
_cell_volume   279.35520595
_cell_formula_units_Z   1
loop_
 _symmetry_equiv_pos_site_id
 _symmetry_equiv_pos_as_xyz
  1  'x, y, z'
loop_
 _atom_site_type_symbol
 _atom_site_label
 _atom_site_symmetry_multiplicity
 _atom_site_fract_x
 _atom_site_fract_y
 _atom_site_fract_z
 _atom_site_occupancy
  Nd  Nd0  1  0.250000  0.750743  0.499614  1
  Th  Th1  1  0.250000  0.749912  0.001745  1
  Th  Th2  1  0.750000  0.250217  0.000388  1
  Th  Th3  1  0.750000  0.249255  0.499797  1
  Ge  Ge4  1  0.250000  0.415767  0.280887  1
  Ge  Ge5  1  0.750000  0.583677  0.737163  1
  Ge  Ge6  1  0.750000  0.917358  0.275784  1
  Ge  Ge7  1  0.250000  0.083102  0.722324  1
  Au  Au8  1  0.250000  0.083840  0.217979  1
  Au  Au9  1  0.750000  0.917105  0.770531  1
  Au  Au10  1  0.750000  0.583402  0.224907  1
  Au  Au11  1  0.250000  0.415623  0.768879  1
