# generated using pymatgen
data_Y7Co6Sn22Hg
_symmetry_space_group_name_H-M   'P 1'
_cell_length_a   9.68909900
_cell_length_b   9.68909986
_cell_length_c   10.03444400
_cell_angle_alpha   90.00000000
_cell_angle_beta   90.00000000
_cell_angle_gamma   120.00000731
_symmetry_Int_Tables_number   1
_chemical_formula_structural   Y7Co6Sn22Hg
_chemical_formula_sum   'Y7 Co6 Sn22 Hg1'
_cell_volume   815.81321999
_cell_formula_units_Z   1
loop_
 _symmetry_equiv_pos_site_id
 _symmetry_equiv_pos_as_xyz
  1  'x, y, z'
loop_
 _atom_site_type_symbol
 _atom_site_label
 _atom_site_symmetry_multiplicity
 _atom_site_fract_x
 _atom_site_fract_y
 _atom_site_fract_z
 _atom_site_occupancy
  Y  Y0  1  0.000000  0.000000  0.000000  1
  Y  Y1  1  0.044012  0.522006  0.306436  1
  Y  Y2  1  0.477994  0.955988  0.306436  1
  Y  Y3  1  0.477994  0.522006  0.306436  1
  Y  Y4  1  0.955988  0.477994  0.693564  1
  Y  Y5  1  0.522006  0.044012  0.693564  1
  Y  Y6  1  0.522006  0.477994  0.693564  1
  Co  Co7  1  0.167714  0.832286  0.803254  1
  Co  Co8  1  0.664573  0.832286  0.803254  1
  Co  Co9  1  0.167714  0.335427  0.803254  1
  Co  Co10  1  0.832286  0.167714  0.196746  1
  Co  Co11  1  0.335427  0.167714  0.196746  1
  Co  Co12  1  0.832286  0.664573  0.196746  1
  Sn  Sn13  1  0.116385  0.883615  0.270537  1
  Sn  Sn14  1  0.767228  0.883615  0.270537  1
  Sn  Sn15  1  0.116385  0.232772  0.270537  1
  Sn  Sn16  1  0.883615  0.116385  0.729463  1
  Sn  Sn17  1  0.232772  0.116385  0.729463  1
  Sn  Sn18  1  0.883615  0.767228  0.729463  1
  Sn  Sn19  1  0.345625  0.000000  0.000000  1
  Sn  Sn20  1  0.654375  0.654375  0.000000  1
  Sn  Sn21  1  0.000000  0.345625  0.000000  1
  Sn  Sn22  1  0.345625  0.345625  0.000000  1
  Sn  Sn23  1  0.000000  0.654375  0.000000  1
  Sn  Sn24  1  0.654375  0.000000  0.000000  1
  Sn  Sn25  1  0.782233  0.564465  0.452156  1
  Sn  Sn26  1  0.782233  0.217767  0.452156  1
  Sn  Sn27  1  0.435535  0.217767  0.452156  1
  Sn  Sn28  1  0.217767  0.435535  0.547844  1
  Sn  Sn29  1  0.217767  0.782233  0.547844  1
  Sn  Sn30  1  0.564465  0.782233  0.547844  1
  Sn  Sn31  1  0.666667  0.333333  0.181003  1
  Sn  Sn32  1  0.333333  0.666667  0.818997  1
  Sn  Sn33  1  0.666667  0.333333  0.884598  1
  Sn  Sn34  1  0.333333  0.666667  0.115402  1
  Hg  Hg35  1  0.000000  0.000000  0.500000  1
