# generated using pymatgen
data_Ho16In6FeRh
_symmetry_space_group_name_H-M   'P 1'
_cell_length_a   10.35277600
_cell_length_b   10.35277735
_cell_length_c   7.02638600
_cell_angle_alpha   90.00000000
_cell_angle_beta   90.00000000
_cell_angle_gamma   120.00000207
_symmetry_Int_Tables_number   1
_chemical_formula_structural   Ho16In6FeRh
_chemical_formula_sum   'Ho16 In6 Fe1 Rh1'
_cell_volume   652.19327843
_cell_formula_units_Z   1
loop_
 _symmetry_equiv_pos_site_id
 _symmetry_equiv_pos_as_xyz
  1  'x, y, z'
loop_
 _atom_site_type_symbol
 _atom_site_label
 _atom_site_symmetry_multiplicity
 _atom_site_fract_x
 _atom_site_fract_y
 _atom_site_fract_z
 _atom_site_occupancy
  Ho  Ho0  1  0.467406  0.532594  0.480482  1
  Ho  Ho1  1  0.065187  0.532594  0.480482  1
  Ho  Ho2  1  0.467406  0.934813  0.480482  1
  Ho  Ho3  1  0.536186  0.463814  0.982125  1
  Ho  Ho4  1  0.927628  0.463814  0.982125  1
  Ho  Ho5  1  0.536186  0.072372  0.982125  1
  Ho  Ho6  1  0.821754  0.178246  0.274555  1
  Ho  Ho7  1  0.356492  0.178246  0.274555  1
  Ho  Ho8  1  0.821754  0.643508  0.274555  1
  Ho  Ho9  1  0.176111  0.823889  0.777125  1
  Ho  Ho10  1  0.647777  0.823889  0.777125  1
  Ho  Ho11  1  0.176111  0.352223  0.777125  1
  Ho  Ho12  1  0.333333  0.666667  0.101464  1
  Ho  Ho13  1  0.666667  0.333333  0.592105  1
  Ho  Ho14  1  0.000000  0.000000  0.496270  1
  Ho  Ho15  1  0.000000  0.000000  0.997345  1
  In  In16  1  0.162801  0.837199  0.233985  1
  In  In17  1  0.674397  0.837199  0.233985  1
  In  In18  1  0.162801  0.325603  0.233985  1
  In  In19  1  0.836685  0.163315  0.732827  1
  In  In20  1  0.326630  0.163315  0.732827  1
  In  In21  1  0.836685  0.673370  0.732827  1
  Fe  Fe22  1  0.666667  0.333333  0.207102  1
  Rh  Rh23  1  0.333333  0.666667  0.706966  1
