# generated using pymatgen
data_Th4ZnGa17Ir6
_symmetry_space_group_name_H-M   'P 1'
_cell_length_a   7.70485613
_cell_length_b   7.70485584
_cell_length_c   9.51795200
_cell_angle_alpha   90.00000000
_cell_angle_beta   90.00000000
_cell_angle_gamma   119.62978320
_symmetry_Int_Tables_number   1
_chemical_formula_structural   Th4ZnGa17Ir6
_chemical_formula_sum   'Th4 Zn1 Ga17 Ir6'
_cell_volume   491.14676984
_cell_formula_units_Z   1
loop_
 _symmetry_equiv_pos_site_id
 _symmetry_equiv_pos_as_xyz
  1  'x, y, z'
loop_
 _atom_site_type_symbol
 _atom_site_label
 _atom_site_symmetry_multiplicity
 _atom_site_fract_x
 _atom_site_fract_y
 _atom_site_fract_z
 _atom_site_occupancy
  Th  Th0  1  0.997321  0.670107  0.250000  1
  Th  Th1  1  0.003230  0.330106  0.750000  1
  Th  Th2  1  0.670107  0.997321  0.250000  1
  Th  Th3  1  0.330106  0.003230  0.750000  1
  Zn  Zn4  1  0.134573  0.134573  0.250000  1
  Ga  Ga5  1  0.866421  0.866421  0.750000  1
  Ga  Ga6  1  0.005586  0.332506  0.080826  1
  Ga  Ga7  1  0.996531  0.665003  0.921531  1
  Ga  Ga8  1  0.996531  0.665003  0.578469  1
  Ga  Ga9  1  0.332506  0.005586  0.419174  1
  Ga  Ga10  1  0.005586  0.332506  0.419174  1
  Ga  Ga11  1  0.665003  0.996531  0.578469  1
  Ga  Ga12  1  0.665003  0.996531  0.921531  1
  Ga  Ga13  1  0.332506  0.005586  0.080826  1
  Ga  Ga14  1  0.336107  0.336107  0.559975  1
  Ga  Ga15  1  0.664427  0.664427  0.438066  1
  Ga  Ga16  1  0.664427  0.664427  0.061934  1
  Ga  Ga17  1  0.336107  0.336107  0.940025  1
  Ga  Ga18  1  0.340124  0.539328  0.250000  1
  Ga  Ga19  1  0.660227  0.456750  0.750000  1
  Ga  Ga20  1  0.539328  0.340124  0.250000  1
  Ga  Ga21  1  0.456750  0.660227  0.750000  1
  Ir  Ir22  1  0.673425  0.327891  0.999543  1
  Ir  Ir23  1  0.327891  0.673425  0.999543  1
  Ir  Ir24  1  0.327891  0.673425  0.500457  1
  Ir  Ir25  1  0.673425  0.327891  0.500457  1
  Ir  Ir26  1  0.999430  0.999430  0.995952  1
  Ir  Ir27  1  0.999430  0.999430  0.504048  1
