# generated using pymatgen
data_Sr6La2Cu3Si12Pd
_symmetry_space_group_name_H-M   'P 1'
_cell_length_a   8.28575500
_cell_length_b   8.28575447
_cell_length_c   9.11080300
_cell_angle_alpha   90.00000000
_cell_angle_beta   90.00000000
_cell_angle_gamma   119.99999811
_symmetry_Int_Tables_number   1
_chemical_formula_structural   Sr6La2Cu3Si12Pd
_chemical_formula_sum   'Sr6 La2 Cu3 Si12 Pd1'
_cell_volume   541.69078002
_cell_formula_units_Z   1
loop_
 _symmetry_equiv_pos_site_id
 _symmetry_equiv_pos_as_xyz
  1  'x, y, z'
loop_
 _atom_site_type_symbol
 _atom_site_label
 _atom_site_symmetry_multiplicity
 _atom_site_fract_x
 _atom_site_fract_y
 _atom_site_fract_z
 _atom_site_occupancy
  Sr  Sr0  1  0.500545  0.499455  0.748016  1
  Sr  Sr1  1  0.500670  0.499330  0.252003  1
  Sr  Sr2  1  0.998910  0.499455  0.748016  1
  Sr  Sr3  1  0.998659  0.499330  0.252003  1
  Sr  Sr4  1  0.500545  0.001090  0.748016  1
  Sr  Sr5  1  0.500670  0.001341  0.252003  1
  La  La6  1  0.000000  0.000000  0.748600  1
  La  La7  1  0.000000  0.000000  0.251459  1
  Cu  Cu8  1  0.666667  0.333333  0.999636  1
  Cu  Cu9  1  0.333333  0.666667  0.000599  1
  Cu  Cu10  1  0.333333  0.666667  0.499305  1
  Si  Si11  1  0.832965  0.167035  0.000048  1
  Si  Si12  1  0.166982  0.833018  0.000012  1
  Si  Si13  1  0.334072  0.167035  0.000048  1
  Si  Si14  1  0.165959  0.834041  0.499983  1
  Si  Si15  1  0.666036  0.833018  0.000012  1
  Si  Si16  1  0.834547  0.165453  0.500026  1
  Si  Si17  1  0.832965  0.665928  0.000048  1
  Si  Si18  1  0.668080  0.834041  0.499983  1
  Si  Si19  1  0.166982  0.333964  0.000012  1
  Si  Si20  1  0.330907  0.165453  0.500026  1
  Si  Si21  1  0.165959  0.331920  0.499983  1
  Si  Si22  1  0.834547  0.669093  0.500026  1
  Pd  Pd23  1  0.666667  0.333333  0.500137  1
