# generated using pymatgen
data_SrLa7(Yb3Pt4)4
_symmetry_space_group_name_H-M   'P 1'
_cell_length_a   7.60954771
_cell_length_b   7.76385385
_cell_length_c   14.73213849
_cell_angle_alpha   89.85377065
_cell_angle_beta   90.03059612
_cell_angle_gamma   90.13683690
_symmetry_Int_Tables_number   1
_chemical_formula_structural   SrLa7(Yb3Pt4)4
_chemical_formula_sum   'Sr1 La7 Yb12 Pt16'
_cell_volume   870.36070451
_cell_formula_units_Z   1
loop_
 _symmetry_equiv_pos_site_id
 _symmetry_equiv_pos_as_xyz
  1  'x, y, z'
loop_
 _atom_site_type_symbol
 _atom_site_label
 _atom_site_symmetry_multiplicity
 _atom_site_fract_x
 _atom_site_fract_y
 _atom_site_fract_z
 _atom_site_occupancy
  Sr  Sr0  1  0.002450  0.174531  0.903839  1
  La  La1  1  0.499747  0.323225  0.901086  1
  La  La2  1  0.999989  0.177201  0.598813  1
  La  La3  1  0.499505  0.677970  0.401184  1
  La  La4  1  0.000321  0.822959  0.098670  1
  La  La5  1  0.500138  0.677403  0.097525  1
  La  La6  1  0.999624  0.822013  0.400685  1
  La  La7  1  0.501989  0.322452  0.599232  1
  Yb  Yb8  1  0.339436  0.832509  0.875739  1
  Yb  Yb9  1  0.840951  0.669791  0.623526  1
  Yb  Yb10  1  0.658978  0.169590  0.376092  1
  Yb  Yb11  1  0.159116  0.330139  0.123204  1
  Yb  Yb12  1  0.659139  0.169620  0.123934  1
  Yb  Yb13  1  0.159007  0.330181  0.375893  1
  Yb  Yb14  1  0.341860  0.829697  0.623753  1
  Yb  Yb15  1  0.840681  0.669034  0.875927  1
  Yb  Yb16  1  0.174688  0.504153  0.750237  1
  Yb  Yb17  1  0.679069  0.995361  0.751152  1
  Yb  Yb18  1  0.823205  0.494609  0.249786  1
  Yb  Yb19  1  0.323499  0.005862  0.249947  1
  Pt  Pt20  1  0.325783  0.026123  0.044193  1
  Pt  Pt21  1  0.820785  0.472583  0.459470  1
  Pt  Pt22  1  0.679978  0.971060  0.539819  1
  Pt  Pt23  1  0.184095  0.538210  0.962914  1
  Pt  Pt24  1  0.667732  0.961653  0.962210  1
  Pt  Pt25  1  0.180671  0.528002  0.539442  1
  Pt  Pt26  1  0.319724  0.027676  0.459505  1
  Pt  Pt27  1  0.819155  0.477488  0.042204  1
  Pt  Pt28  1  0.543157  0.616608  0.751104  1
  Pt  Pt29  1  0.047948  0.880938  0.746695  1
  Pt  Pt30  1  0.453876  0.384810  0.250071  1
  Pt  Pt31  1  0.954235  0.115535  0.249946  1
  Pt  Pt32  1  0.309361  0.140991  0.747543  1
  Pt  Pt33  1  0.800458  0.360152  0.743593  1
  Pt  Pt34  1  0.694988  0.857458  0.250749  1
  Pt  Pt35  1  0.194664  0.642410  0.250319  1
