# generated using pymatgen
data_Nd8Sn(Pd5Pt3)3
_symmetry_space_group_name_H-M   'P 1'
_cell_length_a   8.54070400
_cell_length_b   8.53939000
_cell_length_c   8.55320500
_cell_angle_alpha   90.00000000
_cell_angle_beta   90.00000000
_cell_angle_gamma   90.00000000
_symmetry_Int_Tables_number   1
_chemical_formula_structural   Nd8Sn(Pd5Pt3)3
_chemical_formula_sum   'Nd8 Sn1 Pd15 Pt9'
_cell_volume   623.80578828
_cell_formula_units_Z   1
loop_
 _symmetry_equiv_pos_site_id
 _symmetry_equiv_pos_as_xyz
  1  'x, y, z'
loop_
 _atom_site_type_symbol
 _atom_site_label
 _atom_site_symmetry_multiplicity
 _atom_site_fract_x
 _atom_site_fract_y
 _atom_site_fract_z
 _atom_site_occupancy
  Nd  Nd0  1  0.251904  0.252402  0.252167  1
  Nd  Nd1  1  0.748200  0.747929  0.748028  1
  Nd  Nd2  1  0.748200  0.747929  0.251972  1
  Nd  Nd3  1  0.748200  0.252071  0.748028  1
  Nd  Nd4  1  0.251904  0.252402  0.747833  1
  Nd  Nd5  1  0.251904  0.747598  0.252167  1
  Nd  Nd6  1  0.251904  0.747598  0.747833  1
  Nd  Nd7  1  0.748200  0.252071  0.251972  1
  Sn  Sn8  1  0.000115  0.000000  0.000000  1
  Pd  Pd9  1  0.500089  0.000000  0.267611  1
  Pd  Pd10  1  0.267107  0.000000  0.500000  1
  Pd  Pd11  1  0.500089  0.000000  0.732389  1
  Pd  Pd12  1  0.732789  0.000000  0.500000  1
  Pd  Pd13  1  0.000010  0.500000  0.266823  1
  Pd  Pd14  1  0.000010  0.500000  0.733177  1
  Pd  Pd15  1  0.745443  0.500000  0.500000  1
  Pd  Pd16  1  0.499851  0.255215  0.500000  1
  Pd  Pd17  1  0.499851  0.744785  0.500000  1
  Pd  Pd18  1  0.499897  0.500000  0.255478  1
  Pd  Pd19  1  0.499897  0.500000  0.744522  1
  Pd  Pd20  1  0.999901  0.313744  0.000000  1
  Pd  Pd21  1  0.999901  0.686256  0.000000  1
  Pd  Pd22  1  0.999858  0.000000  0.313333  1
  Pd  Pd23  1  0.999858  0.000000  0.686667  1
  Pt  Pt24  1  0.266179  0.500000  0.000000  1
  Pt  Pt25  1  0.733598  0.500000  0.000000  1
  Pt  Pt26  1  0.000183  0.266072  0.500000  1
  Pt  Pt27  1  0.500090  0.265995  0.000000  1
  Pt  Pt28  1  0.000183  0.733928  0.500000  1
  Pt  Pt29  1  0.500090  0.734005  0.000000  1
  Pt  Pt30  1  0.254406  0.500000  0.500000  1
  Pt  Pt31  1  0.311953  0.000000  0.000000  1
  Pt  Pt32  1  0.688233  0.000000  0.000000  1
