# generated using pymatgen
data_TaNbSn2Ru3
_symmetry_space_group_name_H-M   'P 1'
_cell_length_a   7.67902101
_cell_length_b   7.67902090
_cell_length_c   7.67902000
_cell_angle_alpha   33.78745871
_cell_angle_beta   33.78745989
_cell_angle_gamma   33.78745806
_symmetry_Int_Tables_number   1
_chemical_formula_structural   TaNbSn2Ru3
_chemical_formula_sum   'Ta1 Nb1 Sn2 Ru3'
_cell_volume   124.78216896
_cell_formula_units_Z   1
loop_
 _symmetry_equiv_pos_site_id
 _symmetry_equiv_pos_as_xyz
  1  'x, y, z'
loop_
 _atom_site_type_symbol
 _atom_site_label
 _atom_site_symmetry_multiplicity
 _atom_site_fract_x
 _atom_site_fract_y
 _atom_site_fract_z
 _atom_site_occupancy
  Ta  Ta0  1  0.753493  0.753493  0.753493  1
  Nb  Nb1  1  0.246772  0.246772  0.246772  1
  Sn  Sn2  1  0.504611  0.504611  0.504611  1
  Sn  Sn3  1  0.993042  0.993042  0.993042  1
  Ru  Ru4  1  0.123352  0.123352  0.123352  1
  Ru  Ru5  1  0.375609  0.375609  0.375609  1
  Ru  Ru6  1  0.628121  0.628121  0.628121  1
