# generated using pymatgen
data_Li3Sn2Rh6W
_symmetry_space_group_name_H-M   'P 1'
_cell_length_a   4.36944900
_cell_length_b   6.14490400
_cell_length_c   13.11576000
_cell_angle_alpha   90.00000000
_cell_angle_beta   89.99748241
_cell_angle_gamma   90.00000000
_symmetry_Int_Tables_number   1
_chemical_formula_structural   Li3Sn2Rh6W
_chemical_formula_sum   'Li6 Sn4 Rh12 W2'
_cell_volume   352.15611828
_cell_formula_units_Z   2
loop_
 _symmetry_equiv_pos_site_id
 _symmetry_equiv_pos_as_xyz
  1  'x, y, z'
loop_
 _atom_site_type_symbol
 _atom_site_label
 _atom_site_symmetry_multiplicity
 _atom_site_fract_x
 _atom_site_fract_y
 _atom_site_fract_z
 _atom_site_occupancy
  Li  Li0  1  0.999990  0.499999  0.000891  1
  Li  Li1  1  0.499851  0.000000  0.165785  1
  Li  Li2  1  0.999808  0.499999  0.331878  1
  Li  Li3  1  0.500003  0.000000  0.500344  1
  Li  Li4  1  0.000190  0.499999  0.666283  1
  Li  Li5  1  0.500163  0.000000  0.834856  1
  Sn  Sn6  1  0.999874  0.000000  0.332347  1
  Sn  Sn7  1  0.500008  0.499999  0.500213  1
  Sn  Sn8  1  0.000162  0.000000  0.666524  1
  Sn  Sn9  1  0.500085  0.499999  0.834231  1
  Rh  Rh10  1  0.499986  0.246017  0.006222  1
  Rh  Rh11  1  0.499986  0.753983  0.006222  1
  Rh  Rh12  1  0.999875  0.254015  0.160450  1
  Rh  Rh13  1  0.999875  0.745985  0.160450  1
  Rh  Rh14  1  0.499850  0.258510  0.323284  1
  Rh  Rh15  1  0.499850  0.741490  0.323284  1
  Rh  Rh16  1  0.000007  0.250106  0.497640  1
  Rh  Rh17  1  0.000007  0.749894  0.497640  1
  Rh  Rh18  1  0.500158  0.249775  0.669020  1
  Rh  Rh19  1  0.500158  0.750225  0.669020  1
  Rh  Rh20  1  0.000119  0.241496  0.843374  1
  Rh  Rh21  1  0.000119  0.758504  0.843374  1
  W  W22  1  0.000002  0.000000  0.999121  1
  W  W23  1  0.499871  0.499999  0.167547  1
