# generated using pymatgen
data_LiHo2ErIn3HgPt
_symmetry_space_group_name_H-M   'P 1'
_cell_length_a   7.96510638
_cell_length_b   7.95508974
_cell_length_c   3.73882600
_cell_angle_alpha   90.00000000
_cell_angle_beta   90.00000000
_cell_angle_gamma   120.00635598
_symmetry_Int_Tables_number   1
_chemical_formula_structural   LiHo2ErIn3HgPt
_chemical_formula_sum   'Li1 Ho2 Er1 In3 Hg1 Pt1'
_cell_volume   205.15151592
_cell_formula_units_Z   1
loop_
 _symmetry_equiv_pos_site_id
 _symmetry_equiv_pos_as_xyz
  1  'x, y, z'
loop_
 _atom_site_type_symbol
 _atom_site_label
 _atom_site_symmetry_multiplicity
 _atom_site_fract_x
 _atom_site_fract_y
 _atom_site_fract_z
 _atom_site_occupancy
  Li  Li0  1  0.999885  0.999823  0.500000  1
  Ho  Ho1  1  0.420832  0.392868  0.500000  1
  Ho  Ho2  1  0.971835  0.578587  0.500000  1
  Er  Er3  1  0.607590  0.029074  0.500000  1
  In  In4  1  0.744125  0.746772  0.000000  1
  In  In5  1  0.001855  0.255259  0.000000  1
  In  In6  1  0.253704  0.997703  0.000000  1
  Hg  Hg7  1  0.333924  0.667465  0.000000  1
  Pt  Pt8  1  0.666249  0.332451  0.000000  1
