# generated using pymatgen
data_La2Y6Ho12Si15Pd
_symmetry_space_group_name_H-M   'P 1'
_cell_length_a   7.43179411
_cell_length_b   7.77194031
_cell_length_c   14.68272422
_cell_angle_alpha   89.61096476
_cell_angle_beta   89.96351662
_cell_angle_gamma   89.88988740
_symmetry_Int_Tables_number   1
_chemical_formula_structural   La2Y6Ho12Si15Pd
_chemical_formula_sum   'La2 Y6 Ho12 Si15 Pd1'
_cell_volume   848.04494499
_cell_formula_units_Z   1
loop_
 _symmetry_equiv_pos_site_id
 _symmetry_equiv_pos_as_xyz
  1  'x, y, z'
loop_
 _atom_site_type_symbol
 _atom_site_label
 _atom_site_symmetry_multiplicity
 _atom_site_fract_x
 _atom_site_fract_y
 _atom_site_fract_z
 _atom_site_occupancy
  La  La0  1  0.522805  0.571096  0.342102  1
  La  La1  1  0.023043  0.428661  0.657032  1
  Y  Y2  1  0.474734  0.934084  0.845678  1
  Y  Y3  1  0.973414  0.066403  0.152473  1
  Y  Y4  1  0.472822  0.934987  0.153267  1
  Y  Y5  1  0.971872  0.066852  0.848778  1
  Y  Y6  1  0.527259  0.566325  0.652203  1
  Y  Y7  1  0.027747  0.434168  0.347786  1
  Ho  Ho8  1  0.811403  0.576035  0.874998  1
  Ho  Ho9  1  0.315782  0.423670  0.125604  1
  Ho  Ho10  1  0.182282  0.928168  0.373354  1
  Ho  Ho11  1  0.682267  0.069895  0.626819  1
  Ho  Ho12  1  0.182696  0.928012  0.628248  1
  Ho  Ho13  1  0.682682  0.070882  0.371530  1
  Ho  Ho14  1  0.816151  0.571905  0.126147  1
  Ho  Ho15  1  0.319235  0.427925  0.873299  1
  Ho  Ho16  1  0.644286  0.232689  0.999387  1
  Ho  Ho17  1  0.155687  0.758510  0.000756  1
  Ho  Ho18  1  0.351251  0.263064  0.500023  1
  Ho  Ho19  1  0.850218  0.736104  0.499884  1
  Si  Si20  1  0.018763  0.352260  0.999979  1
  Si  Si21  1  0.476873  0.859571  0.501166  1
  Si  Si22  1  0.977627  0.140067  0.499011  1
  Si  Si23  1  0.650007  0.277409  0.790729  1
  Si  Si24  1  0.151694  0.721534  0.209002  1
  Si  Si25  1  0.351386  0.216013  0.288244  1
  Si  Si26  1  0.851351  0.783860  0.712525  1
  Si  Si27  1  0.361200  0.219831  0.710181  1
  Si  Si28  1  0.860616  0.780512  0.289034  1
  Si  Si29  1  0.645684  0.270358  0.206181  1
  Si  Si30  1  0.147205  0.727576  0.793517  1
  Si  Si31  1  0.772928  0.880454  0.000820  1
  Si  Si32  1  0.260060  0.124734  0.999509  1
  Si  Si33  1  0.234174  0.627655  0.501816  1
  Si  Si34  1  0.733198  0.373160  0.498447  1
  Pd  Pd35  1  0.519597  0.655569  0.000470  1
