# generated using pymatgen
data_Ca3CeFeRu3O14
_symmetry_space_group_name_H-M   'P 1'
_cell_length_a   7.29632629
_cell_length_b   7.29792500
_cell_length_c   7.24000801
_cell_angle_alpha   59.82334655
_cell_angle_beta   59.74234510
_cell_angle_gamma   60.00725433
_symmetry_Int_Tables_number   1
_chemical_formula_structural   Ca3CeFeRu3O14
_chemical_formula_sum   'Ca3 Ce1 Fe1 Ru3 O14'
_cell_volume   271.71749419
_cell_formula_units_Z   1
loop_
 _symmetry_equiv_pos_site_id
 _symmetry_equiv_pos_as_xyz
  1  'x, y, z'
loop_
 _atom_site_type_symbol
 _atom_site_label
 _atom_site_symmetry_multiplicity
 _atom_site_fract_x
 _atom_site_fract_y
 _atom_site_fract_z
 _atom_site_occupancy
  Ca  Ca0  1  0.625000  0.625000  0.125000  1
  Ca  Ca1  1  0.125000  0.625000  0.625000  1
  Ca  Ca2  1  0.625000  0.625000  0.625000  1
  Ce  Ce3  1  0.625000  0.125000  0.625000  1
  Fe  Fe4  1  0.125000  0.125000  0.625000  1
  Ru  Ru5  1  0.625000  0.125000  0.125000  1
  Ru  Ru6  1  0.125000  0.625000  0.125000  1
  Ru  Ru7  1  0.125000  0.125000  0.125000  1
  O  O8  1  0.210311  0.198760  0.799501  1
  O  O9  1  0.200988  0.805139  0.191790  1
  O  O10  1  0.447043  0.048287  0.057627  1
  O  O11  1  0.201079  0.795153  0.802689  1
  O  O12  1  0.048921  0.454847  0.447311  1
  O  O13  1  0.802082  0.805139  0.191790  1
  O  O14  1  0.447918  0.444861  0.058210  1
  O  O15  1  0.507702  0.477608  0.506988  1
  O  O16  1  0.039689  0.051240  0.450499  1
  O  O17  1  0.458572  0.051240  0.450499  1
  O  O18  1  0.049012  0.444861  0.058210  1
  O  O19  1  0.742298  0.772392  0.743012  1
  O  O20  1  0.791428  0.198760  0.799501  1
  O  O21  1  0.802957  0.201713  0.192373  1
