# generated using pymatgen
data_Pr3Nd(SeBr)4
_symmetry_space_group_name_H-M   'P 1'
_cell_length_a   7.31641107
_cell_length_b   7.36790960
_cell_length_c   7.23604358
_cell_angle_alpha   79.37613835
_cell_angle_beta   90.00623569
_cell_angle_gamma   89.98728868
_symmetry_Int_Tables_number   1
_chemical_formula_structural   Pr3Nd(SeBr)4
_chemical_formula_sum   'Pr3 Nd1 Se4 Br4'
_cell_volume   383.38455336
_cell_formula_units_Z   1
loop_
 _symmetry_equiv_pos_site_id
 _symmetry_equiv_pos_as_xyz
  1  'x, y, z'
loop_
 _atom_site_type_symbol
 _atom_site_label
 _atom_site_symmetry_multiplicity
 _atom_site_fract_x
 _atom_site_fract_y
 _atom_site_fract_z
 _atom_site_occupancy
  Pr  Pr0  1  0.955084  0.795188  0.313398  1
  Pr  Pr1  1  0.045045  0.204898  0.686501  1
  Pr  Pr2  1  0.455127  0.704781  0.686500  1
  Nd  Nd3  1  0.544858  0.295249  0.314139  1
  Se  Se4  1  0.739043  0.990811  0.563734  1
  Se  Se5  1  0.261205  0.011048  0.434950  1
  Se  Se6  1  0.240704  0.509451  0.434960  1
  Se  Se7  1  0.759631  0.489186  0.563695  1
  Br  Br8  1  0.644332  0.677884  0.072950  1
  Br  Br9  1  0.355866  0.321193  0.928565  1
  Br  Br10  1  0.144500  0.821242  0.927512  1
  Br  Br11  1  0.854604  0.179071  0.073095  1
