# generated using pymatgen
data_NdSm5Co16(P6Ru)2
_symmetry_space_group_name_H-M   'P 1'
_cell_length_a   3.74582500
_cell_length_b   10.59964700
_cell_length_c   12.35944800
_cell_angle_alpha   90.00000000
_cell_angle_beta   90.00000000
_cell_angle_gamma   90.00000000
_symmetry_Int_Tables_number   1
_chemical_formula_structural   NdSm5Co16(P6Ru)2
_chemical_formula_sum   'Nd1 Sm5 Co16 P12 Ru2'
_cell_volume   490.72474802
_cell_formula_units_Z   1
loop_
 _symmetry_equiv_pos_site_id
 _symmetry_equiv_pos_as_xyz
  1  'x, y, z'
loop_
 _atom_site_type_symbol
 _atom_site_label
 _atom_site_symmetry_multiplicity
 _atom_site_fract_x
 _atom_site_fract_y
 _atom_site_fract_z
 _atom_site_occupancy
  Nd  Nd0  1  0.500000  0.000000  0.476050  1
  Sm  Sm1  1  0.000000  0.500000  0.523402  1
  Sm  Sm2  1  0.500000  0.816633  0.206413  1
  Sm  Sm3  1  0.500000  0.183367  0.206413  1
  Sm  Sm4  1  0.000000  0.683192  0.793426  1
  Sm  Sm5  1  0.000000  0.316808  0.793426  1
  Co  Co6  1  0.500000  0.500000  0.705128  1
  Co  Co7  1  0.000000  0.000000  0.294033  1
  Co  Co8  1  0.000000  0.500000  0.986714  1
  Co  Co9  1  0.500000  0.000000  0.013147  1
  Co  Co10  1  0.500000  0.332608  0.991608  1
  Co  Co11  1  0.500000  0.667392  0.991608  1
  Co  Co12  1  0.000000  0.167590  0.008446  1
  Co  Co13  1  0.000000  0.832410  0.008446  1
  Co  Co14  1  0.500000  0.298210  0.430339  1
  Co  Co15  1  0.500000  0.701790  0.430339  1
  Co  Co16  1  0.000000  0.203846  0.569737  1
  Co  Co17  1  0.000000  0.796154  0.569737  1
  Co  Co18  1  0.500000  0.880397  0.709442  1
  Co  Co19  1  0.500000  0.119603  0.709442  1
  Co  Co20  1  0.000000  0.619129  0.290823  1
  Co  Co21  1  0.000000  0.380871  0.290823  1
  P  P22  1  0.500000  0.500000  0.884436  1
  P  P23  1  0.000000  0.000000  0.115251  1
  P  P24  1  0.500000  0.500000  0.346940  1
  P  P25  1  0.000000  0.000000  0.654338  1
  P  P26  1  0.500000  0.309054  0.615181  1
  P  P27  1  0.500000  0.690946  0.615181  1
  P  P28  1  0.000000  0.192733  0.384437  1
  P  P29  1  0.000000  0.807267  0.384437  1
  P  P30  1  0.500000  0.847216  0.895200  1
  P  P31  1  0.500000  0.152784  0.895200  1
  P  P32  1  0.000000  0.652481  0.104936  1
  P  P33  1  0.000000  0.347519  0.104936  1
  Ru  Ru34  1  0.500000  0.500000  0.158299  1
  Ru  Ru35  1  0.000000  0.000000  0.842285  1
