# generated using pymatgen
data_Tb12InSi4Ag
_symmetry_space_group_name_H-M   'P 1'
_cell_length_a   8.55177792
_cell_length_b   8.55184431
_cell_length_c   8.55177868
_cell_angle_alpha   111.76542719
_cell_angle_beta   111.20251142
_cell_angle_gamma   105.51686538
_symmetry_Int_Tables_number   1
_chemical_formula_structural   Tb12InSi4Ag
_chemical_formula_sum   'Tb12 In1 Si4 Ag1'
_cell_volume   479.73442491
_cell_formula_units_Z   1
loop_
 _symmetry_equiv_pos_site_id
 _symmetry_equiv_pos_as_xyz
  1  'x, y, z'
loop_
 _atom_site_type_symbol
 _atom_site_label
 _atom_site_symmetry_multiplicity
 _atom_site_fract_x
 _atom_site_fract_y
 _atom_site_fract_z
 _atom_site_occupancy
  Tb  Tb0  1  0.439094  0.238704  0.200383  1
  Tb  Tb1  1  0.560906  0.761296  0.799617  1
  Tb  Tb2  1  0.038321  0.238704  0.799610  1
  Tb  Tb3  1  0.961679  0.761296  0.200390  1
  Tb  Tb4  1  0.181091  0.270920  0.451995  1
  Tb  Tb5  1  0.818909  0.729080  0.548005  1
  Tb  Tb6  1  0.181074  0.729080  0.910171  1
  Tb  Tb7  1  0.818926  0.270920  0.089829  1
  Tb  Tb8  1  0.321005  0.617520  0.296515  1
  Tb  Tb9  1  0.678995  0.382480  0.703485  1
  Tb  Tb10  1  0.320998  0.024480  0.703481  1
  Tb  Tb11  1  0.679002  0.975520  0.296519  1
  In  In12  1  0.500000  0.500000  0.000000  1
  Si  Si13  1  0.362692  0.000000  0.362692  1
  Si  Si14  1  0.637308  0.000000  0.637308  1
  Si  Si15  1  0.116113  0.616109  0.499996  1
  Si  Si16  1  0.883887  0.383891  0.500004  1
  Ag  Ag17  1  0.000000  0.000000  0.000000  1
