# generated using pymatgen
data_LaCe2(ZnPt)4
_symmetry_space_group_name_H-M   'P 1'
_cell_length_a   8.35162387
_cell_length_b   8.35162386
_cell_length_c   8.35162324
_cell_angle_alpha   152.00569577
_cell_angle_beta   125.19919005
_cell_angle_gamma   62.65063089
_symmetry_Int_Tables_number   1
_chemical_formula_structural   LaCe2(ZnPt)4
_chemical_formula_sum   'La1 Ce2 Zn4 Pt4'
_cell_volume   221.55832579
_cell_formula_units_Z   1
loop_
 _symmetry_equiv_pos_site_id
 _symmetry_equiv_pos_as_xyz
  1  'x, y, z'
loop_
 _atom_site_type_symbol
 _atom_site_label
 _atom_site_symmetry_multiplicity
 _atom_site_fract_x
 _atom_site_fract_y
 _atom_site_fract_z
 _atom_site_occupancy
  La  La0  1  0.500000  0.000000  0.500000  1
  Ce  Ce1  1  0.873120  0.873120  0.000000  1
  Ce  Ce2  1  0.126880  0.126880  0.000000  1
  Zn  Zn3  1  0.477033  0.674397  0.802636  1
  Zn  Zn4  1  0.871761  0.674397  0.197364  1
  Zn  Zn5  1  0.128239  0.325603  0.802636  1
  Zn  Zn6  1  0.522967  0.325603  0.197364  1
  Pt  Pt7  1  0.277353  0.777353  0.500000  1
  Pt  Pt8  1  0.722647  0.222647  0.500000  1
  Pt  Pt9  1  0.808573  0.500000  0.308573  1
  Pt  Pt10  1  0.191427  0.500000  0.691427  1
