# generated using pymatgen
data_YbPr2Lu4FeI12
_symmetry_space_group_name_H-M   'P 1'
_cell_length_a   9.82779569
_cell_length_b   9.67422129
_cell_length_c   9.81951673
_cell_angle_alpha   106.41390640
_cell_angle_beta   106.77472889
_cell_angle_gamma   107.72694447
_symmetry_Int_Tables_number   1
_chemical_formula_structural   YbPr2Lu4FeI12
_chemical_formula_sum   'Yb1 Pr2 Lu4 Fe1 I12'
_cell_volume   778.02498352
_cell_formula_units_Z   1
loop_
 _symmetry_equiv_pos_site_id
 _symmetry_equiv_pos_as_xyz
  1  'x, y, z'
loop_
 _atom_site_type_symbol
 _atom_site_label
 _atom_site_symmetry_multiplicity
 _atom_site_fract_x
 _atom_site_fract_y
 _atom_site_fract_z
 _atom_site_occupancy
  Yb  Yb0  1  0.000000  0.000000  0.000000  1
  Pr  Pr1  1  0.590601  0.777542  0.523388  1
  Pr  Pr2  1  0.409399  0.222458  0.476612  1
  Lu  Lu3  1  0.796352  0.528412  0.596540  1
  Lu  Lu4  1  0.526531  0.596420  0.795536  1
  Lu  Lu5  1  0.203648  0.471588  0.403460  1
  Lu  Lu6  1  0.473469  0.403580  0.204464  1
  Fe  Fe7  1  0.500000  0.500000  0.500000  1
  I  I8  1  0.737289  0.195466  0.579797  1
  I  I9  1  0.967225  0.879213  0.656470  1
  I  I10  1  0.569324  0.716223  0.171233  1
  I  I11  1  0.123517  0.353624  0.047320  1
  I  I12  1  0.651459  0.955289  0.887207  1
  I  I13  1  0.876483  0.646376  0.952680  1
  I  I14  1  0.032775  0.120787  0.343530  1
  I  I15  1  0.817294  0.429905  0.281462  1
  I  I16  1  0.348541  0.044711  0.112793  1
  I  I17  1  0.262711  0.804534  0.420203  1
  I  I18  1  0.182706  0.570095  0.718538  1
  I  I19  1  0.430676  0.283777  0.828767  1
