# generated using pymatgen
data_CeNd3CdIr
_symmetry_space_group_name_H-M   'P 1'
_cell_length_a   9.90773954
_cell_length_b   9.90774008
_cell_length_c   9.90774000
_cell_angle_alpha   60.00000028
_cell_angle_beta   59.99999846
_cell_angle_gamma   60.00000079
_symmetry_Int_Tables_number   1
_chemical_formula_structural   CeNd3CdIr
_chemical_formula_sum   'Ce4 Nd12 Cd4 Ir4'
_cell_volume   687.71546047
_cell_formula_units_Z   4
loop_
 _symmetry_equiv_pos_site_id
 _symmetry_equiv_pos_as_xyz
  1  'x, y, z'
loop_
 _atom_site_type_symbol
 _atom_site_label
 _atom_site_symmetry_multiplicity
 _atom_site_fract_x
 _atom_site_fract_y
 _atom_site_fract_z
 _atom_site_occupancy
  Ce  Ce0  1  0.346249  0.346249  0.346249  1
  Ce  Ce1  1  0.346249  0.346249  0.961252  1
  Ce  Ce2  1  0.346249  0.961252  0.346249  1
  Ce  Ce3  1  0.961252  0.346249  0.346249  1
  Nd  Nd4  1  0.809144  0.190856  0.190856  1
  Nd  Nd5  1  0.190856  0.809144  0.809144  1
  Nd  Nd6  1  0.190856  0.809144  0.190856  1
  Nd  Nd7  1  0.809144  0.190856  0.809144  1
  Nd  Nd8  1  0.190856  0.190856  0.809144  1
  Nd  Nd9  1  0.809144  0.809144  0.190856  1
  Nd  Nd10  1  0.939225  0.560775  0.560775  1
  Nd  Nd11  1  0.560775  0.939225  0.939225  1
  Nd  Nd12  1  0.560775  0.939225  0.560775  1
  Nd  Nd13  1  0.939225  0.560775  0.939225  1
  Nd  Nd14  1  0.560775  0.560775  0.939225  1
  Nd  Nd15  1  0.939225  0.939225  0.560775  1
  Cd  Cd16  1  0.579579  0.579579  0.579579  1
  Cd  Cd17  1  0.579579  0.579579  0.261262  1
  Cd  Cd18  1  0.579579  0.261262  0.579579  1
  Cd  Cd19  1  0.261262  0.579579  0.579579  1
  Ir  Ir20  1  0.145163  0.145163  0.145163  1
  Ir  Ir21  1  0.145163  0.145163  0.564509  1
  Ir  Ir22  1  0.145163  0.564509  0.145163  1
  Ir  Ir23  1  0.564509  0.145163  0.145163  1
