# generated using pymatgen
data_TbEr5(GaIr2)6
_symmetry_space_group_name_H-M   'P 1'
_cell_length_a   5.54211300
_cell_length_b   5.54211169
_cell_length_c   15.74035100
_cell_angle_alpha   90.00000000
_cell_angle_beta   90.00000000
_cell_angle_gamma   119.99998992
_symmetry_Int_Tables_number   1
_chemical_formula_structural   TbEr5(GaIr2)6
_chemical_formula_sum   'Tb1 Er5 Ga6 Ir12'
_cell_volume   418.69303715
_cell_formula_units_Z   1
loop_
 _symmetry_equiv_pos_site_id
 _symmetry_equiv_pos_as_xyz
  1  'x, y, z'
loop_
 _atom_site_type_symbol
 _atom_site_label
 _atom_site_symmetry_multiplicity
 _atom_site_fract_x
 _atom_site_fract_y
 _atom_site_fract_z
 _atom_site_occupancy
  Tb  Tb0  1  0.333333  0.666667  0.750000  1
  Er  Er1  1  0.333333  0.666667  0.539853  1
  Er  Er2  1  0.666667  0.333333  0.459160  1
  Er  Er3  1  0.666667  0.333333  0.040840  1
  Er  Er4  1  0.333333  0.666667  0.960147  1
  Er  Er5  1  0.666667  0.333333  0.250000  1
  Ga  Ga6  1  0.000000  0.000000  0.250000  1
  Ga  Ga7  1  0.000000  0.000000  0.750000  1
  Ga  Ga8  1  0.333333  0.666667  0.250000  1
  Ga  Ga9  1  0.666667  0.333333  0.750000  1
  Ga  Ga10  1  0.000000  0.000000  0.999969  1
  Ga  Ga11  1  0.000000  0.000000  0.500031  1
  Ir  Ir12  1  0.169662  0.339325  0.124981  1
  Ir  Ir13  1  0.830118  0.660238  0.875255  1
  Ir  Ir14  1  0.660675  0.830338  0.124981  1
  Ir  Ir15  1  0.830118  0.660238  0.624745  1
  Ir  Ir16  1  0.339762  0.169882  0.875255  1
  Ir  Ir17  1  0.169662  0.339325  0.375019  1
  Ir  Ir18  1  0.169662  0.830338  0.124981  1
  Ir  Ir19  1  0.339762  0.169882  0.624745  1
  Ir  Ir20  1  0.830118  0.169882  0.875255  1
  Ir  Ir21  1  0.660675  0.830338  0.375019  1
  Ir  Ir22  1  0.830118  0.169882  0.624745  1
  Ir  Ir23  1  0.169662  0.830338  0.375019  1
