# generated using pymatgen
data_HoEr3(IrO6)2
_symmetry_space_group_name_H-M   'P 1'
_cell_length_a   5.25200801
_cell_length_b   9.11564209
_cell_length_c   9.81737209
_cell_angle_alpha   89.98526858
_cell_angle_beta   89.99587762
_cell_angle_gamma   89.99446318
_symmetry_Int_Tables_number   1
_chemical_formula_structural   HoEr3(IrO6)2
_chemical_formula_sum   'Ho2 Er6 Ir4 O24'
_cell_volume   470.01084455
_cell_formula_units_Z   2
loop_
 _symmetry_equiv_pos_site_id
 _symmetry_equiv_pos_as_xyz
  1  'x, y, z'
loop_
 _atom_site_type_symbol
 _atom_site_label
 _atom_site_symmetry_multiplicity
 _atom_site_fract_x
 _atom_site_fract_y
 _atom_site_fract_z
 _atom_site_occupancy
  Ho  Ho0  1  0.017765  0.398691  0.033318  1
  Ho  Ho1  1  0.042704  0.281304  0.628956  1
  Er  Er2  1  0.457236  0.718956  0.128915  1
  Er  Er3  1  0.482355  0.601268  0.533036  1
  Er  Er4  1  0.517737  0.100531  0.966881  1
  Er  Er5  1  0.542524  0.218574  0.370916  1
  Er  Er6  1  0.957164  0.781441  0.871172  1
  Er  Er7  1  0.982204  0.898826  0.466827  1
  Ir  Ir8  1  0.041898  0.003787  0.148736  1
  Ir  Ir9  1  0.457989  0.995643  0.648631  1
  Ir  Ir10  1  0.542053  0.496458  0.851394  1
  Ir  Ir11  1  0.957852  0.504224  0.351434  1
  O  O12  1  0.084259  0.656990  0.473272  1
  O  O13  1  0.165672  0.555109  0.199534  1
  O  O14  1  0.188802  0.855942  0.265598  1
  O  O15  1  0.168245  0.865512  0.682542  1
  O  O16  1  0.237931  0.385061  0.429594  1
  O  O17  1  0.252443  0.089096  0.501121  1
  O  O18  1  0.247725  0.910259  0.001439  1
  O  O19  1  0.262290  0.615423  0.929964  1
  O  O20  1  0.331404  0.134469  0.182478  1
  O  O21  1  0.312135  0.143658  0.765800  1
  O  O22  1  0.335220  0.446009  0.699072  1
  O  O23  1  0.417388  0.342952  0.973082  1
  O  O24  1  0.584384  0.842879  0.526801  1
  O  O25  1  0.665515  0.945367  0.800956  1
  O  O26  1  0.688980  0.644240  0.734456  1
  O  O27  1  0.668503  0.634626  0.317389  1
  O  O28  1  0.737003  0.114635  0.569615  1
  O  O29  1  0.751275  0.410632  0.498346  1
  O  O30  1  0.747260  0.590420  0.998556  1
  O  O31  1  0.762259  0.884816  0.070122  1
  O  O32  1  0.830868  0.365748  0.817331  1
  O  O33  1  0.810936  0.355855  0.235083  1
  O  O34  1  0.834651  0.054427  0.300969  1
  O  O35  1  0.915372  0.156172  0.026663  1
