# generated using pymatgen
data_Be9V2W
_symmetry_space_group_name_H-M   'P 1'
_cell_length_a   7.24179650
_cell_length_b   7.24179621
_cell_length_c   7.24179596
_cell_angle_alpha   34.95579292
_cell_angle_beta   34.95579333
_cell_angle_gamma   34.95578495
_symmetry_Int_Tables_number   1
_chemical_formula_structural   Be9V2W
_chemical_formula_sum   'Be9 V2 W1'
_cell_volume   111.30744216
_cell_formula_units_Z   1
loop_
 _symmetry_equiv_pos_site_id
 _symmetry_equiv_pos_as_xyz
  1  'x, y, z'
loop_
 _atom_site_type_symbol
 _atom_site_label
 _atom_site_symmetry_multiplicity
 _atom_site_fract_x
 _atom_site_fract_y
 _atom_site_fract_z
 _atom_site_occupancy
  Be  Be0  1  0.414850  0.922521  0.414850  1
  Be  Be1  1  0.414850  0.414850  0.922521  1
  Be  Be2  1  0.922521  0.414850  0.414850  1
  Be  Be3  1  0.585150  0.077479  0.585150  1
  Be  Be4  1  0.585150  0.585150  0.077479  1
  Be  Be5  1  0.077479  0.585150  0.585150  1
  Be  Be6  1  0.665841  0.665841  0.665841  1
  Be  Be7  1  0.334159  0.334159  0.334159  1
  Be  Be8  1  0.500000  0.500000  0.500000  1
  V  V9  1  0.857255  0.857255  0.857255  1
  V  V10  1  0.142745  0.142745  0.142745  1
  W  W11  1  0.000000  0.000000  0.000000  1
