# generated using pymatgen
data_TbNb6TcS12
_symmetry_space_group_name_H-M   'P 1'
_cell_length_a   5.82907100
_cell_length_b   5.82907163
_cell_length_c   12.81410100
_cell_angle_alpha   90.00000000
_cell_angle_beta   90.00000000
_cell_angle_gamma   120.00000213
_symmetry_Int_Tables_number   1
_chemical_formula_structural   TbNb6TcS12
_chemical_formula_sum   'Tb1 Nb6 Tc1 S12'
_cell_volume   377.06611136
_cell_formula_units_Z   1
loop_
 _symmetry_equiv_pos_site_id
 _symmetry_equiv_pos_as_xyz
  1  'x, y, z'
loop_
 _atom_site_type_symbol
 _atom_site_label
 _atom_site_symmetry_multiplicity
 _atom_site_fract_x
 _atom_site_fract_y
 _atom_site_fract_z
 _atom_site_occupancy
  Tb  Tb0  1  0.333333  0.666667  0.250000  1
  Nb  Nb1  1  0.000000  0.000000  0.518989  1
  Nb  Nb2  1  0.000000  0.000000  0.981011  1
  Nb  Nb3  1  0.333333  0.666667  0.981689  1
  Nb  Nb4  1  0.666667  0.333333  0.985048  1
  Nb  Nb5  1  0.666667  0.333333  0.514952  1
  Nb  Nb6  1  0.333333  0.666667  0.518311  1
  Tc  Tc7  1  0.666667  0.333333  0.750000  1
  S  S8  1  0.330174  0.326602  0.393650  1
  S  S9  1  0.673398  0.003573  0.393650  1
  S  S10  1  0.996427  0.669826  0.393650  1
  S  S11  1  0.336063  0.333267  0.638486  1
  S  S12  1  0.997204  0.663937  0.638486  1
  S  S13  1  0.666733  0.002796  0.638486  1
  S  S14  1  0.666733  0.663937  0.861514  1
  S  S15  1  0.336063  0.002796  0.861514  1
  S  S16  1  0.997204  0.333267  0.861514  1
  S  S17  1  0.673398  0.669826  0.106350  1
  S  S18  1  0.996427  0.326602  0.106350  1
  S  S19  1  0.330174  0.003573  0.106350  1
