# generated using pymatgen
data_Rb8CeNd3F20
_symmetry_space_group_name_H-M   'P 1'
_cell_length_a   7.02621317
_cell_length_b   7.74523464
_cell_length_c   11.58604976
_cell_angle_alpha   90.01965694
_cell_angle_beta   90.07497715
_cell_angle_gamma   90.03266127
_symmetry_Int_Tables_number   1
_chemical_formula_structural   Rb8CeNd3F20
_chemical_formula_sum   'Rb8 Ce1 Nd3 F20'
_cell_volume   630.50832082
_cell_formula_units_Z   1
loop_
 _symmetry_equiv_pos_site_id
 _symmetry_equiv_pos_as_xyz
  1  'x, y, z'
loop_
 _atom_site_type_symbol
 _atom_site_label
 _atom_site_symmetry_multiplicity
 _atom_site_fract_x
 _atom_site_fract_y
 _atom_site_fract_z
 _atom_site_occupancy
  Rb  Rb0  1  0.531962  0.021078  0.170931  1
  Rb  Rb1  1  0.467806  0.521895  0.828707  1
  Rb  Rb2  1  0.969306  0.021179  0.671202  1
  Rb  Rb3  1  0.032052  0.522116  0.329025  1
  Rb  Rb4  1  0.031781  0.015616  0.329006  1
  Rb  Rb5  1  0.969632  0.516603  0.671123  1
  Rb  Rb6  1  0.468068  0.015847  0.828949  1
  Rb  Rb7  1  0.531715  0.516661  0.170919  1
  Ce  Ce8  1  0.441251  0.267746  0.501463  1
  Nd  Nd9  1  0.561245  0.768011  0.498168  1
  Nd  Nd10  1  0.061280  0.268344  0.002128  1
  Nd  Nd11  1  0.938501  0.768270  0.998007  1
  F  F12  1  0.142810  0.986575  0.074955  1
  F  F13  1  0.856966  0.486324  0.925175  1
  F  F14  1  0.355477  0.983430  0.574734  1
  F  F15  1  0.644490  0.487994  0.424451  1
  F  F16  1  0.387784  0.269215  0.012989  1
  F  F17  1  0.612038  0.769149  0.987238  1
  F  F18  1  0.109779  0.269086  0.512818  1
  F  F19  1  0.887919  0.769167  0.487535  1
  F  F20  1  0.141395  0.550064  0.075973  1
  F  F21  1  0.858490  0.049834  0.924096  1
  F  F22  1  0.357151  0.552585  0.575967  1
  F  F23  1  0.643221  0.048138  0.423453  1
  F  F24  1  0.340249  0.268466  0.310200  1
  F  F25  1  0.658770  0.768928  0.689682  1
  F  F26  1  0.157950  0.268808  0.810862  1
  F  F27  1  0.841867  0.768731  0.189363  1
  F  F28  1  0.369947  0.766933  0.335491  1
  F  F29  1  0.629290  0.267186  0.665065  1
  F  F30  1  0.130200  0.767006  0.835999  1
  F  F31  1  0.869604  0.267026  0.164327  1
