# generated using pymatgen
data_Cs5Bi2Au
_symmetry_space_group_name_H-M   'P 1'
_cell_length_a   11.15302339
_cell_length_b   11.15302302
_cell_length_c   11.15302301
_cell_angle_alpha   34.61589543
_cell_angle_beta   34.61589847
_cell_angle_gamma   34.61589047
_symmetry_Int_Tables_number   1
_chemical_formula_structural   Cs5Bi2Au
_chemical_formula_sum   'Cs5 Bi2 Au1'
_cell_volume   399.47951393
_cell_formula_units_Z   1
loop_
 _symmetry_equiv_pos_site_id
 _symmetry_equiv_pos_as_xyz
  1  'x, y, z'
loop_
 _atom_site_type_symbol
 _atom_site_label
 _atom_site_symmetry_multiplicity
 _atom_site_fract_x
 _atom_site_fract_y
 _atom_site_fract_z
 _atom_site_occupancy
  Cs  Cs0  1  0.216978  0.216978  0.216978  1
  Cs  Cs1  1  0.364139  0.364139  0.364139  1
  Cs  Cs2  1  0.500000  0.500000  0.500000  1
  Cs  Cs3  1  0.635861  0.635861  0.635861  1
  Cs  Cs4  1  0.783022  0.783022  0.783022  1
  Bi  Bi5  1  0.088791  0.088791  0.088791  1
  Bi  Bi6  1  0.911209  0.911209  0.911209  1
  Au  Au7  1  0.000000  0.000000  0.000000  1
