# generated using pymatgen
data_Dy8Sc2Ir5Pt
_symmetry_space_group_name_H-M   'P 1'
_cell_length_a   10.82730101
_cell_length_b   10.82523500
_cell_length_c   6.27072301
_cell_angle_alpha   90.00000000
_cell_angle_beta   90.00515374
_cell_angle_gamma   90.00000000
_symmetry_Int_Tables_number   1
_chemical_formula_structural   Dy8Sc2Ir5Pt
_chemical_formula_sum   'Dy16 Sc4 Ir10 Pt2'
_cell_volume   734.97938739
_cell_formula_units_Z   2
loop_
 _symmetry_equiv_pos_site_id
 _symmetry_equiv_pos_as_xyz
  1  'x, y, z'
loop_
 _atom_site_type_symbol
 _atom_site_label
 _atom_site_symmetry_multiplicity
 _atom_site_fract_x
 _atom_site_fract_y
 _atom_site_fract_z
 _atom_site_occupancy
  Dy  Dy0  1  0.288332  0.086217  0.377743  1
  Dy  Dy1  1  0.288332  0.913783  0.877743  1
  Dy  Dy2  1  0.708545  0.087663  0.876170  1
  Dy  Dy3  1  0.708545  0.912337  0.376170  1
  Dy  Dy4  1  0.583556  0.787407  0.879011  1
  Dy  Dy5  1  0.583556  0.212593  0.379011  1
  Dy  Dy6  1  0.413358  0.787840  0.378425  1
  Dy  Dy7  1  0.413358  0.212160  0.878425  1
  Dy  Dy8  1  0.212170  0.413873  0.621389  1
  Dy  Dy9  1  0.212170  0.586127  0.121389  1
  Dy  Dy10  1  0.787530  0.415975  0.121042  1
  Dy  Dy11  1  0.787530  0.584025  0.621042  1
  Dy  Dy12  1  0.915116  0.710297  0.124945  1
  Dy  Dy13  1  0.915116  0.289703  0.624945  1
  Dy  Dy14  1  0.088839  0.710193  0.621258  1
  Dy  Dy15  1  0.088839  0.289807  0.121258  1
  Sc  Sc16  1  0.003736  0.999654  0.500084  1
  Sc  Sc17  1  0.003736  0.000346  0.000084  1
  Sc  Sc18  1  0.499725  0.499837  0.999999  1
  Sc  Sc19  1  0.499725  0.500163  0.499999  1
  Ir  Ir20  1  0.145974  0.146909  0.749890  1
  Ir  Ir21  1  0.145974  0.853091  0.249890  1
  Ir  Ir22  1  0.648049  0.351902  0.750108  1
  Ir  Ir23  1  0.648049  0.648098  0.250108  1
  Ir  Ir24  1  0.352501  0.352564  0.249859  1
  Ir  Ir25  1  0.352501  0.647436  0.749859  1
  Ir  Ir26  1  0.500816  0.999873  0.123620  1
  Ir  Ir27  1  0.500816  0.000127  0.623620  1
  Ir  Ir28  1  0.999764  0.500188  0.876373  1
  Ir  Ir29  1  0.999764  0.499812  0.376373  1
  Pt  Pt30  1  0.851987  0.147155  0.250085  1
  Pt  Pt31  1  0.851987  0.852845  0.750085  1
