# generated using pymatgen
data_CaDy(NiSn)2
_symmetry_space_group_name_H-M   'P 1'
_cell_length_a   4.48125500
_cell_length_b   7.20200241
_cell_length_c   7.69477628
_cell_angle_alpha   90.19552442
_cell_angle_beta   90.00000000
_cell_angle_gamma   90.00000000
_symmetry_Int_Tables_number   1
_chemical_formula_structural   CaDy(NiSn)2
_chemical_formula_sum   'Ca2 Dy2 Ni4 Sn4'
_cell_volume   248.33983529
_cell_formula_units_Z   2
loop_
 _symmetry_equiv_pos_site_id
 _symmetry_equiv_pos_as_xyz
  1  'x, y, z'
loop_
 _atom_site_type_symbol
 _atom_site_label
 _atom_site_symmetry_multiplicity
 _atom_site_fract_x
 _atom_site_fract_y
 _atom_site_fract_z
 _atom_site_occupancy
  Ca  Ca0  1  0.750000  0.015604  0.697348  1
  Ca  Ca1  1  0.250000  0.984396  0.302652  1
  Dy  Dy2  1  0.750000  0.514250  0.802790  1
  Dy  Dy3  1  0.250000  0.485750  0.197210  1
  Ni  Ni4  1  0.750000  0.781932  0.086781  1
  Ni  Ni5  1  0.250000  0.218068  0.913219  1
  Ni  Ni6  1  0.750000  0.311428  0.406898  1
  Ni  Ni7  1  0.250000  0.688572  0.593102  1
  Sn  Sn8  1  0.750000  0.684635  0.417399  1
  Sn  Sn9  1  0.250000  0.315365  0.582601  1
  Sn  Sn10  1  0.750000  0.184719  0.085141  1
  Sn  Sn11  1  0.250000  0.815281  0.914859  1
