# generated using pymatgen
data_Dy2Tm3OsRu
_symmetry_space_group_name_H-M   'P 1'
_cell_length_a   6.30524663
_cell_length_b   7.28990469
_cell_length_c   8.36206607
_cell_angle_alpha   96.92691844
_cell_angle_beta   112.14890048
_cell_angle_gamma   90.00000808
_symmetry_Int_Tables_number   1
_chemical_formula_structural   Dy2Tm3OsRu
_chemical_formula_sum   'Dy4 Tm6 Os2 Ru2'
_cell_volume   352.96556462
_cell_formula_units_Z   2
loop_
 _symmetry_equiv_pos_site_id
 _symmetry_equiv_pos_as_xyz
  1  'x, y, z'
loop_
 _atom_site_type_symbol
 _atom_site_label
 _atom_site_symmetry_multiplicity
 _atom_site_fract_x
 _atom_site_fract_y
 _atom_site_fract_z
 _atom_site_occupancy
  Dy  Dy0  1  0.791568  0.082891  0.815217  1
  Dy  Dy1  1  0.976351  0.417109  0.184783  1
  Dy  Dy2  1  0.210157  0.916080  0.186931  1
  Dy  Dy3  1  0.023227  0.583920  0.813069  1
  Tm  Tm4  1  0.204026  0.183164  0.564870  1
  Tm  Tm5  1  0.639156  0.316836  0.435130  1
  Tm  Tm6  1  0.795344  0.817007  0.434334  1
  Tm  Tm7  1  0.361011  0.682993  0.565666  1
  Tm  Tm8  1  0.421890  0.250000  0.000000  1
  Tm  Tm9  1  0.579825  0.750000  0.000000  1
  Os  Os10  1  0.599438  0.423387  0.779450  1
  Os  Os11  1  0.819988  0.076613  0.220550  1
  Ru  Ru12  1  0.399475  0.577056  0.220931  1
  Ru  Ru13  1  0.178545  0.922944  0.779069  1
