# generated using pymatgen
data_NdH5Rh
_symmetry_space_group_name_H-M   'P 1'
_cell_length_a   4.54170400
_cell_length_b   4.76849300
_cell_length_c   12.19973000
_cell_angle_alpha   90.00000000
_cell_angle_beta   90.00000000
_cell_angle_gamma   90.00000000
_symmetry_Int_Tables_number   1
_chemical_formula_structural   NdH5Rh
_chemical_formula_sum   'Nd4 H20 Rh4'
_cell_volume   264.21057412
_cell_formula_units_Z   4
loop_
 _symmetry_equiv_pos_site_id
 _symmetry_equiv_pos_as_xyz
  1  'x, y, z'
loop_
 _atom_site_type_symbol
 _atom_site_label
 _atom_site_symmetry_multiplicity
 _atom_site_fract_x
 _atom_site_fract_y
 _atom_site_fract_z
 _atom_site_occupancy
  Nd  Nd0  1  0.267458  0.177080  0.649580  1
  Nd  Nd1  1  0.767458  0.322920  0.350420  1
  Nd  Nd2  1  0.232542  0.822920  0.149580  1
  Nd  Nd3  1  0.732542  0.677080  0.850420  1
  H  H4  1  0.565538  0.385536  0.521644  1
  H  H5  1  0.065538  0.114464  0.478356  1
  H  H6  1  0.934462  0.614464  0.021644  1
  H  H7  1  0.434462  0.885536  0.978356  1
  H  H8  1  0.162971  0.942431  0.817094  1
  H  H9  1  0.662971  0.557569  0.182906  1
  H  H10  1  0.337029  0.057569  0.317094  1
  H  H11  1  0.837029  0.442431  0.682906  1
  H  H12  1  0.204243  0.446015  0.832515  1
  H  H13  1  0.704243  0.053985  0.167485  1
  H  H14  1  0.295757  0.553985  0.332515  1
  H  H15  1  0.795757  0.946015  0.667485  1
  H  H16  1  0.595137  0.175186  0.820097  1
  H  H17  1  0.095137  0.324814  0.179903  1
  H  H18  1  0.904863  0.824814  0.320097  1
  H  H19  1  0.404863  0.675186  0.679903  1
  H  H20  1  0.987344  0.109636  0.994363  1
  H  H21  1  0.487344  0.390364  0.005637  1
  H  H22  1  0.512656  0.890364  0.494363  1
  H  H23  1  0.012656  0.609636  0.505637  1
  Rh  Rh24  1  0.307075  0.164590  0.910370  1
  Rh  Rh25  1  0.807075  0.335410  0.089630  1
  Rh  Rh26  1  0.192925  0.835410  0.410370  1
  Rh  Rh27  1  0.692925  0.664590  0.589630  1
