# generated using pymatgen
data_Tm8Ta9Nb3Si16
_symmetry_space_group_name_H-M   'P 1'
_cell_length_a   7.01087204
_cell_length_b   7.01253105
_cell_length_c   12.93717116
_cell_angle_alpha   90.00529892
_cell_angle_beta   89.96760286
_cell_angle_gamma   90.01684855
_symmetry_Int_Tables_number   1
_chemical_formula_structural   Tm8Ta9Nb3Si16
_chemical_formula_sum   'Tm8 Ta9 Nb3 Si16'
_cell_volume   636.04240536
_cell_formula_units_Z   1
loop_
 _symmetry_equiv_pos_site_id
 _symmetry_equiv_pos_as_xyz
  1  'x, y, z'
loop_
 _atom_site_type_symbol
 _atom_site_label
 _atom_site_symmetry_multiplicity
 _atom_site_fract_x
 _atom_site_fract_y
 _atom_site_fract_z
 _atom_site_occupancy
  Tm  Tm0  1  0.998596  0.340228  0.218628  1
  Tm  Tm1  1  0.001282  0.659664  0.718621  1
  Tm  Tm2  1  0.159851  0.498555  0.468559  1
  Tm  Tm3  1  0.500636  0.840022  0.031516  1
  Tm  Tm4  1  0.840094  0.501531  0.968626  1
  Tm  Tm5  1  0.499163  0.159631  0.531523  1
  Tm  Tm6  1  0.340319  0.999169  0.781311  1
  Tm  Tm7  1  0.659764  0.000456  0.281306  1
  Ta  Ta8  1  0.170412  0.170843  0.999722  1
  Ta  Ta9  1  0.830004  0.829694  0.500093  1
  Ta  Ta10  1  0.329693  0.669711  0.249946  1
  Ta  Ta11  1  0.670167  0.330229  0.750260  1
  Ta  Ta12  1  0.153503  0.992341  0.375937  1
  Ta  Ta13  1  0.846388  0.007616  0.875919  1
  Ta  Ta14  1  0.507057  0.654068  0.626585  1
  Ta  Ta15  1  0.346632  0.493507  0.873863  1
  Ta  Ta16  1  0.492500  0.346597  0.126034  1
  Nb  Nb17  1  0.653439  0.506000  0.373896  1
  Nb  Nb18  1  0.993808  0.153757  0.624260  1
  Nb  Nb19  1  0.006140  0.846619  0.123932  1
  Si  Si20  1  0.295875  0.043748  0.186002  1
  Si  Si21  1  0.703926  0.956509  0.686056  1
  Si  Si22  1  0.456439  0.795970  0.436134  1
  Si  Si23  1  0.203082  0.543396  0.064023  1
  Si  Si24  1  0.543695  0.203504  0.936019  1
  Si  Si25  1  0.796789  0.456800  0.564167  1
  Si  Si26  1  0.043781  0.297111  0.814241  1
  Si  Si27  1  0.956581  0.703064  0.314108  1
  Si  Si28  1  0.366047  0.294493  0.318790  1
  Si  Si29  1  0.633831  0.705325  0.819289  1
  Si  Si30  1  0.205166  0.866209  0.568806  1
  Si  Si31  1  0.133512  0.795383  0.930527  1
  Si  Si32  1  0.795103  0.134073  0.068888  1
  Si  Si33  1  0.866593  0.203961  0.430788  1
  Si  Si34  1  0.295788  0.366847  0.680911  1
  Si  Si35  1  0.704348  0.633366  0.180713  1
