# generated using pymatgen
data_YHo2Er2CoBi2
_symmetry_space_group_name_H-M   'P 1'
_cell_length_a   7.94728900
_cell_length_b   8.86613200
_cell_length_c   12.38549600
_cell_angle_alpha   90.00000000
_cell_angle_beta   90.00000000
_cell_angle_gamma   90.00000000
_symmetry_Int_Tables_number   1
_chemical_formula_structural   YHo2Er2CoBi2
_chemical_formula_sum   'Y4 Ho8 Er8 Co4 Bi8'
_cell_volume   872.70326843
_cell_formula_units_Z   4
loop_
 _symmetry_equiv_pos_site_id
 _symmetry_equiv_pos_as_xyz
  1  'x, y, z'
loop_
 _atom_site_type_symbol
 _atom_site_label
 _atom_site_symmetry_multiplicity
 _atom_site_fract_x
 _atom_site_fract_y
 _atom_site_fract_z
 _atom_site_occupancy
  Y  Y0  1  0.346784  0.750000  0.700772  1
  Y  Y1  1  0.653216  0.250000  0.299228  1
  Y  Y2  1  0.846784  0.250000  0.799228  1
  Y  Y3  1  0.153216  0.750000  0.200772  1
  Ho  Ho4  1  0.884775  0.750000  0.811501  1
  Ho  Ho5  1  0.115225  0.250000  0.188499  1
  Ho  Ho6  1  0.384775  0.250000  0.688499  1
  Ho  Ho7  1  0.615225  0.750000  0.311501  1
  Ho  Ho8  1  0.052810  0.750000  0.497974  1
  Ho  Ho9  1  0.947190  0.250000  0.502026  1
  Ho  Ho10  1  0.552810  0.250000  0.002026  1
  Ho  Ho11  1  0.447190  0.750000  0.997974  1
  Er  Er12  1  0.674968  0.538047  0.562826  1
  Er  Er13  1  0.325032  0.461953  0.437174  1
  Er  Er14  1  0.174968  0.461953  0.937174  1
  Er  Er15  1  0.325032  0.038047  0.437174  1
  Er  Er16  1  0.825032  0.538047  0.062826  1
  Er  Er17  1  0.674968  0.961953  0.562826  1
  Er  Er18  1  0.825032  0.961953  0.062826  1
  Er  Er19  1  0.174968  0.038047  0.937174  1
  Co  Co20  1  0.065489  0.750000  0.991053  1
  Co  Co21  1  0.934511  0.250000  0.008947  1
  Co  Co22  1  0.565489  0.250000  0.508947  1
  Co  Co23  1  0.434511  0.750000  0.491053  1
  Bi  Bi24  1  0.571407  0.509414  0.827005  1
  Bi  Bi25  1  0.428593  0.490586  0.172995  1
  Bi  Bi26  1  0.071407  0.490586  0.672995  1
  Bi  Bi27  1  0.428593  0.009414  0.172995  1
  Bi  Bi28  1  0.928593  0.509414  0.327005  1
  Bi  Bi29  1  0.571407  0.990586  0.827005  1
  Bi  Bi30  1  0.928593  0.990586  0.327005  1
  Bi  Bi31  1  0.071407  0.009414  0.672995  1
