# generated using pymatgen
data_Ho3ScAl8
_symmetry_space_group_name_H-M   'P 1'
_cell_length_a   9.55674126
_cell_length_b   9.55674112
_cell_length_c   9.55674162
_cell_angle_alpha   33.50858391
_cell_angle_beta   33.50858653
_cell_angle_gamma   33.50858346
_symmetry_Int_Tables_number   1
_chemical_formula_structural   Ho3ScAl8
_chemical_formula_sum   'Ho3 Sc1 Al8'
_cell_volume   236.92627866
_cell_formula_units_Z   1
loop_
 _symmetry_equiv_pos_site_id
 _symmetry_equiv_pos_as_xyz
  1  'x, y, z'
loop_
 _atom_site_type_symbol
 _atom_site_label
 _atom_site_symmetry_multiplicity
 _atom_site_fract_x
 _atom_site_fract_y
 _atom_site_fract_z
 _atom_site_occupancy
  Ho  Ho0  1  0.375111  0.375111  0.375111  1
  Ho  Ho1  1  0.998863  0.998863  0.998863  1
  Ho  Ho2  1  0.500815  0.500815  0.500815  1
  Sc  Sc3  1  0.874888  0.874888  0.874888  1
  Al  Al4  1  0.436913  0.936022  0.436913  1
  Al  Al5  1  0.937956  0.439467  0.937956  1
  Al  Al6  1  0.436913  0.436913  0.936022  1
  Al  Al7  1  0.937956  0.937956  0.439467  1
  Al  Al8  1  0.187708  0.187708  0.187708  1
  Al  Al9  1  0.687387  0.687387  0.687387  1
  Al  Al10  1  0.936022  0.436913  0.436913  1
  Al  Al11  1  0.439467  0.937956  0.937956  1
