# generated using pymatgen
data_Ce2CoCuSi4
_symmetry_space_group_name_H-M   'P 1'
_cell_length_a   8.47379486
_cell_length_b   8.47379524
_cell_length_c   4.06254100
_cell_angle_alpha   90.00000000
_cell_angle_beta   90.00000000
_cell_angle_gamma   151.76523257
_symmetry_Int_Tables_number   1
_chemical_formula_structural   Ce2CoCuSi4
_chemical_formula_sum   'Ce2 Co1 Cu1 Si4'
_cell_volume   138.00450617
_cell_formula_units_Z   1
loop_
 _symmetry_equiv_pos_site_id
 _symmetry_equiv_pos_as_xyz
  1  'x, y, z'
loop_
 _atom_site_type_symbol
 _atom_site_label
 _atom_site_symmetry_multiplicity
 _atom_site_fract_x
 _atom_site_fract_y
 _atom_site_fract_z
 _atom_site_occupancy
  Ce  Ce0  1  0.109030  0.890970  0.250000  1
  Ce  Ce1  1  0.895672  0.104328  0.750000  1
  Co  Co2  1  0.318613  0.681387  0.250000  1
  Cu  Cu3  1  0.676105  0.323895  0.750000  1
  Si  Si4  1  0.755029  0.244971  0.250000  1
  Si  Si5  1  0.253231  0.746769  0.750000  1
  Si  Si6  1  0.535210  0.464790  0.750000  1
  Si  Si7  1  0.457110  0.542890  0.250000  1
