# generated using pymatgen
data_Ba2Sr(LiBi)4
_symmetry_space_group_name_H-M   'P 1'
_cell_length_a   9.51189374
_cell_length_b   9.51189332
_cell_length_c   9.51189430
_cell_angle_alpha   148.49728249
_cell_angle_beta   132.45009592
_cell_angle_gamma   58.15904801
_symmetry_Int_Tables_number   1
_chemical_formula_structural   Ba2Sr(LiBi)4
_chemical_formula_sum   'Ba2 Sr1 Li4 Bi4'
_cell_volume   329.24424972
_cell_formula_units_Z   1
loop_
 _symmetry_equiv_pos_site_id
 _symmetry_equiv_pos_as_xyz
  1  'x, y, z'
loop_
 _atom_site_type_symbol
 _atom_site_label
 _atom_site_symmetry_multiplicity
 _atom_site_fract_x
 _atom_site_fract_y
 _atom_site_fract_z
 _atom_site_occupancy
  Ba  Ba0  1  0.631313  0.131313  0.500000  1
  Ba  Ba1  1  0.368687  0.868687  0.500000  1
  Sr  Sr2  1  0.000000  0.000000  0.000000  1
  Li  Li3  1  0.981453  0.674481  0.306972  1
  Li  Li4  1  0.018547  0.325519  0.693028  1
  Li  Li5  1  0.632491  0.325519  0.306972  1
  Li  Li6  1  0.367509  0.674481  0.693028  1
  Bi  Bi7  1  0.789376  0.789376  0.000000  1
  Bi  Bi8  1  0.210624  0.210624  0.000000  1
  Bi  Bi9  1  0.701700  0.500000  0.201700  1
  Bi  Bi10  1  0.298300  0.500000  0.798300  1
