# generated using pymatgen
data_Ho3Tm2Bi3
_symmetry_space_group_name_H-M   'P 1'
_cell_length_a   8.20961800
_cell_length_b   9.46102000
_cell_length_c   11.97632300
_cell_angle_alpha   90.00000000
_cell_angle_beta   90.00000000
_cell_angle_gamma   90.00000000
_symmetry_Int_Tables_number   1
_chemical_formula_structural   Ho3Tm2Bi3
_chemical_formula_sum   'Ho12 Tm8 Bi12'
_cell_volume   930.21729629
_cell_formula_units_Z   4
loop_
 _symmetry_equiv_pos_site_id
 _symmetry_equiv_pos_as_xyz
  1  'x, y, z'
loop_
 _atom_site_type_symbol
 _atom_site_label
 _atom_site_symmetry_multiplicity
 _atom_site_fract_x
 _atom_site_fract_y
 _atom_site_fract_z
 _atom_site_occupancy
  Ho  Ho0  1  0.353536  0.750000  0.216431  1
  Ho  Ho1  1  0.853536  0.750000  0.283569  1
  Ho  Ho2  1  0.646464  0.250000  0.783569  1
  Ho  Ho3  1  0.146464  0.250000  0.716431  1
  Ho  Ho4  1  0.476933  0.250000  0.489009  1
  Ho  Ho5  1  0.976933  0.250000  0.010991  1
  Ho  Ho6  1  0.523067  0.750000  0.510991  1
  Ho  Ho7  1  0.023067  0.750000  0.989009  1
  Ho  Ho8  1  0.314398  0.250000  0.218040  1
  Ho  Ho9  1  0.814398  0.250000  0.281960  1
  Ho  Ho10  1  0.685602  0.750000  0.781960  1
  Ho  Ho11  1  0.185602  0.750000  0.718040  1
  Tm  Tm12  1  0.691957  0.564751  0.058984  1
  Tm  Tm13  1  0.191957  0.935249  0.441016  1
  Tm  Tm14  1  0.308043  0.064751  0.941016  1
  Tm  Tm15  1  0.808043  0.435249  0.558984  1
  Tm  Tm16  1  0.308043  0.435249  0.941016  1
  Tm  Tm17  1  0.808043  0.064751  0.558984  1
  Tm  Tm18  1  0.691957  0.935249  0.058984  1
  Tm  Tm19  1  0.191957  0.564751  0.441016  1
  Bi  Bi20  1  0.405462  0.750000  0.957480  1
  Bi  Bi21  1  0.905462  0.750000  0.542520  1
  Bi  Bi22  1  0.594538  0.250000  0.042520  1
  Bi  Bi23  1  0.094538  0.250000  0.457480  1
  Bi  Bi24  1  0.566104  0.996157  0.325671  1
  Bi  Bi25  1  0.066104  0.503843  0.174329  1
  Bi  Bi26  1  0.433896  0.496157  0.674329  1
  Bi  Bi27  1  0.933896  0.003843  0.825671  1
  Bi  Bi28  1  0.433896  0.003843  0.674329  1
  Bi  Bi29  1  0.933896  0.496157  0.825671  1
  Bi  Bi30  1  0.566104  0.503843  0.325671  1
  Bi  Bi31  1  0.066104  0.996157  0.174329  1
