# generated using pymatgen
data_Tb3Yb3Al17Si7Os8
_symmetry_space_group_name_H-M   'P 1'
_cell_length_a   8.68521907
_cell_length_b   8.66927505
_cell_length_c   9.57170800
_cell_angle_alpha   90.00000000
_cell_angle_beta   90.00000000
_cell_angle_gamma   120.16785572
_symmetry_Int_Tables_number   1
_chemical_formula_structural   Tb3Yb3Al17Si7Os8
_chemical_formula_sum   'Tb3 Yb3 Al17 Si7 Os8'
_cell_volume   623.08395433
_cell_formula_units_Z   1
loop_
 _symmetry_equiv_pos_site_id
 _symmetry_equiv_pos_as_xyz
  1  'x, y, z'
loop_
 _atom_site_type_symbol
 _atom_site_label
 _atom_site_symmetry_multiplicity
 _atom_site_fract_x
 _atom_site_fract_y
 _atom_site_fract_z
 _atom_site_occupancy
  Tb  Tb0  1  0.192820  0.388030  0.250000  1
  Tb  Tb1  1  0.610919  0.807276  0.250000  1
  Tb  Tb2  1  0.195966  0.805405  0.250000  1
  Yb  Yb3  1  0.806153  0.612508  0.750000  1
  Yb  Yb4  1  0.390085  0.191728  0.750000  1
  Yb  Yb5  1  0.800843  0.192218  0.750000  1
  Al  Al6  1  0.165670  0.332469  0.578776  1
  Al  Al7  1  0.833260  0.668980  0.422281  1
  Al  Al8  1  0.668918  0.834218  0.578085  1
  Al  Al9  1  0.833260  0.668980  0.077719  1
  Al  Al10  1  0.332061  0.166771  0.423759  1
  Al  Al11  1  0.165670  0.332469  0.921224  1
  Al  Al12  1  0.165081  0.833419  0.576949  1
  Al  Al13  1  0.332061  0.166771  0.076241  1
  Al  Al14  1  0.834192  0.165045  0.423608  1
  Al  Al15  1  0.668918  0.834218  0.921915  1
  Al  Al16  1  0.834192  0.165045  0.076392  1
  Al  Al17  1  0.165081  0.833419  0.923051  1
  Al  Al18  1  0.125288  0.565562  0.750000  1
  Al  Al19  1  0.565049  0.434183  0.250000  1
  Al  Al20  1  0.439071  0.565884  0.750000  1
  Al  Al21  1  0.999714  0.998957  0.250000  1
  Al  Al22  1  0.000014  0.001181  0.750000  1
  Si  Si23  1  0.333411  0.664704  0.039488  1
  Si  Si24  1  0.666574  0.335961  0.960647  1
  Si  Si25  1  0.666574  0.335961  0.539353  1
  Si  Si26  1  0.333411  0.664704  0.460512  1
  Si  Si27  1  0.565741  0.125881  0.250000  1
  Si  Si28  1  0.435213  0.871631  0.750000  1
  Si  Si29  1  0.873127  0.433439  0.250000  1
  Os  Os30  1  0.500505  0.000075  0.004130  1
  Os  Os31  1  0.999099  0.499821  0.009535  1
  Os  Os32  1  0.500505  0.000075  0.495870  1
  Os  Os33  1  0.500413  0.500861  0.003083  1
  Os  Os34  1  0.999099  0.499821  0.490465  1
  Os  Os35  1  0.500413  0.500861  0.496917  1
  Os  Os36  1  0.000812  0.000731  0.998991  1
  Os  Os37  1  0.000812  0.000731  0.501009  1
