# generated using pymatgen
data_La12B2Br17
_symmetry_space_group_name_H-M   'P 1'
_cell_length_a   9.54112516
_cell_length_b   11.48687533
_cell_length_c   11.20437296
_cell_angle_alpha   93.46261589
_cell_angle_beta   104.52623328
_cell_angle_gamma   116.35648437
_symmetry_Int_Tables_number   1
_chemical_formula_structural   La12B2Br17
_chemical_formula_sum   'La12 B2 Br17'
_cell_volume   1044.06150697
_cell_formula_units_Z   1
loop_
 _symmetry_equiv_pos_site_id
 _symmetry_equiv_pos_as_xyz
  1  'x, y, z'
loop_
 _atom_site_type_symbol
 _atom_site_label
 _atom_site_symmetry_multiplicity
 _atom_site_fract_x
 _atom_site_fract_y
 _atom_site_fract_z
 _atom_site_occupancy
  La  La0  1  0.064602  0.525283  0.330260  1
  La  La1  1  0.988632  0.810874  0.572201  1
  La  La2  1  0.628110  0.235847  0.280397  1
  La  La3  1  0.011368  0.189126  0.427799  1
  La  La4  1  0.219945  0.661298  0.003887  1
  La  La5  1  0.283107  0.997361  0.910058  1
  La  La6  1  0.371890  0.764153  0.719603  1
  La  La7  1  0.935398  0.474717  0.669740  1
  La  La8  1  0.716893  0.002639  0.089942  1
  La  La9  1  0.157374  0.293622  0.140740  1
  La  La10  1  0.780055  0.338702  0.996113  1
  La  La11  1  0.842626  0.706378  0.859260  1
  B  B12  1  0.102406  0.737430  0.781888  1
  B  B13  1  0.897594  0.262570  0.218112  1
  Br  Br14  1  0.775012  0.526342  0.414240  1
  Br  Br15  1  0.627720  0.415551  0.741688  1
  Br  Br16  1  0.838408  0.897934  0.319348  1
  Br  Br17  1  0.316728  0.213836  0.366286  1
  Br  Br18  1  0.161592  0.102066  0.680652  1
  Br  Br19  1  0.590732  0.059794  0.827563  1
  Br  Br20  1  0.738779  0.168188  0.533149  1
  Br  Br21  1  0.538222  0.689549  0.953762  1
  Br  Br22  1  0.372280  0.584449  0.258312  1
  Br  Br23  1  0.224988  0.473658  0.585760  1
  Br  Br24  1  0.059325  0.362049  0.885850  1
  Br  Br25  1  0.461778  0.310451  0.046238  1
  Br  Br26  1  0.000000  0.000000  0.000000  1
  Br  Br27  1  0.261221  0.831812  0.466851  1
  Br  Br28  1  0.409268  0.940206  0.172437  1
  Br  Br29  1  0.683272  0.786164  0.633714  1
  Br  Br30  1  0.940675  0.637951  0.114150  1
