# generated using pymatgen
data_Cs5PuO6
_symmetry_space_group_name_H-M   'P 1'
_cell_length_a   7.20923193
_cell_length_b   7.20925449
_cell_length_c   6.96820121
_cell_angle_alpha   99.68917172
_cell_angle_beta   99.68930200
_cell_angle_gamma   120.26807588
_symmetry_Int_Tables_number   1
_chemical_formula_structural   Cs5PuO6
_chemical_formula_sum   'Cs5 Pu1 O6'
_cell_volume   294.38231469
_cell_formula_units_Z   1
loop_
 _symmetry_equiv_pos_site_id
 _symmetry_equiv_pos_as_xyz
  1  'x, y, z'
loop_
 _atom_site_type_symbol
 _atom_site_label
 _atom_site_symmetry_multiplicity
 _atom_site_fract_x
 _atom_site_fract_y
 _atom_site_fract_z
 _atom_site_occupancy
  Cs  Cs0  1  0.667696  0.332303  0.000000  1
  Cs  Cs1  1  0.332305  0.667698  0.000000  1
  Cs  Cs2  1  0.839606  0.160397  0.500000  1
  Cs  Cs3  1  0.500000  0.500000  0.499999  1
  Cs  Cs4  1  0.160394  0.839603  0.499998  1
  Pu  Pu5  1  0.000000  0.000000  0.000000  1
  O  O6  1  0.289436  0.061231  0.180749  1
  O  O7  1  0.061231  0.289431  0.180748  1
  O  O8  1  0.830005  0.830005  0.185794  1
  O  O9  1  0.169995  0.169995  0.814206  1
  O  O10  1  0.938769  0.710569  0.819252  1
  O  O11  1  0.710564  0.938769  0.819251  1
