# generated using pymatgen
data_Tm2BeIrSe
_symmetry_space_group_name_H-M   'P 1'
_cell_length_a   3.85228800
_cell_length_b   3.85228653
_cell_length_c   15.06891100
_cell_angle_alpha   90.00000000
_cell_angle_beta   90.00000000
_cell_angle_gamma   120.00002977
_symmetry_Int_Tables_number   1
_chemical_formula_structural   Tm2BeIrSe
_chemical_formula_sum   'Tm4 Be2 Ir2 Se2'
_cell_volume   193.66435763
_cell_formula_units_Z   2
loop_
 _symmetry_equiv_pos_site_id
 _symmetry_equiv_pos_as_xyz
  1  'x, y, z'
loop_
 _atom_site_type_symbol
 _atom_site_label
 _atom_site_symmetry_multiplicity
 _atom_site_fract_x
 _atom_site_fract_y
 _atom_site_fract_z
 _atom_site_occupancy
  Tm  Tm0  1  0.333333  0.666667  0.376181  1
  Tm  Tm1  1  0.666667  0.333333  0.623819  1
  Tm  Tm2  1  0.666667  0.333333  0.876181  1
  Tm  Tm3  1  0.333333  0.666667  0.123819  1
  Be  Be4  1  0.000000  0.000000  0.250000  1
  Be  Be5  1  0.000000  0.000000  0.750000  1
  Ir  Ir6  1  0.333333  0.666667  0.750000  1
  Ir  Ir7  1  0.666667  0.333333  0.250000  1
  Se  Se8  1  0.000000  0.000000  0.500000  1
  Se  Se9  1  0.000000  0.000000  0.000000  1
