# generated using pymatgen
data_Sm8Y3Ho9Sn16
_symmetry_space_group_name_H-M   'P 1'
_cell_length_a   8.05047406
_cell_length_b   8.20067206
_cell_length_c   15.48723600
_cell_angle_alpha   89.99235653
_cell_angle_beta   89.99305374
_cell_angle_gamma   89.95113397
_symmetry_Int_Tables_number   1
_chemical_formula_structural   Sm8Y3Ho9Sn16
_chemical_formula_sum   'Sm8 Y3 Ho9 Sn16'
_cell_volume   1022.45605480
_cell_formula_units_Z   1
loop_
 _symmetry_equiv_pos_site_id
 _symmetry_equiv_pos_as_xyz
  1  'x, y, z'
loop_
 _atom_site_type_symbol
 _atom_site_label
 _atom_site_symmetry_multiplicity
 _atom_site_fract_x
 _atom_site_fract_y
 _atom_site_fract_z
 _atom_site_occupancy
  Sm  Sm0  1  0.517228  0.320784  0.903479  1
  Sm  Sm1  1  0.017062  0.178984  0.596684  1
  Sm  Sm2  1  0.482870  0.678774  0.402903  1
  Sm  Sm3  1  0.982998  0.821055  0.096791  1
  Sm  Sm4  1  0.482474  0.678420  0.097152  1
  Sm  Sm5  1  0.982484  0.821399  0.402604  1
  Sm  Sm6  1  0.517227  0.321304  0.596987  1
  Sm  Sm7  1  0.017465  0.178976  0.903688  1
  Y  Y8  1  0.363584  0.836321  0.878052  1
  Y  Y9  1  0.863835  0.663654  0.622594  1
  Y  Y10  1  0.636383  0.163797  0.376878  1
  Ho  Ho11  1  0.136369  0.336797  0.123108  1
  Ho  Ho12  1  0.636938  0.163183  0.122718  1
  Ho  Ho13  1  0.136993  0.336471  0.376813  1
  Ho  Ho14  1  0.363061  0.836458  0.623116  1
  Ho  Ho15  1  0.863125  0.663361  0.876982  1
  Ho  Ho16  1  0.195857  0.502941  0.750038  1
  Ho  Ho17  1  0.695705  0.996937  0.750326  1
  Ho  Ho18  1  0.804161  0.496900  0.249469  1
  Ho  Ho19  1  0.303922  0.003079  0.249930  1
  Sn  Sn20  1  0.299518  0.040176  0.042479  1
  Sn  Sn21  1  0.800282  0.461520  0.457530  1
  Sn  Sn22  1  0.699401  0.961624  0.542138  1
  Sn  Sn23  1  0.199407  0.538087  0.958391  1
  Sn  Sn24  1  0.702280  0.960628  0.958575  1
  Sn  Sn25  1  0.202199  0.539204  0.541327  1
  Sn  Sn26  1  0.298114  0.039008  0.458522  1
  Sn  Sn27  1  0.799332  0.460424  0.041472  1
  Sn  Sn28  1  0.561512  0.620788  0.750127  1
  Sn  Sn29  1  0.061648  0.879216  0.750177  1
  Sn  Sn30  1  0.438121  0.379175  0.249389  1
  Sn  Sn31  1  0.938599  0.121171  0.249658  1
  Sn  Sn32  1  0.325807  0.145424  0.749908  1
  Sn  Sn33  1  0.825904  0.354235  0.750353  1
  Sn  Sn34  1  0.674118  0.854327  0.249642  1
  Sn  Sn35  1  0.174015  0.645399  0.250001  1
