# generated using pymatgen
data_Sr2GaCuI
_symmetry_space_group_name_H-M   'P 1'
_cell_length_a   4.38254000
_cell_length_b   4.38254276
_cell_length_c   8.99787000
_cell_angle_alpha   90.00000000
_cell_angle_beta   90.00000000
_cell_angle_gamma   120.00000939
_symmetry_Int_Tables_number   1
_chemical_formula_structural   Sr2GaCuI
_chemical_formula_sum   'Sr2 Ga1 Cu1 I1'
_cell_volume   149.66572547
_cell_formula_units_Z   1
loop_
 _symmetry_equiv_pos_site_id
 _symmetry_equiv_pos_as_xyz
  1  'x, y, z'
loop_
 _atom_site_type_symbol
 _atom_site_label
 _atom_site_symmetry_multiplicity
 _atom_site_fract_x
 _atom_site_fract_y
 _atom_site_fract_z
 _atom_site_occupancy
  Sr  Sr0  1  0.000000  0.000000  0.224217  1
  Sr  Sr1  1  0.000000  0.000000  0.775783  1
  Ga  Ga2  1  0.333333  0.666667  0.000000  1
  Cu  Cu3  1  0.666667  0.333333  0.000000  1
  I  I4  1  0.666667  0.333333  0.500000  1
