# generated using pymatgen
data_YbDy15(HoIr3)4
_symmetry_space_group_name_H-M   'P 1'
_cell_length_a   10.86199305
_cell_length_b   10.88851321
_cell_length_c   6.38323942
_cell_angle_alpha   89.91247018
_cell_angle_beta   90.17687546
_cell_angle_gamma   89.86989488
_symmetry_Int_Tables_number   1
_chemical_formula_structural   YbDy15(HoIr3)4
_chemical_formula_sum   'Yb1 Dy15 Ho4 Ir12'
_cell_volume   754.94538804
_cell_formula_units_Z   1
loop_
 _symmetry_equiv_pos_site_id
 _symmetry_equiv_pos_as_xyz
  1  'x, y, z'
loop_
 _atom_site_type_symbol
 _atom_site_label
 _atom_site_symmetry_multiplicity
 _atom_site_fract_x
 _atom_site_fract_y
 _atom_site_fract_z
 _atom_site_occupancy
  Yb  Yb0  1  0.289453  0.088128  0.375898  1
  Dy  Dy1  1  0.291191  0.912112  0.879630  1
  Dy  Dy2  1  0.708570  0.086431  0.878802  1
  Dy  Dy3  1  0.709039  0.912529  0.379067  1
  Dy  Dy4  1  0.588056  0.791959  0.878566  1
  Dy  Dy5  1  0.585756  0.208548  0.378720  1
  Dy  Dy6  1  0.411250  0.792907  0.378926  1
  Dy  Dy7  1  0.412432  0.208319  0.879598  1
  Dy  Dy8  1  0.208858  0.412536  0.622198  1
  Dy  Dy9  1  0.209825  0.587470  0.121132  1
  Dy  Dy10  1  0.790996  0.411602  0.121175  1
  Dy  Dy11  1  0.791252  0.587625  0.620957  1
  Dy  Dy12  1  0.912530  0.708990  0.121574  1
  Dy  Dy13  1  0.911634  0.290481  0.622440  1
  Dy  Dy14  1  0.087806  0.708965  0.621008  1
  Dy  Dy15  1  0.088802  0.290724  0.120944  1
  Ho  Ho16  1  0.002144  0.000299  0.499493  1
  Ho  Ho17  1  0.999189  0.000183  0.999362  1
  Ho  Ho18  1  0.500245  0.500464  0.998943  1
  Ho  Ho19  1  0.499769  0.500685  0.498793  1
  Ir  Ir20  1  0.847772  0.153051  0.250603  1
  Ir  Ir21  1  0.848392  0.847080  0.748994  1
  Ir  Ir22  1  0.151044  0.153972  0.757643  1
  Ir  Ir23  1  0.149944  0.842090  0.246294  1
  Ir  Ir24  1  0.652099  0.346828  0.749689  1
  Ir  Ir25  1  0.652556  0.653187  0.250441  1
  Ir  Ir26  1  0.347958  0.352011  0.247346  1
  Ir  Ir27  1  0.346870  0.653599  0.749130  1
  Ir  Ir28  1  0.501691  0.999395  0.122413  1
  Ir  Ir29  1  0.502572  0.998798  0.624678  1
  Ir  Ir30  1  0.000233  0.499702  0.877932  1
  Ir  Ir31  1  0.000070  0.499333  0.377609  1
