# generated using pymatgen
data_YZn3AgRh
_symmetry_space_group_name_H-M   'P 1'
_cell_length_a   5.22760685
_cell_length_b   5.33374478
_cell_length_c   5.22760700
_cell_angle_alpha   60.65610283
_cell_angle_beta   59.99999272
_cell_angle_gamma   60.65609452
_symmetry_Int_Tables_number   1
_chemical_formula_structural   YZn3AgRh
_chemical_formula_sum   'Y1 Zn3 Ag1 Rh1'
_cell_volume   104.07813008
_cell_formula_units_Z   1
loop_
 _symmetry_equiv_pos_site_id
 _symmetry_equiv_pos_as_xyz
  1  'x, y, z'
loop_
 _atom_site_type_symbol
 _atom_site_label
 _atom_site_symmetry_multiplicity
 _atom_site_fract_x
 _atom_site_fract_y
 _atom_site_fract_z
 _atom_site_occupancy
  Y  Y0  1  0.746709  0.759873  0.746709  1
  Zn  Zn1  1  0.373891  0.371837  0.880381  1
  Zn  Zn2  1  0.880381  0.371837  0.373891  1
  Zn  Zn3  1  0.373891  0.371837  0.373891  1
  Ag  Ag4  1  0.998026  0.005920  0.998026  1
  Rh  Rh5  1  0.377103  0.868693  0.377103  1
