# generated using pymatgen
data_Al11Ga(SnSe10)2
_symmetry_space_group_name_H-M   'P 1'
_cell_length_a   9.80747575
_cell_length_b   9.79378859
_cell_length_c   9.69637000
_cell_angle_alpha   90.30938059
_cell_angle_beta   90.37540829
_cell_angle_gamma   89.86423722
_symmetry_Int_Tables_number   1
_chemical_formula_structural   Al11Ga(SnSe10)2
_chemical_formula_sum   'Al11 Ga1 Sn2 Se20'
_cell_volume   931.32296068
_cell_formula_units_Z   1
loop_
 _symmetry_equiv_pos_site_id
 _symmetry_equiv_pos_as_xyz
  1  'x, y, z'
loop_
 _atom_site_type_symbol
 _atom_site_label
 _atom_site_symmetry_multiplicity
 _atom_site_fract_x
 _atom_site_fract_y
 _atom_site_fract_z
 _atom_site_occupancy
  Al  Al0  1  0.877597  0.566970  0.835271  1
  Al  Al1  1  0.259909  0.647203  0.832650  1
  Al  Al2  1  0.162249  0.347793  0.739361  1
  Al  Al3  1  0.831916  0.261051  0.658720  1
  Al  Al4  1  0.838794  0.882861  0.576561  1
  Al  Al5  1  0.116722  0.162245  0.424149  1
  Al  Al6  1  0.739047  0.167754  0.341307  1
  Al  Al7  1  0.651739  0.837080  0.261191  1
  Al  Al8  1  0.352887  0.738381  0.167337  1
  Al  Al9  1  0.432987  0.123473  0.164170  1
  Al  Al10  1  0.161747  0.423605  0.115480  1
  Ga  Ga11  1  0.575466  0.838563  0.884372  1
  Sn  Sn12  1  0.259756  0.006523  0.754540  1
  Sn  Sn13  1  0.994000  0.739378  0.244627  1
  Se  Se14  1  0.187615  0.813625  0.999980  1
  Se  Se15  1  0.323329  0.422583  0.923142  1
  Se  Se16  1  0.504292  0.075299  0.926380  1
  Se  Se17  1  0.825013  0.818212  0.824245  1
  Se  Se18  1  0.999122  0.192762  0.826534  1
  Se  Se19  1  0.695585  0.441079  0.739774  1
  Se  Se20  1  0.431994  0.753206  0.695151  1
  Se  Se21  1  0.075276  0.574882  0.677360  1
  Se  Se22  1  0.682258  0.074916  0.573758  1
  Se  Se23  1  0.302988  0.246289  0.565270  1
  Se  Se24  1  0.071844  0.928478  0.499838  1
  Se  Se25  1  0.754186  0.696780  0.435504  1
  Se  Se26  1  0.924661  0.318387  0.426246  1
  Se  Se27  1  0.424559  0.924618  0.321327  1
  Se  Se28  1  0.245424  0.565518  0.302973  1
  Se  Se29  1  0.559017  0.304958  0.261154  1
  Se  Se30  1  0.806495  0.000555  0.173570  1
  Se  Se31  1  0.181981  0.177662  0.176760  1
  Se  Se32  1  0.928863  0.496372  0.072617  1
  Se  Se33  1  0.577178  0.674440  0.078681  1
