# generated using pymatgen
data_TmMgFe2P3Rh2
_symmetry_space_group_name_H-M   'P 1'
_cell_length_a   3.80269400
_cell_length_b   10.51403300
_cell_length_c   12.67022000
_cell_angle_alpha   90.00000000
_cell_angle_beta   90.00000000
_cell_angle_gamma   90.00000000
_symmetry_Int_Tables_number   1
_chemical_formula_structural   TmMgFe2P3Rh2
_chemical_formula_sum   'Tm4 Mg4 Fe8 P12 Rh8'
_cell_volume   506.57630406
_cell_formula_units_Z   4
loop_
 _symmetry_equiv_pos_site_id
 _symmetry_equiv_pos_as_xyz
  1  'x, y, z'
loop_
 _atom_site_type_symbol
 _atom_site_label
 _atom_site_symmetry_multiplicity
 _atom_site_fract_x
 _atom_site_fract_y
 _atom_site_fract_z
 _atom_site_occupancy
  Tm  Tm0  1  0.250000  0.580684  0.714363  1
  Tm  Tm1  1  0.250000  0.919316  0.214363  1
  Tm  Tm2  1  0.750000  0.419316  0.285637  1
  Tm  Tm3  1  0.750000  0.080684  0.785637  1
  Mg  Mg4  1  0.250000  0.709389  0.991187  1
  Mg  Mg5  1  0.250000  0.790611  0.491187  1
  Mg  Mg6  1  0.750000  0.290611  0.008813  1
  Mg  Mg7  1  0.750000  0.209389  0.508813  1
  Fe  Fe8  1  0.250000  0.877735  0.696690  1
  Fe  Fe9  1  0.250000  0.622265  0.196690  1
  Fe  Fe10  1  0.750000  0.122265  0.303310  1
  Fe  Fe11  1  0.750000  0.377735  0.803310  1
  Fe  Fe12  1  0.250000  0.461334  0.934084  1
  Fe  Fe13  1  0.250000  0.038666  0.434084  1
  Fe  Fe14  1  0.750000  0.538666  0.065916  1
  Fe  Fe15  1  0.750000  0.961334  0.565916  1
  P  P16  1  0.250000  0.439253  0.110602  1
  P  P17  1  0.250000  0.060747  0.610602  1
  P  P18  1  0.750000  0.560747  0.889398  1
  P  P19  1  0.750000  0.939253  0.389398  1
  P  P20  1  0.250000  0.274447  0.853251  1
  P  P21  1  0.250000  0.225553  0.353251  1
  P  P22  1  0.750000  0.725553  0.146749  1
  P  P23  1  0.750000  0.774447  0.646749  1
  P  P24  1  0.250000  0.591981  0.372470  1
  P  P25  1  0.250000  0.908019  0.872470  1
  P  P26  1  0.750000  0.408019  0.627530  1
  P  P27  1  0.750000  0.091981  0.127530  1
  Rh  Rh28  1  0.250000  0.403284  0.467448  1
  Rh  Rh29  1  0.250000  0.096716  0.967448  1
  Rh  Rh30  1  0.750000  0.596716  0.532552  1
  Rh  Rh31  1  0.750000  0.903284  0.032552  1
  Rh  Rh32  1  0.250000  0.221651  0.168651  1
  Rh  Rh33  1  0.250000  0.278349  0.668651  1
  Rh  Rh34  1  0.750000  0.778349  0.831349  1
  Rh  Rh35  1  0.750000  0.721651  0.331349  1
