# generated using pymatgen
data_Dy3Y5CdNi2Ag
_symmetry_space_group_name_H-M   'P 1'
_cell_length_a   9.51945930
_cell_length_b   9.53290266
_cell_length_c   9.52386047
_cell_angle_alpha   59.93803995
_cell_angle_beta   60.07813483
_cell_angle_gamma   60.03691651
_symmetry_Int_Tables_number   1
_chemical_formula_structural   Dy3Y5CdNi2Ag
_chemical_formula_sum   'Dy6 Y10 Cd2 Ni4 Ag2'
_cell_volume   611.37587410
_cell_formula_units_Z   2
loop_
 _symmetry_equiv_pos_site_id
 _symmetry_equiv_pos_as_xyz
  1  'x, y, z'
loop_
 _atom_site_type_symbol
 _atom_site_label
 _atom_site_symmetry_multiplicity
 _atom_site_fract_x
 _atom_site_fract_y
 _atom_site_fract_z
 _atom_site_occupancy
  Dy  Dy0  1  0.598573  0.598479  0.597944  1
  Dy  Dy1  1  0.598479  0.598573  0.205004  1
  Dy  Dy2  1  0.600729  0.200414  0.599408  1
  Dy  Dy3  1  0.200414  0.600729  0.599450  1
  Dy  Dy4  1  0.061341  0.439383  0.439689  1
  Dy  Dy5  1  0.439383  0.061341  0.059586  1
  Y  Y6  1  0.439156  0.061163  0.440097  1
  Y  Y7  1  0.061163  0.439156  0.059584  1
  Y  Y8  1  0.440180  0.440180  0.059820  1
  Y  Y9  1  0.061065  0.061065  0.438935  1
  Y  Y10  1  0.183572  0.813223  0.814375  1
  Y  Y11  1  0.813223  0.183572  0.188830  1
  Y  Y12  1  0.812915  0.183810  0.814220  1
  Y  Y13  1  0.183810  0.812915  0.189055  1
  Y  Y14  1  0.812680  0.812680  0.187320  1
  Y  Y15  1  0.186454  0.186454  0.813546  1
  Cd  Cd16  1  0.831497  0.509375  0.829716  1
  Cd  Cd17  1  0.509375  0.831497  0.829411  1
  Ni  Ni18  1  0.392525  0.394222  0.394654  1
  Ni  Ni19  1  0.394222  0.392525  0.818600  1
  Ni  Ni20  1  0.393144  0.820131  0.392474  1
  Ni  Ni21  1  0.820131  0.393144  0.394251  1
  Ag  Ag22  1  0.832950  0.833018  0.831351  1
  Ag  Ag23  1  0.833018  0.832950  0.502680  1
