# generated using pymatgen
data_Ho2TmZnRu2
_symmetry_space_group_name_H-M   'P 1'
_cell_length_a   3.38643100
_cell_length_b   3.38643100
_cell_length_c   10.68184700
_cell_angle_alpha   90.00000000
_cell_angle_beta   90.00000000
_cell_angle_gamma   90.00000000
_symmetry_Int_Tables_number   1
_chemical_formula_structural   Ho2TmZnRu2
_chemical_formula_sum   'Ho2 Tm1 Zn1 Ru2'
_cell_volume   122.49851256
_cell_formula_units_Z   1
loop_
 _symmetry_equiv_pos_site_id
 _symmetry_equiv_pos_as_xyz
  1  'x, y, z'
loop_
 _atom_site_type_symbol
 _atom_site_label
 _atom_site_symmetry_multiplicity
 _atom_site_fract_x
 _atom_site_fract_y
 _atom_site_fract_z
 _atom_site_occupancy
  Ho  Ho0  1  0.499999  0.499999  0.311548  1
  Ho  Ho1  1  0.499999  0.499999  0.688453  1
  Tm  Tm2  1  0.499999  0.499999  0.000000  1
  Zn  Zn3  1  0.000000  0.000000  0.500000  1
  Ru  Ru4  1  0.000000  0.000000  0.161375  1
  Ru  Ru5  1  0.000000  0.000000  0.838625  1
