# generated using pymatgen
data_Ca8As5Cl
_symmetry_space_group_name_H-M   'P 1'
_cell_length_a   7.78922616
_cell_length_b   7.78922569
_cell_length_c   7.78922677
_cell_angle_alpha   109.65085438
_cell_angle_beta   109.65083895
_cell_angle_gamma   109.11255649
_symmetry_Int_Tables_number   1
_chemical_formula_structural   Ca8As5Cl
_chemical_formula_sum   'Ca8 As5 Cl1'
_cell_volume   363.78797403
_cell_formula_units_Z   1
loop_
 _symmetry_equiv_pos_site_id
 _symmetry_equiv_pos_as_xyz
  1  'x, y, z'
loop_
 _atom_site_type_symbol
 _atom_site_label
 _atom_site_symmetry_multiplicity
 _atom_site_fract_x
 _atom_site_fract_y
 _atom_site_fract_z
 _atom_site_occupancy
  Ca  Ca0  1  0.737073  0.358086  0.238659  1
  Ca  Ca1  1  0.980591  0.736968  0.103310  1
  Ca  Ca2  1  0.633660  0.877281  0.896690  1
  Ca  Ca3  1  0.119426  0.498414  0.761341  1
  Ca  Ca4  1  0.641914  0.880574  0.378988  1
  Ca  Ca5  1  0.501586  0.262927  0.621012  1
  Ca  Ca6  1  0.263032  0.366340  0.243621  1
  Ca  Ca7  1  0.122719  0.019409  0.756379  1
  As  As8  1  0.746918  0.633149  0.617519  1
  As  As9  1  0.366851  0.984369  0.113769  1
  As  As10  1  0.015631  0.129400  0.382481  1
  As  As11  1  0.500000  0.500000  0.000000  1
  As  As12  1  0.870600  0.253082  0.886231  1
  Cl  Cl13  1  0.250000  0.750000  0.500000  1
