# generated using pymatgen
data_Nd7Au10
_symmetry_space_group_name_H-M   'P 1'
_cell_length_a   9.01282900
_cell_length_b   9.01282852
_cell_length_c   10.72164100
_cell_angle_alpha   90.00000000
_cell_angle_beta   90.00000000
_cell_angle_gamma   107.25960060
_symmetry_Int_Tables_number   1
_chemical_formula_structural   Nd7Au10
_chemical_formula_sum   'Nd14 Au20'
_cell_volume   831.71271262
_cell_formula_units_Z   2
loop_
 _symmetry_equiv_pos_site_id
 _symmetry_equiv_pos_as_xyz
  1  'x, y, z'
loop_
 _atom_site_type_symbol
 _atom_site_label
 _atom_site_symmetry_multiplicity
 _atom_site_fract_x
 _atom_site_fract_y
 _atom_site_fract_z
 _atom_site_occupancy
  Nd  Nd0  1  0.691296  0.308704  0.000000  1
  Nd  Nd1  1  0.308704  0.691296  0.000000  1
  Nd  Nd2  1  0.808704  0.191296  0.500000  1
  Nd  Nd3  1  0.191296  0.808704  0.500000  1
  Nd  Nd4  1  0.000000  0.000000  0.000000  1
  Nd  Nd5  1  0.500000  0.500000  0.500000  1
  Nd  Nd6  1  0.002777  0.502777  0.250000  1
  Nd  Nd7  1  0.997223  0.497223  0.750000  1
  Nd  Nd8  1  0.497223  0.997223  0.750000  1
  Nd  Nd9  1  0.502777  0.002777  0.250000  1
  Nd  Nd10  1  0.313827  0.313827  0.189141  1
  Nd  Nd11  1  0.686173  0.686173  0.810859  1
  Nd  Nd12  1  0.186173  0.186173  0.689141  1
  Nd  Nd13  1  0.813827  0.813827  0.310859  1
  Au  Au14  1  0.861058  0.150877  0.209523  1
  Au  Au15  1  0.138942  0.849123  0.790477  1
  Au  Au16  1  0.638942  0.349123  0.709523  1
  Au  Au17  1  0.650877  0.361058  0.290477  1
  Au  Au18  1  0.361058  0.650877  0.290477  1
  Au  Au19  1  0.349123  0.638942  0.709523  1
  Au  Au20  1  0.849123  0.138942  0.790477  1
  Au  Au21  1  0.150877  0.861058  0.209523  1
  Au  Au22  1  0.938977  0.644691  0.002557  1
  Au  Au23  1  0.061023  0.355309  0.997443  1
  Au  Au24  1  0.561023  0.855309  0.502557  1
  Au  Au25  1  0.144691  0.438977  0.497443  1
  Au  Au26  1  0.438977  0.144691  0.497443  1
  Au  Au27  1  0.855309  0.561023  0.502557  1
  Au  Au28  1  0.355309  0.061023  0.997443  1
  Au  Au29  1  0.644691  0.938977  0.002557  1
  Au  Au30  1  0.103307  0.103307  0.399440  1
  Au  Au31  1  0.896693  0.896693  0.600560  1
  Au  Au32  1  0.396693  0.396693  0.899440  1
  Au  Au33  1  0.603307  0.603307  0.100560  1
