# generated using pymatgen
data_DyY(B4Mo)2
_symmetry_space_group_name_H-M   'P 1'
_cell_length_a   3.62802000
_cell_length_b   6.03913700
_cell_length_c   11.66426700
_cell_angle_alpha   89.99994207
_cell_angle_beta   90.00000000
_cell_angle_gamma   90.00000000
_symmetry_Int_Tables_number   1
_chemical_formula_structural   DyY(B4Mo)2
_chemical_formula_sum   'Dy2 Y2 B16 Mo4'
_cell_volume   255.56537093
_cell_formula_units_Z   2
loop_
 _symmetry_equiv_pos_site_id
 _symmetry_equiv_pos_as_xyz
  1  'x, y, z'
loop_
 _atom_site_type_symbol
 _atom_site_label
 _atom_site_symmetry_multiplicity
 _atom_site_fract_x
 _atom_site_fract_y
 _atom_site_fract_z
 _atom_site_occupancy
  Dy  Dy0  1  0.000000  0.627089  0.350158  1
  Dy  Dy1  1  0.000000  0.372911  0.649842  1
  Y  Y2  1  0.000000  0.127061  0.149845  1
  Y  Y3  1  0.000000  0.872939  0.850155  1
  B  B4  1  0.500000  0.476720  0.193561  1
  B  B5  1  0.500000  0.523280  0.806439  1
  B  B6  1  0.500000  0.976515  0.306502  1
  B  B7  1  0.500000  0.023485  0.693498  1
  B  B8  1  0.500000  0.287307  0.313814  1
  B  B9  1  0.500000  0.712693  0.686186  1
  B  B10  1  0.500000  0.787116  0.186266  1
  B  B11  1  0.500000  0.212884  0.813734  1
  B  B12  1  0.500000  0.366772  0.468088  1
  B  B13  1  0.500000  0.633228  0.531912  1
  B  B14  1  0.500000  0.866727  0.031918  1
  B  B15  1  0.500000  0.133273  0.968082  1
  B  B16  1  0.500000  0.386090  0.047471  1
  B  B17  1  0.500000  0.613910  0.952529  1
  B  B18  1  0.500000  0.885951  0.452489  1
  B  B19  1  0.500000  0.114049  0.547511  1
  Mo  Mo20  1  0.000000  0.129856  0.416472  1
  Mo  Mo21  1  0.000000  0.870144  0.583528  1
  Mo  Mo22  1  0.000000  0.629764  0.083569  1
  Mo  Mo23  1  0.000000  0.370236  0.916431  1
