# generated using pymatgen
data_Lu6Al24Fe3Os5
_symmetry_space_group_name_H-M   'P 1'
_cell_length_a   8.75994600
_cell_length_b   8.73625894
_cell_length_c   9.45663900
_cell_angle_alpha   90.15410920
_cell_angle_beta   90.00000000
_cell_angle_gamma   120.08972376
_symmetry_Int_Tables_number   1
_chemical_formula_structural   Lu6Al24Fe3Os5
_chemical_formula_sum   'Lu6 Al24 Fe3 Os5'
_cell_volume   626.17958980
_cell_formula_units_Z   1
loop_
 _symmetry_equiv_pos_site_id
 _symmetry_equiv_pos_as_xyz
  1  'x, y, z'
loop_
 _atom_site_type_symbol
 _atom_site_label
 _atom_site_symmetry_multiplicity
 _atom_site_fract_x
 _atom_site_fract_y
 _atom_site_fract_z
 _atom_site_occupancy
  Lu  Lu0  1  0.195250  0.390500  0.247849  1
  Lu  Lu1  1  0.804750  0.609500  0.752151  1
  Lu  Lu2  1  0.610839  0.803219  0.250304  1
  Lu  Lu3  1  0.389161  0.196781  0.749696  1
  Lu  Lu4  1  0.192379  0.803219  0.250304  1
  Lu  Lu5  1  0.807621  0.196781  0.749696  1
  Al  Al6  1  0.337189  0.674380  0.015153  1
  Al  Al7  1  0.662811  0.325620  0.984847  1
  Al  Al8  1  0.666580  0.333160  0.514713  1
  Al  Al9  1  0.333420  0.666840  0.485287  1
  Al  Al10  1  0.159147  0.318294  0.575351  1
  Al  Al11  1  0.840853  0.681706  0.424649  1
  Al  Al12  1  0.681808  0.841643  0.576550  1
  Al  Al13  1  0.840226  0.680451  0.075608  1
  Al  Al14  1  0.318192  0.158357  0.423450  1
  Al  Al15  1  0.159774  0.319549  0.924392  1
  Al  Al16  1  0.159835  0.841643  0.576550  1
  Al  Al17  1  0.319297  0.156711  0.075397  1
  Al  Al18  1  0.840165  0.158357  0.423450  1
  Al  Al19  1  0.680703  0.843289  0.924603  1
  Al  Al20  1  0.837414  0.156711  0.075397  1
  Al  Al21  1  0.162586  0.843289  0.924603  1
  Al  Al22  1  0.557915  0.115831  0.244423  1
  Al  Al23  1  0.442085  0.884169  0.755577  1
  Al  Al24  1  0.876631  0.437341  0.249669  1
  Al  Al25  1  0.123369  0.562659  0.750331  1
  Al  Al26  1  0.560710  0.437341  0.249669  1
  Al  Al27  1  0.439290  0.562659  0.750331  1
  Al  Al28  1  0.999900  0.999798  0.250055  1
  Al  Al29  1  0.000100  0.000202  0.749945  1
  Fe  Fe30  1  0.500000  0.000000  0.000000  1
  Fe  Fe31  1  0.000000  0.000000  0.000000  1
  Fe  Fe32  1  0.000000  0.000000  0.500000  1
  Os  Os33  1  0.000000  0.500000  0.000000  1
  Os  Os34  1  0.500000  0.000000  0.500000  1
  Os  Os35  1  0.500000  0.500000  0.000000  1
  Os  Os36  1  0.000000  0.500000  0.500000  1
  Os  Os37  1  0.500000  0.500000  0.500000  1
