# generated using pymatgen
data_Tb5Gd7Co5Sn
_symmetry_space_group_name_H-M   'P 1'
_cell_length_a   8.35649046
_cell_length_b   8.35925860
_cell_length_c   8.35648900
_cell_angle_alpha   107.31233044
_cell_angle_beta   109.63365885
_cell_angle_gamma   111.48113313
_symmetry_Int_Tables_number   1
_chemical_formula_structural   Tb5Gd7Co5Sn
_chemical_formula_sum   'Tb5 Gd7 Co5 Sn1'
_cell_volume   448.83751965
_cell_formula_units_Z   1
loop_
 _symmetry_equiv_pos_site_id
 _symmetry_equiv_pos_as_xyz
  1  'x, y, z'
loop_
 _atom_site_type_symbol
 _atom_site_label
 _atom_site_symmetry_multiplicity
 _atom_site_fract_x
 _atom_site_fract_y
 _atom_site_fract_z
 _atom_site_occupancy
  Tb  Tb0  1  0.475878  0.294142  0.182278  1
  Tb  Tb1  1  0.111864  0.294142  0.818263  1
  Tb  Tb2  1  0.888602  0.706345  0.182554  1
  Tb  Tb3  1  0.523791  0.706345  0.817743  1
  Tb  Tb4  1  0.308502  0.628962  0.320461  1
  Gd  Gd5  1  0.308190  0.988190  0.679999  1
  Gd  Gd6  1  0.691513  0.371434  0.679920  1
  Gd  Gd7  1  0.691075  0.011123  0.320050  1
  Gd  Gd8  1  0.190541  0.207580  0.398031  1
  Gd  Gd9  1  0.808838  0.792412  0.601640  1
  Gd  Gd10  1  0.190773  0.792412  0.983573  1
  Gd  Gd11  1  0.809549  0.207580  0.017040  1
  Co  Co12  1  0.500581  0.613513  0.112932  1
  Co  Co13  1  0.499681  0.385728  0.886047  1
  Co  Co14  1  0.366530  0.000166  0.366212  1
  Co  Co15  1  0.633955  0.000166  0.633637  1
  Co  Co16  1  0.999924  0.999686  0.999761  1
  Sn  Sn17  1  0.000213  0.500074  0.499861  1
