# generated using pymatgen
data_Sc6Zn21Cu2Si
_symmetry_space_group_name_H-M   'P 1'
_cell_length_a   8.74747003
_cell_length_b   8.77938200
_cell_length_c   8.74747000
_cell_angle_alpha   59.87924851
_cell_angle_beta   59.99069686
_cell_angle_gamma   59.87923601
_symmetry_Int_Tables_number   1
_chemical_formula_structural   Sc6Zn21Cu2Si
_chemical_formula_sum   'Sc6 Zn21 Cu2 Si1'
_cell_volume   474.12005707
_cell_formula_units_Z   1
loop_
 _symmetry_equiv_pos_site_id
 _symmetry_equiv_pos_as_xyz
  1  'x, y, z'
loop_
 _atom_site_type_symbol
 _atom_site_label
 _atom_site_symmetry_multiplicity
 _atom_site_fract_x
 _atom_site_fract_y
 _atom_site_fract_z
 _atom_site_occupancy
  Sc  Sc0  1  0.713122  0.288043  0.286878  1
  Sc  Sc1  1  0.286878  0.711957  0.713122  1
  Sc  Sc2  1  0.285579  0.714420  0.285581  1
  Sc  Sc3  1  0.714421  0.285580  0.714419  1
  Sc  Sc4  1  0.286878  0.288043  0.713122  1
  Sc  Sc5  1  0.713122  0.711957  0.286878  1
  Zn  Zn6  1  0.121131  0.120904  0.121131  1
  Zn  Zn7  1  0.878869  0.879096  0.878869  1
  Zn  Zn8  1  0.128341  0.118085  0.635491  1
  Zn  Zn9  1  0.121131  0.636835  0.121131  1
  Zn  Zn10  1  0.871659  0.881915  0.364509  1
  Zn  Zn11  1  0.878869  0.363165  0.878869  1
  Zn  Zn12  1  0.635491  0.118085  0.128341  1
  Zn  Zn13  1  0.364509  0.881915  0.871659  1
  Zn  Zn14  1  0.500000  0.000000  0.000000  1
  Zn  Zn15  1  0.000000  0.500000  0.500000  1
  Zn  Zn16  1  0.000000  0.500000  0.000000  1
  Zn  Zn17  1  0.000000  0.000000  0.500000  1
  Zn  Zn18  1  0.500000  0.500000  0.000000  1
  Zn  Zn19  1  0.339263  0.332177  0.339263  1
  Zn  Zn20  1  0.660737  0.667823  0.660737  1
  Zn  Zn21  1  0.337690  0.336191  0.989930  1
  Zn  Zn22  1  0.339263  0.989298  0.339263  1
  Zn  Zn23  1  0.662310  0.663809  0.010070  1
  Zn  Zn24  1  0.660737  0.010702  0.660737  1
  Zn  Zn25  1  0.989930  0.336191  0.337689  1
  Zn  Zn26  1  0.010070  0.663809  0.662311  1
  Cu  Cu27  1  0.500000  0.000000  0.500000  1
  Cu  Cu28  1  0.000000  0.000000  0.000000  1
  Si  Si29  1  0.500000  0.500000  0.500000  1
