# generated using pymatgen
data_La15PrMgHg3Rh4
_symmetry_space_group_name_H-M   'P 1'
_cell_length_a   10.07210173
_cell_length_b   10.14136381
_cell_length_c   10.14336676
_cell_angle_alpha   59.88821481
_cell_angle_beta   59.81193577
_cell_angle_gamma   59.78261554
_symmetry_Int_Tables_number   1
_chemical_formula_structural   La15PrMgHg3Rh4
_chemical_formula_sum   'La15 Pr1 Mg1 Hg3 Rh4'
_cell_volume   729.75988340
_cell_formula_units_Z   1
loop_
 _symmetry_equiv_pos_site_id
 _symmetry_equiv_pos_as_xyz
  1  'x, y, z'
loop_
 _atom_site_type_symbol
 _atom_site_label
 _atom_site_symmetry_multiplicity
 _atom_site_fract_x
 _atom_site_fract_y
 _atom_site_fract_z
 _atom_site_occupancy
  La  La0  1  0.347820  0.346795  0.346954  1
  La  La1  1  0.349505  0.348116  0.954975  1
  La  La2  1  0.348777  0.954958  0.348653  1
  La  La3  1  0.946789  0.351142  0.351519  1
  La  La4  1  0.808290  0.191824  0.192583  1
  La  La5  1  0.186595  0.810166  0.809439  1
  La  La6  1  0.187617  0.811590  0.189437  1
  La  La7  1  0.806124  0.192207  0.806319  1
  La  La8  1  0.187707  0.188719  0.811743  1
  La  La9  1  0.806230  0.806778  0.192602  1
  La  La10  1  0.939546  0.562621  0.562429  1
  La  La11  1  0.559922  0.939889  0.938728  1
  La  La12  1  0.560473  0.939958  0.561992  1
  La  La13  1  0.939112  0.560961  0.936885  1
  La  La14  1  0.560139  0.561789  0.940233  1
  Pr  Pr15  1  0.938785  0.937306  0.560782  1
  Mg  Mg16  1  0.285588  0.571397  0.570696  1
  Hg  Hg17  1  0.580182  0.586291  0.586208  1
  Hg  Hg18  1  0.580593  0.586699  0.246922  1
  Hg  Hg19  1  0.580987  0.246505  0.586726  1
  Rh  Rh20  1  0.140945  0.142371  0.142203  1
  Rh  Rh21  1  0.141450  0.142785  0.576632  1
  Rh  Rh22  1  0.141310  0.576716  0.142852  1
  Rh  Rh23  1  0.575515  0.142417  0.142486  1
