# generated using pymatgen
data_Li4YPu3Si8
_symmetry_space_group_name_H-M   'P 1'
_cell_length_a   3.79379400
_cell_length_b   7.69384749
_cell_length_c   10.23851435
_cell_angle_alpha   90.00821326
_cell_angle_beta   90.00000000
_cell_angle_gamma   90.00000000
_symmetry_Int_Tables_number   1
_chemical_formula_structural   Li4YPu3Si8
_chemical_formula_sum   'Li4 Y1 Pu3 Si8'
_cell_volume   298.85068614
_cell_formula_units_Z   1
loop_
 _symmetry_equiv_pos_site_id
 _symmetry_equiv_pos_as_xyz
  1  'x, y, z'
loop_
 _atom_site_type_symbol
 _atom_site_label
 _atom_site_symmetry_multiplicity
 _atom_site_fract_x
 _atom_site_fract_y
 _atom_site_fract_z
 _atom_site_occupancy
  Li  Li0  1  0.250000  0.487638  0.393695  1
  Li  Li1  1  0.250000  0.990452  0.105244  1
  Li  Li2  1  0.750000  0.511414  0.604597  1
  Li  Li3  1  0.750000  0.010922  0.894827  1
  Y  Y4  1  0.750000  0.365746  0.135659  1
  Pu  Pu5  1  0.250000  0.135018  0.636239  1
  Pu  Pu6  1  0.250000  0.636871  0.863744  1
  Pu  Pu7  1  0.750000  0.862041  0.364503  1
  Si  Si8  1  0.250000  0.237731  0.931700  1
  Si  Si9  1  0.250000  0.738654  0.567423  1
  Si  Si10  1  0.750000  0.759353  0.066382  1
  Si  Si11  1  0.750000  0.261234  0.433456  1
  Si  Si12  1  0.250000  0.155842  0.319389  1
  Si  Si13  1  0.250000  0.661302  0.183288  1
  Si  Si14  1  0.750000  0.842505  0.681703  1
  Si  Si15  1  0.750000  0.343277  0.818154  1
