# generated using pymatgen
data_Rb4Na2HoInSb4
_symmetry_space_group_name_H-M   'P 1'
_cell_length_a   10.01374458
_cell_length_b   10.01397043
_cell_length_c   10.01385282
_cell_angle_alpha   136.36671845
_cell_angle_beta   62.45950114
_cell_angle_gamma   137.61264102
_symmetry_Int_Tables_number   1
_chemical_formula_structural   Rb4Na2HoInSb4
_chemical_formula_sum   'Rb4 Na2 Ho1 In1 Sb4'
_cell_volume   461.45819864
_cell_formula_units_Z   1
loop_
 _symmetry_equiv_pos_site_id
 _symmetry_equiv_pos_as_xyz
  1  'x, y, z'
loop_
 _atom_site_type_symbol
 _atom_site_label
 _atom_site_symmetry_multiplicity
 _atom_site_fract_x
 _atom_site_fract_y
 _atom_site_fract_z
 _atom_site_occupancy
  Rb  Rb0  1  0.831668  0.240272  0.061967  1
  Rb  Rb1  1  0.668379  0.730350  0.408630  1
  Rb  Rb2  1  0.321695  0.259712  0.591368  1
  Rb  Rb3  1  0.178275  0.769650  0.938039  1
  Na  Na4  1  0.250000  0.250006  0.000005  1
  Na  Na5  1  0.749996  0.750003  0.000007  1
  Ho  Ho6  1  0.749986  0.249976  0.499958  1
  In  In7  1  0.250000  0.750008  0.500006  1
  Sb  Sb8  1  0.395599  0.772603  0.177024  1
  Sb  Sb9  1  0.104402  0.281433  0.377009  1
  Sb  Sb10  1  0.904424  0.727407  0.623002  1
  Sb  Sb11  1  0.595574  0.218583  0.822990  1
