# generated using pymatgen
data_Np4Sc4Re3B24W
_symmetry_space_group_name_H-M   'P 1'
_cell_length_a   3.58649400
_cell_length_b   9.00384400
_cell_length_c   11.35856700
_cell_angle_alpha   90.00033828
_cell_angle_beta   90.00000000
_cell_angle_gamma   90.00000000
_symmetry_Int_Tables_number   1
_chemical_formula_structural   Np4Sc4Re3B24W
_chemical_formula_sum   'Np4 Sc4 Re3 B24 W1'
_cell_volume   366.79348623
_cell_formula_units_Z   1
loop_
 _symmetry_equiv_pos_site_id
 _symmetry_equiv_pos_as_xyz
  1  'x, y, z'
loop_
 _atom_site_type_symbol
 _atom_site_label
 _atom_site_symmetry_multiplicity
 _atom_site_fract_x
 _atom_site_fract_y
 _atom_site_fract_z
 _atom_site_occupancy
  Np  Np0  1  0.000000  0.320660  0.414522  1
  Np  Np1  1  0.000000  0.678969  0.585857  1
  Np  Np2  1  0.000000  0.821066  0.085460  1
  Np  Np3  1  0.000000  0.178459  0.914816  1
  Sc  Sc4  1  0.000000  0.946401  0.374140  1
  Sc  Sc5  1  0.000000  0.054973  0.626484  1
  Sc  Sc6  1  0.000000  0.445029  0.125343  1
  Sc  Sc7  1  0.000000  0.554740  0.873434  1
  Re  Re8  1  0.000000  0.360162  0.680196  1
  Re  Re9  1  0.000000  0.139485  0.179079  1
  Re  Re10  1  0.000000  0.860638  0.820262  1
  B  B11  1  0.500000  0.551716  0.435624  1
  B  B12  1  0.500000  0.446370  0.567155  1
  B  B13  1  0.500000  0.053180  0.066171  1
  B  B14  1  0.500000  0.946627  0.933578  1
  B  B15  1  0.500000  0.754841  0.421963  1
  B  B16  1  0.500000  0.246923  0.580030  1
  B  B17  1  0.500000  0.253179  0.079636  1
  B  B18  1  0.500000  0.746801  0.919917  1
  B  B19  1  0.500000  0.797210  0.263645  1
  B  B20  1  0.500000  0.204866  0.735286  1
  B  B21  1  0.500000  0.294149  0.234852  1
  B  B22  1  0.500000  0.705079  0.764883  1
  B  B23  1  0.500000  0.630766  0.180720  1
  B  B24  1  0.500000  0.369163  0.817624  1
  B  B25  1  0.500000  0.130440  0.317233  1
  B  B26  1  0.500000  0.869631  0.682732  1
  B  B27  1  0.500000  0.981095  0.213543  1
  B  B28  1  0.500000  0.019492  0.786102  1
  B  B29  1  0.500000  0.477762  0.285387  1
  B  B30  1  0.500000  0.519412  0.714274  1
  B  B31  1  0.500000  0.600389  0.026567  1
  B  B32  1  0.500000  0.399640  0.972175  1
  B  B33  1  0.500000  0.100492  0.472625  1
  B  B34  1  0.500000  0.900638  0.528323  1
  W  W35  1  0.000000  0.639558  0.320361  1
