# generated using pymatgen
data_Dy2Re7Si4Mo
_symmetry_space_group_name_H-M   'P 1'
_cell_length_a   7.14401502
_cell_length_b   7.68680189
_cell_length_c   4.17435200
_cell_angle_alpha   90.00000000
_cell_angle_beta   90.00000000
_cell_angle_gamma   90.10924126
_symmetry_Int_Tables_number   1
_chemical_formula_structural   Dy2Re7Si4Mo
_chemical_formula_sum   'Dy2 Re7 Si4 Mo1'
_cell_volume   229.23257128
_cell_formula_units_Z   1
loop_
 _symmetry_equiv_pos_site_id
 _symmetry_equiv_pos_as_xyz
  1  'x, y, z'
loop_
 _atom_site_type_symbol
 _atom_site_label
 _atom_site_symmetry_multiplicity
 _atom_site_fract_x
 _atom_site_fract_y
 _atom_site_fract_z
 _atom_site_occupancy
  Dy  Dy0  1  0.500755  0.498841  0.000000  1
  Dy  Dy1  1  0.999118  0.999939  0.500000  1
  Re  Re2  1  0.155695  0.604956  0.500000  1
  Re  Re3  1  0.083379  0.340476  0.000000  1
  Re  Re4  1  0.918842  0.657538  0.000000  1
  Re  Re5  1  0.416925  0.840484  0.500000  1
  Re  Re6  1  0.581618  0.163619  0.500000  1
  Re  Re7  1  0.343812  0.107254  0.000000  1
  Re  Re8  1  0.846127  0.393879  0.500000  1
  Si  Si9  1  0.223587  0.806154  0.000000  1
  Si  Si10  1  0.778049  0.195539  0.000000  1
  Si  Si11  1  0.723751  0.693053  0.500000  1
  Si  Si12  1  0.276912  0.305437  0.500000  1
  Mo  Mo13  1  0.651428  0.892833  0.000000  1
