# generated using pymatgen
data_AsI10Cl
_symmetry_space_group_name_H-M   'P 1'
_cell_length_a   8.20393982
_cell_length_b   9.39096227
_cell_length_c   10.35433344
_cell_angle_alpha   97.05886483
_cell_angle_beta   96.51292788
_cell_angle_gamma   111.32277134
_symmetry_Int_Tables_number   1
_chemical_formula_structural   AsI10Cl
_chemical_formula_sum   'As1 I10 Cl1'
_cell_volume   726.62223865
_cell_formula_units_Z   1
loop_
 _symmetry_equiv_pos_site_id
 _symmetry_equiv_pos_as_xyz
  1  'x, y, z'
loop_
 _atom_site_type_symbol
 _atom_site_label
 _atom_site_symmetry_multiplicity
 _atom_site_fract_x
 _atom_site_fract_y
 _atom_site_fract_z
 _atom_site_occupancy
  As  As0  1  0.979332  0.497691  0.537396  1
  I  I1  1  0.006052  0.007693  0.033478  1
  I  I2  1  0.683035  0.783814  0.880317  1
  I  I3  1  0.330986  0.240351  0.225059  1
  I  I4  1  0.712652  0.262928  0.579575  1
  I  I5  1  0.241184  0.708254  0.294501  1
  I  I6  1  0.464337  0.745564  0.089747  1
  I  I7  1  0.548038  0.272103  0.996009  1
  I  I8  1  0.855802  0.720486  0.545794  1
  I  I9  1  0.140983  0.208535  0.438352  1
  I  I10  1  0.890450  0.484864  0.143451  1
  Cl  Cl11  1  0.147149  0.567717  0.736319  1
