# generated using pymatgen
data_Li4Pr3YPt4
_symmetry_space_group_name_H-M   'P 1'
_cell_length_a   4.10086400
_cell_length_b   7.25614970
_cell_length_c   8.66501300
_cell_angle_alpha   90.35680646
_cell_angle_beta   90.00000000
_cell_angle_gamma   90.00000000
_symmetry_Int_Tables_number   1
_chemical_formula_structural   Li4Pr3YPt4
_chemical_formula_sum   'Li4 Pr3 Y1 Pt4'
_cell_volume   257.83531311
_cell_formula_units_Z   1
loop_
 _symmetry_equiv_pos_site_id
 _symmetry_equiv_pos_as_xyz
  1  'x, y, z'
loop_
 _atom_site_type_symbol
 _atom_site_label
 _atom_site_symmetry_multiplicity
 _atom_site_fract_x
 _atom_site_fract_y
 _atom_site_fract_z
 _atom_site_occupancy
  Li  Li0  1  0.250000  0.876199  0.947589  1
  Li  Li1  1  0.750000  0.124035  0.057236  1
  Li  Li2  1  0.750000  0.628764  0.442505  1
  Li  Li3  1  0.250000  0.371505  0.553952  1
  Pr  Pr4  1  0.250000  0.454491  0.186383  1
  Pr  Pr5  1  0.750000  0.547621  0.815721  1
  Pr  Pr6  1  0.750000  0.044636  0.682293  1
  Y  Y7  1  0.250000  0.953251  0.317184  1
  Pt  Pt8  1  0.250000  0.751605  0.613549  1
  Pt  Pt9  1  0.750000  0.241590  0.378296  1
  Pt  Pt10  1  0.750000  0.754477  0.124197  1
  Pt  Pt11  1  0.250000  0.251825  0.881099  1
