# generated using pymatgen
data_Er10Al3Ir
_symmetry_space_group_name_H-M   'P 1'
_cell_length_a   9.41353300
_cell_length_b   9.41353213
_cell_length_c   9.56840400
_cell_angle_alpha   90.00000000
_cell_angle_beta   90.00000000
_cell_angle_gamma   119.99999955
_symmetry_Int_Tables_number   1
_chemical_formula_structural   Er10Al3Ir
_chemical_formula_sum   'Er20 Al6 Ir2'
_cell_volume   734.30315844
_cell_formula_units_Z   2
loop_
 _symmetry_equiv_pos_site_id
 _symmetry_equiv_pos_as_xyz
  1  'x, y, z'
loop_
 _atom_site_type_symbol
 _atom_site_label
 _atom_site_symmetry_multiplicity
 _atom_site_fract_x
 _atom_site_fract_y
 _atom_site_fract_z
 _atom_site_occupancy
  Er  Er0  1  0.000000  0.000000  0.500000  1
  Er  Er1  1  0.000000  0.000000  0.000000  1
  Er  Er2  1  0.206689  0.793311  0.441404  1
  Er  Er3  1  0.206689  0.413379  0.441404  1
  Er  Er4  1  0.586621  0.793311  0.441404  1
  Er  Er5  1  0.793311  0.206689  0.558596  1
  Er  Er6  1  0.793311  0.586621  0.558596  1
  Er  Er7  1  0.413379  0.206689  0.558596  1
  Er  Er8  1  0.793311  0.206689  0.941404  1
  Er  Er9  1  0.793311  0.586621  0.941404  1
  Er  Er10  1  0.413379  0.206689  0.941404  1
  Er  Er11  1  0.206689  0.793311  0.058596  1
  Er  Er12  1  0.206689  0.413379  0.058596  1
  Er  Er13  1  0.586621  0.793311  0.058596  1
  Er  Er14  1  0.540632  0.459368  0.250000  1
  Er  Er15  1  0.540632  0.081263  0.250000  1
  Er  Er16  1  0.918737  0.459368  0.250000  1
  Er  Er17  1  0.459368  0.540632  0.750000  1
  Er  Er18  1  0.459368  0.918737  0.750000  1
  Er  Er19  1  0.081263  0.540632  0.750000  1
  Al  Al20  1  0.889678  0.110322  0.250000  1
  Al  Al21  1  0.889678  0.779357  0.250000  1
  Al  Al22  1  0.220643  0.110322  0.250000  1
  Al  Al23  1  0.110322  0.889678  0.750000  1
  Al  Al24  1  0.110322  0.220643  0.750000  1
  Al  Al25  1  0.779357  0.889678  0.750000  1
  Ir  Ir26  1  0.333333  0.666667  0.250000  1
  Ir  Ir27  1  0.666667  0.333333  0.750000  1
