# generated using pymatgen
data_Tm7Lu5Cd2Fe3
_symmetry_space_group_name_H-M   'P 1'
_cell_length_a   8.19012111
_cell_length_b   8.19466704
_cell_length_c   8.19466701
_cell_angle_alpha   108.18946403
_cell_angle_beta   108.23123782
_cell_angle_gamma   112.04710710
_symmetry_Int_Tables_number   1
_chemical_formula_structural   Tm7Lu5Cd2Fe3
_chemical_formula_sum   'Tm7 Lu5 Cd2 Fe3'
_cell_volume   422.61827274
_cell_formula_units_Z   1
loop_
 _symmetry_equiv_pos_site_id
 _symmetry_equiv_pos_as_xyz
  1  'x, y, z'
loop_
 _atom_site_type_symbol
 _atom_site_label
 _atom_site_symmetry_multiplicity
 _atom_site_fract_x
 _atom_site_fract_y
 _atom_site_fract_z
 _atom_site_occupancy
  Tm  Tm0  1  0.046258  0.809821  0.236438  1
  Tm  Tm1  1  0.426586  0.190268  0.236318  1
  Tm  Tm2  1  0.574081  0.810255  0.763827  1
  Tm  Tm3  1  0.307807  0.308062  0.616651  1
  Tm  Tm4  1  0.691681  0.692450  0.383753  1
  Tm  Tm5  1  0.691681  0.307929  0.999231  1
  Tm  Tm6  1  0.307807  0.691155  0.999745  1
  Lu  Lu7  1  0.188368  0.424509  0.235394  1
  Lu  Lu8  1  0.811294  0.574493  0.763660  1
  Lu  Lu9  1  0.188368  0.952975  0.763859  1
  Lu  Lu10  1  0.954192  0.189892  0.764299  1
  Lu  Lu11  1  0.811294  0.047634  0.236801  1
  Cd  Cd12  1  0.000039  0.500048  0.499990  1
  Cd  Cd13  1  0.501082  0.000578  0.500504  1
  Fe  Fe14  1  0.382136  0.382307  0.999829  1
  Fe  Fe15  1  0.617367  0.617357  0.000010  1
  Fe  Fe16  1  0.999959  0.000267  0.999692  1
