# generated using pymatgen
data_Sm2Co2Br
_symmetry_space_group_name_H-M   'P 1'
_cell_length_a   3.93809300
_cell_length_b   3.93809361
_cell_length_c   16.69679200
_cell_angle_alpha   90.00000000
_cell_angle_beta   90.00000000
_cell_angle_gamma   120.00000325
_symmetry_Int_Tables_number   1
_chemical_formula_structural   Sm2Co2Br
_chemical_formula_sum   'Sm4 Co4 Br2'
_cell_volume   224.25165564
_cell_formula_units_Z   2
loop_
 _symmetry_equiv_pos_site_id
 _symmetry_equiv_pos_as_xyz
  1  'x, y, z'
loop_
 _atom_site_type_symbol
 _atom_site_label
 _atom_site_symmetry_multiplicity
 _atom_site_fract_x
 _atom_site_fract_y
 _atom_site_fract_z
 _atom_site_occupancy
  Sm  Sm0  1  0.000000  0.000000  0.109162  1
  Sm  Sm1  1  0.000000  0.000000  0.390838  1
  Sm  Sm2  1  0.000000  0.000000  0.890838  1
  Sm  Sm3  1  0.000000  0.000000  0.609162  1
  Co  Co4  1  0.333333  0.666667  0.001692  1
  Co  Co5  1  0.666667  0.333333  0.998308  1
  Co  Co6  1  0.333333  0.666667  0.498308  1
  Co  Co7  1  0.666667  0.333333  0.501692  1
  Br  Br8  1  0.333333  0.666667  0.750000  1
  Br  Br9  1  0.666667  0.333333  0.250000  1
