# generated using pymatgen
data_Ho2Tm6Tl3Ir
_symmetry_space_group_name_H-M   'P 1'
_cell_length_a   10.29955700
_cell_length_b   10.30151996
_cell_length_c   6.98979100
_cell_angle_alpha   89.98759145
_cell_angle_beta   90.00000000
_cell_angle_gamma   119.99370005
_symmetry_Int_Tables_number   1
_chemical_formula_structural   Ho2Tm6Tl3Ir
_chemical_formula_sum   'Ho4 Tm12 Tl6 Ir2'
_cell_volume   642.30636930
_cell_formula_units_Z   2
loop_
 _symmetry_equiv_pos_site_id
 _symmetry_equiv_pos_as_xyz
  1  'x, y, z'
loop_
 _atom_site_type_symbol
 _atom_site_label
 _atom_site_symmetry_multiplicity
 _atom_site_fract_x
 _atom_site_fract_y
 _atom_site_fract_z
 _atom_site_occupancy
  Ho  Ho0  1  0.533027  0.066055  0.515193  1
  Ho  Ho1  1  0.934218  0.467101  0.515163  1
  Ho  Ho2  1  0.532883  0.467101  0.515163  1
  Ho  Ho3  1  0.466832  0.933663  0.015140  1
  Tm  Tm4  1  0.067013  0.533473  0.015187  1
  Tm  Tm5  1  0.466461  0.533473  0.015187  1
  Tm  Tm6  1  0.176447  0.352897  0.721300  1
  Tm  Tm7  1  0.647212  0.823391  0.720970  1
  Tm  Tm8  1  0.176177  0.823391  0.720970  1
  Tm  Tm9  1  0.823516  0.647031  0.219994  1
  Tm  Tm10  1  0.352729  0.176692  0.220322  1
  Tm  Tm11  1  0.823963  0.176692  0.220322  1
  Tm  Tm12  1  0.666846  0.333689  0.895771  1
  Tm  Tm13  1  0.333145  0.666292  0.395525  1
  Tm  Tm14  1  0.999969  0.999938  0.499797  1
  Tm  Tm15  1  0.000006  0.000010  0.999990  1
  Tl  Tl16  1  0.837238  0.674477  0.762645  1
  Tl  Tl17  1  0.325529  0.162756  0.762486  1
  Tl  Tl18  1  0.837226  0.162756  0.762486  1
  Tl  Tl19  1  0.163011  0.326020  0.261970  1
  Tl  Tl20  1  0.674323  0.836973  0.262319  1
  Tl  Tl21  1  0.162651  0.836973  0.262319  1
  Ir  Ir22  1  0.666642  0.333284  0.288458  1
  Ir  Ir23  1  0.332937  0.665875  0.789321  1
