# generated using pymatgen
data_Sr5FeOsN7
_symmetry_space_group_name_H-M   'P 1'
_cell_length_a   6.43378480
_cell_length_b   9.01183219
_cell_length_c   9.16386276
_cell_angle_alpha   114.02203741
_cell_angle_beta   98.52909140
_cell_angle_gamma   90.33356963
_symmetry_Int_Tables_number   1
_chemical_formula_structural   Sr5FeOsN7
_chemical_formula_sum   'Sr10 Fe2 Os2 N14'
_cell_volume   478.64642168
_cell_formula_units_Z   2
loop_
 _symmetry_equiv_pos_site_id
 _symmetry_equiv_pos_as_xyz
  1  'x, y, z'
loop_
 _atom_site_type_symbol
 _atom_site_label
 _atom_site_symmetry_multiplicity
 _atom_site_fract_x
 _atom_site_fract_y
 _atom_site_fract_z
 _atom_site_occupancy
  Sr  Sr0  1  0.854074  0.584663  0.344175  1
  Sr  Sr1  1  0.274875  0.978678  0.568636  1
  Sr  Sr2  1  0.695595  0.406593  0.839101  1
  Sr  Sr3  1  0.304405  0.593407  0.160899  1
  Sr  Sr4  1  0.402638  0.787057  0.898355  1
  Sr  Sr5  1  0.597362  0.212943  0.101645  1
  Sr  Sr6  1  0.145926  0.415337  0.655825  1
  Sr  Sr7  1  0.883804  0.839323  0.753267  1
  Sr  Sr8  1  0.116196  0.160677  0.246733  1
  Sr  Sr9  1  0.725125  0.021322  0.431364  1
  Fe  Fe10  1  0.575096  0.361851  0.478016  1
  Fe  Fe11  1  0.424904  0.638149  0.521984  1
  Os  Os12  1  0.117665  0.222489  0.916276  1
  Os  Os13  1  0.882335  0.777511  0.083724  1
  N  N14  1  0.555902  0.553714  0.657890  1
  N  N15  1  0.444098  0.446286  0.342110  1
  N  N16  1  0.177463  0.700655  0.584685  1
  N  N17  1  0.822537  0.299345  0.415315  1
  N  N18  1  0.422309  0.205132  0.490839  1
  N  N19  1  0.577691  0.794868  0.509161  1
  N  N20  1  0.950557  0.146225  0.715135  1
  N  N21  1  0.049443  0.853775  0.284865  1
  N  N22  1  0.226677  0.050382  0.958479  1
  N  N23  1  0.773323  0.949618  0.041521  1
  N  N24  1  0.356233  0.333030  0.907573  1
  N  N25  1  0.973676  0.350402  0.077759  1
  N  N26  1  0.026324  0.649598  0.922241  1
  N  N27  1  0.643767  0.666970  0.092427  1
