# generated using pymatgen
data_Lu2HfGa5Ru
_symmetry_space_group_name_H-M   'P 1'
_cell_length_a   6.83067300
_cell_length_b   6.71551294
_cell_length_c   4.21917700
_cell_angle_alpha   90.00000000
_cell_angle_beta   90.00000000
_cell_angle_gamma   120.56889838
_symmetry_Int_Tables_number   1
_chemical_formula_structural   Lu2HfGa5Ru
_chemical_formula_sum   'Lu2 Hf1 Ga5 Ru1'
_cell_volume   166.64134883
_cell_formula_units_Z   1
loop_
 _symmetry_equiv_pos_site_id
 _symmetry_equiv_pos_as_xyz
  1  'x, y, z'
loop_
 _atom_site_type_symbol
 _atom_site_label
 _atom_site_symmetry_multiplicity
 _atom_site_fract_x
 _atom_site_fract_y
 _atom_site_fract_z
 _atom_site_occupancy
  Lu  Lu0  1  0.004877  0.585946  0.000000  1
  Lu  Lu1  1  0.418931  0.414054  0.000000  1
  Hf  Hf2  1  0.593407  0.000000  0.000000  1
  Ga  Ga3  1  0.235793  0.000000  0.500000  1
  Ga  Ga4  1  0.001674  0.241689  0.500000  1
  Ga  Ga5  1  0.759985  0.758311  0.500000  1
  Ga  Ga6  1  0.342647  0.679331  0.500000  1
  Ga  Ga7  1  0.663318  0.320669  0.500000  1
  Ru  Ru8  1  0.979367  0.000000  0.000000  1
