# generated using pymatgen
data_Ho2Lu2TcOsC4
_symmetry_space_group_name_H-M   'P 1'
_cell_length_a   5.02723000
_cell_length_b   6.49319232
_cell_length_c   9.66423857
_cell_angle_alpha   89.68818797
_cell_angle_beta   90.00000000
_cell_angle_gamma   90.00000000
_symmetry_Int_Tables_number   1
_chemical_formula_structural   Ho2Lu2TcOsC4
_chemical_formula_sum   'Ho4 Lu4 Tc2 Os2 C8'
_cell_volume   315.46285678
_cell_formula_units_Z   2
loop_
 _symmetry_equiv_pos_site_id
 _symmetry_equiv_pos_as_xyz
  1  'x, y, z'
loop_
 _atom_site_type_symbol
 _atom_site_label
 _atom_site_symmetry_multiplicity
 _atom_site_fract_x
 _atom_site_fract_y
 _atom_site_fract_z
 _atom_site_occupancy
  Ho  Ho0  1  0.250000  0.534134  0.214906  1
  Ho  Ho1  1  0.750000  0.465866  0.785094  1
  Ho  Ho2  1  0.750000  0.967962  0.712342  1
  Ho  Ho3  1  0.250000  0.032038  0.287658  1
  Lu  Lu4  1  0.250000  0.672394  0.557114  1
  Lu  Lu5  1  0.750000  0.327606  0.442886  1
  Lu  Lu6  1  0.750000  0.828481  0.057771  1
  Lu  Lu7  1  0.250000  0.171519  0.942229  1
  Tc  Tc8  1  0.250000  0.718515  0.867772  1
  Tc  Tc9  1  0.750000  0.281485  0.132228  1
  Os  Os10  1  0.750000  0.780162  0.367397  1
  Os  Os11  1  0.250000  0.219838  0.632603  1
  C  C12  1  0.250000  0.450890  0.759770  1
  C  C13  1  0.750000  0.549110  0.240230  1
  C  C14  1  0.750000  0.048470  0.260370  1
  C  C15  1  0.250000  0.951530  0.739630  1
  C  C16  1  0.250000  0.830334  0.053498  1
  C  C17  1  0.750000  0.169666  0.946502  1
  C  C18  1  0.750000  0.668058  0.553957  1
  C  C19  1  0.250000  0.331942  0.446043  1
