# generated using pymatgen
data_ErLu3(MoOs3)2
_symmetry_space_group_name_H-M   'P 1'
_cell_length_a   5.42745500
_cell_length_b   5.42745533
_cell_length_c   8.53771000
_cell_angle_alpha   90.00000000
_cell_angle_beta   90.00000000
_cell_angle_gamma   120.00000409
_symmetry_Int_Tables_number   1
_chemical_formula_structural   ErLu3(MoOs3)2
_chemical_formula_sum   'Er1 Lu3 Mo2 Os6'
_cell_volume   217.80332324
_cell_formula_units_Z   1
loop_
 _symmetry_equiv_pos_site_id
 _symmetry_equiv_pos_as_xyz
  1  'x, y, z'
loop_
 _atom_site_type_symbol
 _atom_site_label
 _atom_site_symmetry_multiplicity
 _atom_site_fract_x
 _atom_site_fract_y
 _atom_site_fract_z
 _atom_site_occupancy
  Er  Er0  1  0.333333  0.666667  0.065111  1
  Lu  Lu1  1  0.333333  0.666667  0.435530  1
  Lu  Lu2  1  0.666667  0.333333  0.564742  1
  Lu  Lu3  1  0.666667  0.333333  0.934980  1
  Mo  Mo4  1  0.000000  0.000000  0.499864  1
  Mo  Mo5  1  0.000000  0.000000  0.999914  1
  Os  Os6  1  0.826464  0.173536  0.250440  1
  Os  Os7  1  0.826464  0.652926  0.250440  1
  Os  Os8  1  0.347074  0.173536  0.250440  1
  Os  Os9  1  0.173377  0.826623  0.749513  1
  Os  Os10  1  0.173377  0.346756  0.749513  1
  Os  Os11  1  0.653244  0.826623  0.749513  1
