# generated using pymatgen
data_LaErP7Ru12
_symmetry_space_group_name_H-M   'P 1'
_cell_length_a   9.46034700
_cell_length_b   9.46034553
_cell_length_c   3.96556500
_cell_angle_alpha   90.00000000
_cell_angle_beta   90.00000000
_cell_angle_gamma   119.99999465
_symmetry_Int_Tables_number   1
_chemical_formula_structural   LaErP7Ru12
_chemical_formula_sum   'La1 Er1 P7 Ru12'
_cell_volume   307.36173089
_cell_formula_units_Z   1
loop_
 _symmetry_equiv_pos_site_id
 _symmetry_equiv_pos_as_xyz
  1  'x, y, z'
loop_
 _atom_site_type_symbol
 _atom_site_label
 _atom_site_symmetry_multiplicity
 _atom_site_fract_x
 _atom_site_fract_y
 _atom_site_fract_z
 _atom_site_occupancy
  La  La0  1  0.333333  0.666667  0.000000  1
  Er  Er1  1  0.666667  0.333333  0.500000  1
  P  P2  1  0.607000  0.718890  0.500000  1
  P  P3  1  0.000000  0.000000  0.000000  1
  P  P4  1  0.281110  0.888110  0.500000  1
  P  P5  1  0.111890  0.393000  0.500000  1
  P  P6  1  0.887198  0.570933  0.000000  1
  P  P7  1  0.429067  0.316264  0.000000  1
  P  P8  1  0.683736  0.112802  0.000000  1
  Ru  Ru9  1  0.559871  0.956749  0.500000  1
  Ru  Ru10  1  0.396878  0.440129  0.500000  1
  Ru  Ru11  1  0.914687  0.118743  0.500000  1
  Ru  Ru12  1  0.204056  0.085313  0.500000  1
  Ru  Ru13  1  0.881257  0.795944  0.500000  1
  Ru  Ru14  1  0.728929  0.892895  0.000000  1
  Ru  Ru15  1  0.107105  0.836033  0.000000  1
  Ru  Ru16  1  0.163967  0.271071  0.000000  1
  Ru  Ru17  1  0.421623  0.070518  0.000000  1
  Ru  Ru18  1  0.929482  0.351107  0.000000  1
  Ru  Ru19  1  0.648893  0.578377  0.000000  1
  Ru  Ru20  1  0.043251  0.603122  0.500000  1
