# generated using pymatgen
data_Pr15ThMg3TlIr4
_symmetry_space_group_name_H-M   'P 1'
_cell_length_a   10.12241886
_cell_length_b   10.11811661
_cell_length_c   10.11812960
_cell_angle_alpha   59.93903436
_cell_angle_beta   59.78433009
_cell_angle_gamma   59.78409172
_symmetry_Int_Tables_number   1
_chemical_formula_structural   Pr15ThMg3TlIr4
_chemical_formula_sum   'Pr15 Th1 Mg3 Tl1 Ir4'
_cell_volume   730.03855336
_cell_formula_units_Z   1
loop_
 _symmetry_equiv_pos_site_id
 _symmetry_equiv_pos_as_xyz
  1  'x, y, z'
loop_
 _atom_site_type_symbol
 _atom_site_label
 _atom_site_symmetry_multiplicity
 _atom_site_fract_x
 _atom_site_fract_y
 _atom_site_fract_z
 _atom_site_occupancy
  Pr  Pr0  1  0.347646  0.348787  0.956336  1
  Pr  Pr1  1  0.347645  0.956337  0.348787  1
  Pr  Pr2  1  0.958023  0.347215  0.347214  1
  Pr  Pr3  1  0.812586  0.187657  0.187656  1
  Pr  Pr4  1  0.189513  0.809194  0.809197  1
  Pr  Pr5  1  0.190912  0.809731  0.190007  1
  Pr  Pr6  1  0.811810  0.187393  0.811472  1
  Pr  Pr7  1  0.190915  0.190005  0.809731  1
  Pr  Pr8  1  0.811810  0.811477  0.187394  1
  Pr  Pr9  1  0.942050  0.561221  0.561221  1
  Pr  Pr10  1  0.559464  0.939414  0.939416  1
  Pr  Pr11  1  0.562892  0.942654  0.561722  1
  Pr  Pr12  1  0.939554  0.558330  0.940151  1
  Pr  Pr13  1  0.562893  0.561723  0.942657  1
  Pr  Pr14  1  0.939559  0.940150  0.558327  1
  Th  Th15  1  0.343838  0.342930  0.342928  1
  Mg  Mg16  1  0.577422  0.578302  0.578303  1
  Mg  Mg17  1  0.575065  0.576725  0.265051  1
  Mg  Mg18  1  0.575065  0.265051  0.576725  1
  Tl  Tl19  1  0.255653  0.580141  0.580142  1
  Ir  Ir20  1  0.142212  0.141857  0.141858  1
  Ir  Ir21  1  0.146454  0.147154  0.570226  1
  Ir  Ir22  1  0.146455  0.570225  0.147153  1
  Ir  Ir23  1  0.570564  0.146322  0.146322  1
