# generated using pymatgen
data_Sc4Be4Fe2(IrRh)5
_symmetry_space_group_name_H-M   'P 1'
_cell_length_a   9.42690216
_cell_length_b   9.41847918
_cell_length_c   3.13222800
_cell_angle_alpha   90.00000000
_cell_angle_beta   90.00000000
_cell_angle_gamma   90.10776688
_symmetry_Int_Tables_number   1
_chemical_formula_structural   Sc4Be4Fe2(IrRh)5
_chemical_formula_sum   'Sc4 Be4 Fe2 Ir5 Rh5'
_cell_volume   278.10089131
_cell_formula_units_Z   1
loop_
 _symmetry_equiv_pos_site_id
 _symmetry_equiv_pos_as_xyz
  1  'x, y, z'
loop_
 _atom_site_type_symbol
 _atom_site_label
 _atom_site_symmetry_multiplicity
 _atom_site_fract_x
 _atom_site_fract_y
 _atom_site_fract_z
 _atom_site_occupancy
  Sc  Sc0  1  0.826038  0.322969  0.000000  1
  Sc  Sc1  1  0.323102  0.174056  0.000000  1
  Sc  Sc2  1  0.676476  0.826269  0.000000  1
  Sc  Sc3  1  0.175065  0.676479  0.000000  1
  Be  Be4  1  0.623685  0.125102  0.000000  1
  Be  Be5  1  0.125058  0.376573  0.000000  1
  Be  Be6  1  0.875076  0.623460  0.000000  1
  Be  Be7  1  0.376451  0.875068  0.000000  1
  Fe  Fe8  1  0.999953  0.999717  0.000000  1
  Fe  Fe9  1  0.500038  0.500102  0.000000  1
  Ir  Ir10  1  0.068725  0.208536  0.500000  1
  Ir  Ir11  1  0.208650  0.931344  0.500000  1
  Ir  Ir12  1  0.791560  0.069121  0.500000  1
  Ir  Ir13  1  0.500191  0.999759  0.500000  1
  Ir  Ir14  1  0.999672  0.500303  0.500000  1
  Rh  Rh15  1  0.930602  0.790915  0.500000  1
  Rh  Rh16  1  0.429907  0.707831  0.500000  1
  Rh  Rh17  1  0.569786  0.292211  0.500000  1
  Rh  Rh18  1  0.707746  0.570411  0.500000  1
  Rh  Rh19  1  0.292221  0.429773  0.500000  1
