# generated using pymatgen
data_Sm2MnFe6Co5P7
_symmetry_space_group_name_H-M   'P 1'
_cell_length_a   9.04165277
_cell_length_b   9.06625843
_cell_length_c   3.63463200
_cell_angle_alpha   90.00000000
_cell_angle_beta   90.00000000
_cell_angle_gamma   120.11507329
_symmetry_Int_Tables_number   1
_chemical_formula_structural   Sm2MnFe6Co5P7
_chemical_formula_sum   'Sm2 Mn1 Fe6 Co5 P7'
_cell_volume   257.72837722
_cell_formula_units_Z   1
loop_
 _symmetry_equiv_pos_site_id
 _symmetry_equiv_pos_as_xyz
  1  'x, y, z'
loop_
 _atom_site_type_symbol
 _atom_site_label
 _atom_site_symmetry_multiplicity
 _atom_site_fract_x
 _atom_site_fract_y
 _atom_site_fract_z
 _atom_site_occupancy
  Sm  Sm0  1  0.666599  0.332077  0.000000  1
  Sm  Sm1  1  0.330956  0.666822  0.500000  1
  Mn  Mn2  1  0.880501  0.776902  0.000000  1
  Fe  Fe3  1  0.153836  0.273558  0.500000  1
  Fe  Fe4  1  0.725576  0.879266  0.500000  1
  Fe  Fe5  1  0.118852  0.849776  0.500000  1
  Fe  Fe6  1  0.049252  0.614683  0.000000  1
  Fe  Fe7  1  0.230645  0.104297  0.000000  1
  Fe  Fe8  1  0.898888  0.126789  0.000000  1
  Co  Co9  1  0.430801  0.058914  0.500000  1
  Co  Co10  1  0.940330  0.368038  0.500000  1
  Co  Co11  1  0.629361  0.568158  0.500000  1
  Co  Co12  1  0.384751  0.434197  0.000000  1
  Co  Co13  1  0.564461  0.950150  0.000000  1
  P  P14  1  0.109992  0.398752  0.000000  1
  P  P15  1  0.596776  0.710379  0.000000  1
  P  P16  1  0.284940  0.888255  0.000000  1
  P  P17  1  0.000132  0.003484  0.500000  1
  P  P18  1  0.404634  0.295840  0.500000  1
  P  P19  1  0.704074  0.107535  0.500000  1
  P  P20  1  0.894640  0.592130  0.500000  1
