# generated using pymatgen
data_DyHo15MgIn3Ni4
_symmetry_space_group_name_H-M   'P 1'
_cell_length_a   9.56038035
_cell_length_b   9.52919701
_cell_length_c   9.52919688
_cell_angle_alpha   60.00189214
_cell_angle_beta   60.15818237
_cell_angle_gamma   60.15818959
_symmetry_Int_Tables_number   1
_chemical_formula_structural   DyHo15MgIn3Ni4
_chemical_formula_sum   'Dy1 Ho15 Mg1 In3 Ni4'
_cell_volume   615.33735435
_cell_formula_units_Z   1
loop_
 _symmetry_equiv_pos_site_id
 _symmetry_equiv_pos_as_xyz
  1  'x, y, z'
loop_
 _atom_site_type_symbol
 _atom_site_label
 _atom_site_symmetry_multiplicity
 _atom_site_fract_x
 _atom_site_fract_y
 _atom_site_fract_z
 _atom_site_occupancy
  Dy  Dy0  1  0.344423  0.345379  0.345379  1
  Ho  Ho1  1  0.347976  0.346270  0.956739  1
  Ho  Ho2  1  0.347976  0.956739  0.346270  1
  Ho  Ho3  1  0.951887  0.349565  0.349565  1
  Ho  Ho4  1  0.809333  0.189985  0.189985  1
  Ho  Ho5  1  0.186440  0.813254  0.813254  1
  Ho  Ho6  1  0.186924  0.814589  0.187076  1
  Ho  Ho7  1  0.811860  0.190672  0.810981  1
  Ho  Ho8  1  0.186924  0.187076  0.814589  1
  Ho  Ho9  1  0.811860  0.810981  0.190672  1
  Ho  Ho10  1  0.937514  0.565492  0.565491  1
  Ho  Ho11  1  0.564332  0.937595  0.937594  1
  Ho  Ho12  1  0.564041  0.935781  0.564582  1
  Ho  Ho13  1  0.937433  0.563507  0.937306  1
  Ho  Ho14  1  0.564040  0.564583  0.935780  1
  Ho  Ho15  1  0.937433  0.937307  0.563506  1
  Mg  Mg16  1  0.270227  0.575089  0.575089  1
  In  In17  1  0.582574  0.582993  0.582993  1
  In  In18  1  0.582080  0.582185  0.252846  1
  In  In19  1  0.582080  0.252846  0.582185  1
  Ni  Ni20  1  0.141209  0.143622  0.143622  1
  Ni  Ni21  1  0.139295  0.141281  0.573565  1
  Ni  Ni22  1  0.139295  0.573565  0.141281  1
  Ni  Ni23  1  0.572841  0.139646  0.139646  1
