# generated using pymatgen
data_Nd2Fe6CoNi5P7
_symmetry_space_group_name_H-M   'P 1'
_cell_length_a   9.10259059
_cell_length_b   9.11354689
_cell_length_c   3.69639700
_cell_angle_alpha   90.00000000
_cell_angle_beta   90.00000000
_cell_angle_gamma   120.00891390
_symmetry_Int_Tables_number   1
_chemical_formula_structural   Nd2Fe6CoNi5P7
_chemical_formula_sum   'Nd2 Fe6 Co1 Ni5 P7'
_cell_volume   265.53554606
_cell_formula_units_Z   1
loop_
 _symmetry_equiv_pos_site_id
 _symmetry_equiv_pos_as_xyz
  1  'x, y, z'
loop_
 _atom_site_type_symbol
 _atom_site_label
 _atom_site_symmetry_multiplicity
 _atom_site_fract_x
 _atom_site_fract_y
 _atom_site_fract_z
 _atom_site_occupancy
  Nd  Nd0  1  0.667629  0.333532  0.000000  1
  Nd  Nd1  1  0.332509  0.666558  0.500000  1
  Fe  Fe2  1  0.271776  0.119892  0.000000  1
  Fe  Fe3  1  0.846993  0.727275  0.000000  1
  Fe  Fe4  1  0.881164  0.151552  0.000000  1
  Fe  Fe5  1  0.095529  0.879509  0.500000  1
  Fe  Fe6  1  0.785211  0.903932  0.500000  1
  Fe  Fe7  1  0.117197  0.212405  0.500000  1
  Co  Co8  1  0.952376  0.383883  0.500000  1
  Ni  Ni9  1  0.059751  0.627753  0.000000  1
  Ni  Ni10  1  0.567913  0.941770  0.000000  1
  Ni  Ni11  1  0.371551  0.433207  0.000000  1
  Ni  Ni12  1  0.433475  0.049384  0.500000  1
  Ni  Ni13  1  0.615313  0.566814  0.500000  1
  P  P14  1  0.293268  0.893072  0.000000  1
  P  P15  1  0.599790  0.708055  0.000000  1
  P  P16  1  0.103751  0.401377  0.000000  1
  P  P17  1  0.392459  0.284042  0.500000  1
  P  P18  1  0.891628  0.603883  0.500000  1
  P  P19  1  0.720860  0.113466  0.500000  1
  P  P20  1  0.999859  0.998639  0.000000  1
