# generated using pymatgen
data_AcSn3Rh
_symmetry_space_group_name_H-M   'P 1'
_cell_length_a   6.58515746
_cell_length_b   6.58515823
_cell_length_c   6.58515754
_cell_angle_alpha   136.62151508
_cell_angle_beta   136.62152571
_cell_angle_gamma   63.02090656
_symmetry_Int_Tables_number   1
_chemical_formula_structural   AcSn3Rh
_chemical_formula_sum   'Ac1 Sn3 Rh1'
_cell_volume   133.00699746
_cell_formula_units_Z   1
loop_
 _symmetry_equiv_pos_site_id
 _symmetry_equiv_pos_as_xyz
  1  'x, y, z'
loop_
 _atom_site_type_symbol
 _atom_site_label
 _atom_site_symmetry_multiplicity
 _atom_site_fract_x
 _atom_site_fract_y
 _atom_site_fract_z
 _atom_site_occupancy
  Ac  Ac0  1  0.418212  0.418212  0.000000  1
  Sn  Sn1  1  0.987290  0.987290  0.000000  1
  Sn  Sn2  1  0.660966  0.160967  0.499999  1
  Sn  Sn3  1  0.160967  0.660966  0.499999  1
  Rh  Rh4  1  0.755263  0.755263  0.000000  1
