# generated using pymatgen
data_Pa5Mn7
_symmetry_space_group_name_H-M   'P 1'
_cell_length_a   5.35720073
_cell_length_b   5.35665028
_cell_length_c   7.92962462
_cell_angle_alpha   89.90795359
_cell_angle_beta   90.05975939
_cell_angle_gamma   120.00613507
_symmetry_Int_Tables_number   1
_chemical_formula_structural   Pa5Mn7
_chemical_formula_sum   'Pa5 Mn7'
_cell_volume   197.05481218
_cell_formula_units_Z   1
loop_
 _symmetry_equiv_pos_site_id
 _symmetry_equiv_pos_as_xyz
  1  'x, y, z'
loop_
 _atom_site_type_symbol
 _atom_site_label
 _atom_site_symmetry_multiplicity
 _atom_site_fract_x
 _atom_site_fract_y
 _atom_site_fract_z
 _atom_site_occupancy
  Pa  Pa0  1  0.666666  0.333247  0.080827  1
  Pa  Pa1  1  0.333334  0.666753  0.919173  1
  Pa  Pa2  1  0.333334  0.666812  0.550838  1
  Pa  Pa3  1  0.666666  0.333188  0.449162  1
  Pa  Pa4  1  0.000000  0.000000  0.000000  1
  Mn  Mn5  1  0.662171  0.831035  0.253251  1
  Mn  Mn6  1  0.168826  0.831098  0.253185  1
  Mn  Mn7  1  0.168991  0.337927  0.253304  1
  Mn  Mn8  1  0.337829  0.168965  0.746749  1
  Mn  Mn9  1  0.831174  0.168902  0.746815  1
  Mn  Mn10  1  0.831009  0.662073  0.746696  1
  Mn  Mn11  1  0.000000  0.000000  0.500000  1
