# generated using pymatgen
data_La3Pr5(CdPd)2
_symmetry_space_group_name_H-M   'P 1'
_cell_length_a   10.15724954
_cell_length_b   10.17610190
_cell_length_c   10.17610143
_cell_angle_alpha   59.87747089
_cell_angle_beta   60.06126150
_cell_angle_gamma   60.06126365
_symmetry_Int_Tables_number   1
_chemical_formula_structural   La3Pr5(CdPd)2
_chemical_formula_sum   'La6 Pr10 Cd4 Pd4'
_cell_volume   743.73977843
_cell_formula_units_Z   2
loop_
 _symmetry_equiv_pos_site_id
 _symmetry_equiv_pos_as_xyz
  1  'x, y, z'
loop_
 _atom_site_type_symbol
 _atom_site_label
 _atom_site_symmetry_multiplicity
 _atom_site_fract_x
 _atom_site_fract_y
 _atom_site_fract_z
 _atom_site_occupancy
  La  La0  1  0.350713  0.351273  0.351273  1
  La  La1  1  0.351273  0.350713  0.946741  1
  La  La2  1  0.351273  0.946741  0.350713  1
  La  La3  1  0.946741  0.351273  0.351273  1
  La  La4  1  0.807031  0.192969  0.192969  1
  La  La5  1  0.192969  0.807031  0.807031  1
  Pr  Pr6  1  0.193339  0.806661  0.193339  1
  Pr  Pr7  1  0.806661  0.193339  0.806661  1
  Pr  Pr8  1  0.193339  0.193339  0.806661  1
  Pr  Pr9  1  0.806661  0.806661  0.193339  1
  Pr  Pr10  1  0.934731  0.565269  0.565269  1
  Pr  Pr11  1  0.565269  0.934731  0.934731  1
  Pr  Pr12  1  0.565278  0.934722  0.565278  1
  Pr  Pr13  1  0.934722  0.565278  0.934722  1
  Pr  Pr14  1  0.565278  0.565278  0.934722  1
  Pr  Pr15  1  0.934722  0.934722  0.565278  1
  Cd  Cd16  1  0.580449  0.579716  0.579716  1
  Cd  Cd17  1  0.579716  0.580449  0.260118  1
  Cd  Cd18  1  0.579716  0.260118  0.580449  1
  Cd  Cd19  1  0.260118  0.579716  0.579716  1
  Pd  Pd20  1  0.142889  0.143645  0.143645  1
  Pd  Pd21  1  0.143645  0.142889  0.569822  1
  Pd  Pd22  1  0.143645  0.569822  0.142889  1
  Pd  Pd23  1  0.569822  0.143645  0.143645  1
