# generated using pymatgen
data_Sr4Mg5Al8Au9
_symmetry_space_group_name_H-M   'P 1'
_cell_length_a   12.04703089
_cell_length_b   12.08297535
_cell_length_c   4.42513600
_cell_angle_alpha   90.00000000
_cell_angle_beta   90.00000000
_cell_angle_gamma   120.09874535
_symmetry_Int_Tables_number   1
_chemical_formula_structural   Sr4Mg5Al8Au9
_chemical_formula_sum   'Sr4 Mg5 Al8 Au9'
_cell_volume   557.28605290
_cell_formula_units_Z   1
loop_
 _symmetry_equiv_pos_site_id
 _symmetry_equiv_pos_as_xyz
  1  'x, y, z'
loop_
 _atom_site_type_symbol
 _atom_site_label
 _atom_site_symmetry_multiplicity
 _atom_site_fract_x
 _atom_site_fract_y
 _atom_site_fract_z
 _atom_site_occupancy
  Sr  Sr0  1  0.204889  0.790853  0.500000  1
  Sr  Sr1  1  0.586738  0.793369  0.500000  1
  Sr  Sr2  1  0.204889  0.414036  0.500000  1
  Sr  Sr3  1  0.669958  0.334979  0.000000  1
  Mg  Mg4  1  0.163933  0.081967  0.500000  1
  Mg  Mg5  1  0.913310  0.831121  0.500000  1
  Mg  Mg6  1  0.533563  0.063879  0.500000  1
  Mg  Mg7  1  0.913310  0.082190  0.500000  1
  Mg  Mg8  1  0.533563  0.469684  0.500000  1
  Al  Al9  1  0.943715  0.292164  0.000000  1
  Al  Al10  1  0.710424  0.651040  0.000000  1
  Al  Al11  1  0.943715  0.651551  0.000000  1
  Al  Al12  1  0.348617  0.057433  0.000000  1
  Al  Al13  1  0.710424  0.059385  0.000000  1
  Al  Al14  1  0.348617  0.291184  0.000000  1
  Al  Al15  1  0.939117  0.469558  0.500000  1
  Al  Al16  1  0.329684  0.664842  0.000000  1
  Au  Au17  1  0.455578  0.544969  0.000000  1
  Au  Au18  1  0.823450  0.911725  0.000000  1
  Au  Au19  1  0.455578  0.910608  0.000000  1
  Au  Au20  1  0.088038  0.177455  0.000000  1
  Au  Au21  1  0.088038  0.910582  0.000000  1
  Au  Au22  1  0.796594  0.578530  0.500000  1
  Au  Au23  1  0.081904  0.540951  0.000000  1
  Au  Au24  1  0.796594  0.218063  0.500000  1
  Au  Au25  1  0.415762  0.207880  0.500000  1
