# generated using pymatgen
data_Er12Fe4SnIr
_symmetry_space_group_name_H-M   'P 1'
_cell_length_a   8.25229785
_cell_length_b   8.25229754
_cell_length_c   8.25229676
_cell_angle_alpha   106.69455880
_cell_angle_beta   110.78018304
_cell_angle_gamma   110.97416536
_symmetry_Int_Tables_number   1
_chemical_formula_structural   Er12Fe4SnIr
_chemical_formula_sum   'Er12 Fe4 Sn1 Ir1'
_cell_volume   431.85744357
_cell_formula_units_Z   1
loop_
 _symmetry_equiv_pos_site_id
 _symmetry_equiv_pos_as_xyz
  1  'x, y, z'
loop_
 _atom_site_type_symbol
 _atom_site_label
 _atom_site_symmetry_multiplicity
 _atom_site_fract_x
 _atom_site_fract_y
 _atom_site_fract_z
 _atom_site_occupancy
  Er  Er0  1  0.467747  0.283357  0.184390  1
  Er  Er1  1  0.098967  0.283357  0.815610  1
  Er  Er2  1  0.901033  0.716643  0.184390  1
  Er  Er3  1  0.532253  0.716643  0.815610  1
  Er  Er4  1  0.302352  0.615057  0.312704  1
  Er  Er5  1  0.302352  0.989649  0.687296  1
  Er  Er6  1  0.697648  0.384943  0.687296  1
  Er  Er7  1  0.697648  0.010351  0.312704  1
  Er  Er8  1  0.196486  0.217005  0.413491  1
  Er  Er9  1  0.803514  0.782995  0.586509  1
  Er  Er10  1  0.196486  0.782995  0.979479  1
  Er  Er11  1  0.803514  0.217005  0.020521  1
  Fe  Fe12  1  0.500000  0.608388  0.108388  1
  Fe  Fe13  1  0.500000  0.391612  0.891612  1
  Fe  Fe14  1  0.383165  0.000000  0.383165  1
  Fe  Fe15  1  0.616835  0.000000  0.616835  1
  Sn  Sn16  1  0.000000  0.500000  0.500000  1
  Ir  Ir17  1  0.000000  0.000000  0.000000  1
