# generated using pymatgen
data_Pr4NdZrRuO12
_symmetry_space_group_name_H-M   'P 1'
_cell_length_a   7.18529618
_cell_length_b   7.18473044
_cell_length_c   7.69143884
_cell_angle_alpha   74.46224203
_cell_angle_beta   74.45439818
_cell_angle_gamma   50.73641461
_symmetry_Int_Tables_number   1
_chemical_formula_structural   Pr4NdZrRuO12
_chemical_formula_sum   'Pr4 Nd1 Zr1 Ru1 O12'
_cell_volume   293.59824086
_cell_formula_units_Z   1
loop_
 _symmetry_equiv_pos_site_id
 _symmetry_equiv_pos_as_xyz
  1  'x, y, z'
loop_
 _atom_site_type_symbol
 _atom_site_label
 _atom_site_symmetry_multiplicity
 _atom_site_fract_x
 _atom_site_fract_y
 _atom_site_fract_z
 _atom_site_occupancy
  Pr  Pr0  1  0.693135  0.701634  0.639950  1
  Pr  Pr1  1  0.686729  0.702024  0.166850  1
  Pr  Pr2  1  0.298037  0.313307  0.833107  1
  Pr  Pr3  1  0.006305  0.993922  0.499776  1
  Nd  Nd4  1  0.298290  0.306779  0.359667  1
  Zr  Zr5  1  0.771350  0.228380  0.000313  1
  Ru  Ru6  1  0.255227  0.744532  0.000297  1
  O  O7  1  0.093397  0.597556  0.573397  1
  O  O8  1  0.022177  0.977299  0.182365  1
  O  O9  1  0.400757  0.909317  0.425206  1
  O  O10  1  0.492603  0.507855  0.179856  1
  O  O11  1  0.099967  0.584199  0.081531  1
  O  O12  1  0.903433  0.405283  0.421986  1
  O  O13  1  0.022630  0.977716  0.817724  1
  O  O14  1  0.593218  0.099204  0.576639  1
  O  O15  1  0.491722  0.506739  0.820787  1
  O  O16  1  0.561645  0.106190  0.082724  1
  O  O17  1  0.415089  0.900461  0.919480  1
  O  O18  1  0.894286  0.437603  0.918347  1
