# generated using pymatgen
data_Yb4Nb2O9
_symmetry_space_group_name_H-M   'P 1'
_cell_length_a   5.80486158
_cell_length_b   5.80486275
_cell_length_c   13.92110896
_cell_angle_alpha   88.68153210
_cell_angle_beta   88.68153126
_cell_angle_gamma   57.81380523
_symmetry_Int_Tables_number   1
_chemical_formula_structural   Yb4Nb2O9
_chemical_formula_sum   'Yb8 Nb4 O18'
_cell_volume   396.86516090
_cell_formula_units_Z   2
loop_
 _symmetry_equiv_pos_site_id
 _symmetry_equiv_pos_as_xyz
  1  'x, y, z'
loop_
 _atom_site_type_symbol
 _atom_site_label
 _atom_site_symmetry_multiplicity
 _atom_site_fract_x
 _atom_site_fract_y
 _atom_site_fract_z
 _atom_site_occupancy
  Yb  Yb0  1  0.995588  0.990124  0.498248  1
  Yb  Yb1  1  0.990124  0.995588  0.998248  1
  Yb  Yb2  1  0.953399  0.971772  0.738898  1
  Yb  Yb3  1  0.638536  0.613528  0.403628  1
  Yb  Yb4  1  0.291025  0.292531  0.076684  1
  Yb  Yb5  1  0.971772  0.953399  0.238898  1
  Yb  Yb6  1  0.613528  0.638536  0.903628  1
  Yb  Yb7  1  0.292531  0.291025  0.576684  1
  Nb  Nb8  1  0.672832  0.662560  0.162897  1
  Nb  Nb9  1  0.316160  0.347043  0.839786  1
  Nb  Nb10  1  0.662560  0.672832  0.662897  1
  Nb  Nb11  1  0.347043  0.316160  0.339786  1
  O  O12  1  0.729111  0.950772  0.606682  1
  O  O13  1  0.429869  0.629382  0.257297  1
  O  O14  1  0.074427  0.307048  0.922333  1
  O  O15  1  0.733451  0.179665  0.369997  1
  O  O16  1  0.432031  0.824941  0.056508  1
  O  O17  1  0.077326  0.497437  0.720627  1
  O  O18  1  0.266023  0.565642  0.448361  1
  O  O19  1  0.890447  0.289947  0.126024  1
  O  O20  1  0.555631  0.965364  0.789982  1
  O  O21  1  0.289947  0.890447  0.626024  1
  O  O22  1  0.965364  0.555631  0.289982  1
  O  O23  1  0.565642  0.266023  0.948361  1
  O  O24  1  0.824941  0.432031  0.556508  1
  O  O25  1  0.497437  0.077326  0.220627  1
  O  O26  1  0.179665  0.733451  0.869997  1
  O  O27  1  0.307048  0.074427  0.422333  1
  O  O28  1  0.950772  0.729111  0.106682  1
  O  O29  1  0.629382  0.429869  0.757297  1
