# generated using pymatgen
data_Dy5Ho(Al3Os)8
_symmetry_space_group_name_H-M   'P 1'
_cell_length_a   8.81644900
_cell_length_b   8.81891374
_cell_length_c   9.55572800
_cell_angle_alpha   90.00000000
_cell_angle_beta   90.00000000
_cell_angle_gamma   119.99075144
_symmetry_Int_Tables_number   1
_chemical_formula_structural   Dy5Ho(Al3Os)8
_chemical_formula_sum   'Dy5 Ho1 Al24 Os8'
_cell_volume   643.49276997
_cell_formula_units_Z   1
loop_
 _symmetry_equiv_pos_site_id
 _symmetry_equiv_pos_as_xyz
  1  'x, y, z'
loop_
 _atom_site_type_symbol
 _atom_site_label
 _atom_site_symmetry_multiplicity
 _atom_site_fract_x
 _atom_site_fract_y
 _atom_site_fract_z
 _atom_site_occupancy
  Dy  Dy0  1  0.806672  0.613343  0.750000  1
  Dy  Dy1  1  0.613176  0.806565  0.250000  1
  Dy  Dy2  1  0.386663  0.193340  0.750000  1
  Dy  Dy3  1  0.193388  0.806565  0.250000  1
  Dy  Dy4  1  0.806678  0.193340  0.750000  1
  Ho  Ho5  1  0.193330  0.386662  0.250000  1
  Al  Al6  1  0.333283  0.666567  0.015181  1
  Al  Al7  1  0.666680  0.333358  0.984885  1
  Al  Al8  1  0.666680  0.333358  0.515115  1
  Al  Al9  1  0.333283  0.666567  0.484819  1
  Al  Al10  1  0.162676  0.325354  0.575875  1
  Al  Al11  1  0.837362  0.674721  0.424119  1
  Al  Al12  1  0.674721  0.837381  0.575901  1
  Al  Al13  1  0.837362  0.674721  0.075881  1
  Al  Al14  1  0.325309  0.162689  0.424108  1
  Al  Al15  1  0.162676  0.325354  0.924125  1
  Al  Al16  1  0.162659  0.837381  0.575901  1
  Al  Al17  1  0.325309  0.162689  0.075892  1
  Al  Al18  1  0.837381  0.162689  0.424108  1
  Al  Al19  1  0.674721  0.837381  0.924099  1
  Al  Al20  1  0.837381  0.162689  0.075892  1
  Al  Al21  1  0.162659  0.837381  0.924099  1
  Al  Al22  1  0.560337  0.120674  0.250000  1
  Al  Al23  1  0.439696  0.879392  0.750000  1
  Al  Al24  1  0.879385  0.439643  0.250000  1
  Al  Al25  1  0.120654  0.560348  0.750000  1
  Al  Al26  1  0.560257  0.439643  0.250000  1
  Al  Al27  1  0.439695  0.560348  0.750000  1
  Al  Al28  1  0.999973  0.999946  0.250000  1
  Al  Al29  1  0.000018  0.000036  0.750000  1
  Os  Os30  1  0.499999  0.999998  0.999988  1
  Os  Os31  1  0.000052  0.499949  0.000051  1
  Os  Os32  1  0.499999  0.999998  0.500012  1
  Os  Os33  1  0.499897  0.499949  0.000051  1
  Os  Os34  1  0.000052  0.499949  0.499949  1
  Os  Os35  1  0.499897  0.499949  0.499949  1
  Os  Os36  1  0.000021  0.000043  0.000049  1
  Os  Os37  1  0.000021  0.000043  0.499951  1
