# generated using pymatgen
data_Sm10BeSiBr15
_symmetry_space_group_name_H-M   'P 1'
_cell_length_a   9.34920832
_cell_length_b   10.11685645
_cell_length_c   11.00452600
_cell_angle_alpha   91.01457706
_cell_angle_beta   114.61762783
_cell_angle_gamma   110.88341621
_symmetry_Int_Tables_number   1
_chemical_formula_structural   Sm10BeSiBr15
_chemical_formula_sum   'Sm10 Be1 Si1 Br15'
_cell_volume   867.00222287
_cell_formula_units_Z   1
loop_
 _symmetry_equiv_pos_site_id
 _symmetry_equiv_pos_as_xyz
  1  'x, y, z'
loop_
 _atom_site_type_symbol
 _atom_site_label
 _atom_site_symmetry_multiplicity
 _atom_site_fract_x
 _atom_site_fract_y
 _atom_site_fract_z
 _atom_site_occupancy
  Sm  Sm0  1  0.805603  0.417029  0.279587  1
  Sm  Sm1  1  0.187705  0.577465  0.716107  1
  Sm  Sm2  1  0.682616  0.741040  0.817176  1
  Sm  Sm3  1  0.323742  0.259826  0.180839  1
  Sm  Sm4  1  0.527610  0.692767  0.104844  1
  Sm  Sm5  1  0.471968  0.300632  0.898334  1
  Sm  Sm6  1  0.589034  0.039153  0.333731  1
  Sm  Sm7  1  0.410461  0.962294  0.661414  1
  Sm  Sm8  1  0.742742  0.084645  0.054657  1
  Sm  Sm9  1  0.259192  0.921040  0.949529  1
  Be  Be10  1  0.532412  0.179682  0.121685  1
  Si  Si11  1  0.468809  0.825518  0.882031  1
  Br  Br12  1  0.999469  0.000826  0.001209  1
  Br  Br13  1  0.638717  0.882878  0.582996  1
  Br  Br14  1  0.360140  0.116624  0.414898  1
  Br  Br15  1  0.885462  0.298377  0.529223  1
  Br  Br16  1  0.112470  0.699975  0.470803  1
  Br  Br17  1  0.294575  0.762642  0.183294  1
  Br  Br18  1  0.705562  0.237328  0.816265  1
  Br  Br19  1  0.062189  0.349831  0.230708  1
  Br  Br20  1  0.165738  0.058458  0.701135  1
  Br  Br21  1  0.832517  0.939894  0.297789  1
  Br  Br22  1  0.231308  0.409904  0.942674  1
  Br  Br23  1  0.767417  0.589436  0.054700  1
  Br  Br24  1  0.407430  0.462977  0.655931  1
  Br  Br25  1  0.595145  0.537663  0.348727  1
  Br  Br26  1  0.939964  0.652096  0.769715  1
