# generated using pymatgen
data_Ti12AlSn4Sb5
_symmetry_space_group_name_H-M   'P 1'
_cell_length_a   9.33059900
_cell_length_b   9.22440672
_cell_length_c   5.63155601
_cell_angle_alpha   90.00542615
_cell_angle_beta   90.00000000
_cell_angle_gamma   120.38155707
_symmetry_Int_Tables_number   1
_chemical_formula_structural   Ti12AlSn4Sb5
_chemical_formula_sum   'Ti12 Al1 Sn4 Sb5'
_cell_volume   418.14253459
_cell_formula_units_Z   1
loop_
 _symmetry_equiv_pos_site_id
 _symmetry_equiv_pos_as_xyz
  1  'x, y, z'
loop_
 _atom_site_type_symbol
 _atom_site_label
 _atom_site_symmetry_multiplicity
 _atom_site_fract_x
 _atom_site_fract_y
 _atom_site_fract_z
 _atom_site_occupancy
  Ti  Ti0  1  0.846739  0.693480  0.746368  1
  Ti  Ti1  1  0.158453  0.849538  0.254029  1
  Ti  Ti2  1  0.691085  0.849538  0.254029  1
  Ti  Ti3  1  0.304887  0.151027  0.745687  1
  Ti  Ti4  1  0.846142  0.151027  0.745687  1
  Ti  Ti5  1  0.150869  0.301737  0.254490  1
  Ti  Ti6  1  0.500143  0.000285  0.499619  1
  Ti  Ti7  1  0.497803  0.500092  0.999675  1
  Ti  Ti8  1  0.002289  0.500092  0.999675  1
  Ti  Ti9  1  0.002190  0.500218  0.500129  1
  Ti  Ti10  1  0.499973  0.999946  0.000415  1
  Ti  Ti11  1  0.498028  0.500218  0.500129  1
  Al  Al12  1  0.997695  0.995390  0.499188  1
  Sn  Sn13  1  0.800630  0.601260  0.250199  1
  Sn  Sn14  1  0.668618  0.337236  0.750448  1
  Sn  Sn15  1  0.332546  0.665095  0.249308  1
  Sn  Sn16  1  0.998245  0.996490  0.001984  1
  Sb  Sb17  1  0.199457  0.398915  0.749617  1
  Sb  Sb18  1  0.798449  0.204120  0.250544  1
  Sb  Sb19  1  0.405671  0.204120  0.250544  1
  Sb  Sb20  1  0.598200  0.800090  0.749118  1
  Sb  Sb21  1  0.201890  0.800090  0.749118  1
