# generated using pymatgen
data_LiNd9Cd3Ru
_symmetry_space_group_name_H-M   'P 1'
_cell_length_a   9.81254900
_cell_length_b   9.81254900
_cell_length_c   9.88969700
_cell_angle_alpha   90.00000000
_cell_angle_beta   90.00000000
_cell_angle_gamma   119.99999662
_symmetry_Int_Tables_number   1
_chemical_formula_structural   LiNd9Cd3Ru
_chemical_formula_sum   'Li2 Nd18 Cd6 Ru2'
_cell_volume   824.66451861
_cell_formula_units_Z   2
loop_
 _symmetry_equiv_pos_site_id
 _symmetry_equiv_pos_as_xyz
  1  'x, y, z'
loop_
 _atom_site_type_symbol
 _atom_site_label
 _atom_site_symmetry_multiplicity
 _atom_site_fract_x
 _atom_site_fract_y
 _atom_site_fract_z
 _atom_site_occupancy
  Li  Li0  1  0.000000  0.000000  0.500000  1
  Li  Li1  1  0.000000  0.000000  0.000000  1
  Nd  Nd2  1  0.206922  0.793078  0.439908  1
  Nd  Nd3  1  0.206922  0.413846  0.439908  1
  Nd  Nd4  1  0.586154  0.793078  0.439908  1
  Nd  Nd5  1  0.793078  0.206922  0.560092  1
  Nd  Nd6  1  0.793078  0.586154  0.560092  1
  Nd  Nd7  1  0.413846  0.206922  0.560092  1
  Nd  Nd8  1  0.793078  0.206922  0.939908  1
  Nd  Nd9  1  0.793078  0.586154  0.939908  1
  Nd  Nd10  1  0.413846  0.206922  0.939908  1
  Nd  Nd11  1  0.206922  0.793078  0.060092  1
  Nd  Nd12  1  0.206922  0.413846  0.060092  1
  Nd  Nd13  1  0.586154  0.793078  0.060092  1
  Nd  Nd14  1  0.541870  0.458130  0.250000  1
  Nd  Nd15  1  0.541870  0.083741  0.250000  1
  Nd  Nd16  1  0.916259  0.458130  0.250000  1
  Nd  Nd17  1  0.458130  0.541870  0.750000  1
  Nd  Nd18  1  0.458130  0.916259  0.750000  1
  Nd  Nd19  1  0.083741  0.541870  0.750000  1
  Cd  Cd20  1  0.894109  0.105891  0.250000  1
  Cd  Cd21  1  0.894109  0.788220  0.250000  1
  Cd  Cd22  1  0.211780  0.105891  0.250000  1
  Cd  Cd23  1  0.105891  0.894109  0.750000  1
  Cd  Cd24  1  0.105891  0.211780  0.750000  1
  Cd  Cd25  1  0.788220  0.894109  0.750000  1
  Ru  Ru26  1  0.333333  0.666667  0.250000  1
  Ru  Ru27  1  0.666667  0.333333  0.750000  1
