# generated using pymatgen
data_Mn4CuNiSe8
_symmetry_space_group_name_H-M   'P 1'
_cell_length_a   7.26959703
_cell_length_b   7.26959589
_cell_length_c   7.26959700
_cell_angle_alpha   59.99999948
_cell_angle_beta   60.00000468
_cell_angle_gamma   59.99999792
_symmetry_Int_Tables_number   1
_chemical_formula_structural   Mn4CuNiSe8
_chemical_formula_sum   'Mn4 Cu1 Ni1 Se8'
_cell_volume   271.65390462
_cell_formula_units_Z   1
loop_
 _symmetry_equiv_pos_site_id
 _symmetry_equiv_pos_as_xyz
  1  'x, y, z'
loop_
 _atom_site_type_symbol
 _atom_site_label
 _atom_site_symmetry_multiplicity
 _atom_site_fract_x
 _atom_site_fract_y
 _atom_site_fract_z
 _atom_site_occupancy
  Mn  Mn0  1  0.128567  0.623811  0.623811  1
  Mn  Mn1  1  0.623811  0.128567  0.623811  1
  Mn  Mn2  1  0.623811  0.623811  0.128567  1
  Mn  Mn3  1  0.623811  0.623811  0.623811  1
  Cu  Cu4  1  0.000000  0.000000  0.000000  1
  Ni  Ni5  1  0.250000  0.250000  0.250000  1
  Se  Se6  1  0.399814  0.866729  0.866729  1
  Se  Se7  1  0.866729  0.399814  0.866729  1
  Se  Se8  1  0.866729  0.866729  0.399814  1
  Se  Se9  1  0.866729  0.866729  0.866729  1
  Se  Se10  1  0.857825  0.380725  0.380725  1
  Se  Se11  1  0.380725  0.857825  0.380725  1
  Se  Se12  1  0.380725  0.380725  0.857825  1
  Se  Se13  1  0.380725  0.380725  0.380725  1
