# generated using pymatgen
data_Ce3Pr5(Si3Pt)4
_symmetry_space_group_name_H-M   'P 1'
_cell_length_a   8.21635700
_cell_length_b   8.21635635
_cell_length_c   8.52194800
_cell_angle_alpha   90.00000000
_cell_angle_beta   90.00000000
_cell_angle_gamma   119.99999055
_symmetry_Int_Tables_number   1
_chemical_formula_structural   Ce3Pr5(Si3Pt)4
_chemical_formula_sum   'Ce3 Pr5 Si12 Pt4'
_cell_volume   498.22798806
_cell_formula_units_Z   1
loop_
 _symmetry_equiv_pos_site_id
 _symmetry_equiv_pos_as_xyz
  1  'x, y, z'
loop_
 _atom_site_type_symbol
 _atom_site_label
 _atom_site_symmetry_multiplicity
 _atom_site_fract_x
 _atom_site_fract_y
 _atom_site_fract_z
 _atom_site_occupancy
  Ce  Ce0  1  0.499817  0.500183  0.750000  1
  Ce  Ce1  1  0.499817  0.999631  0.750000  1
  Ce  Ce2  1  0.000369  0.500183  0.750000  1
  Pr  Pr3  1  0.000000  0.000000  0.250000  1
  Pr  Pr4  1  0.000000  0.000000  0.750000  1
  Pr  Pr5  1  0.500113  0.499887  0.250000  1
  Pr  Pr6  1  0.500113  0.000226  0.250000  1
  Pr  Pr7  1  0.999774  0.499887  0.250000  1
  Si  Si8  1  0.165797  0.834203  0.502506  1
  Si  Si9  1  0.165797  0.331596  0.502506  1
  Si  Si10  1  0.668404  0.834203  0.502506  1
  Si  Si11  1  0.834190  0.165810  0.502949  1
  Si  Si12  1  0.834190  0.668379  0.502949  1
  Si  Si13  1  0.331621  0.165810  0.502949  1
  Si  Si14  1  0.834190  0.165810  0.997051  1
  Si  Si15  1  0.834190  0.668379  0.997051  1
  Si  Si16  1  0.331621  0.165810  0.997051  1
  Si  Si17  1  0.165797  0.834203  0.997494  1
  Si  Si18  1  0.165797  0.331596  0.997494  1
  Si  Si19  1  0.668404  0.834203  0.997494  1
  Pt  Pt20  1  0.333333  0.666667  0.509265  1
  Pt  Pt21  1  0.666667  0.333333  0.509937  1
  Pt  Pt22  1  0.666667  0.333333  0.990063  1
  Pt  Pt23  1  0.333333  0.666667  0.990735  1
