# generated using pymatgen
data_Ho10In8PtRh3
_symmetry_space_group_name_H-M   'P 1'
_cell_length_a   3.61368600
_cell_length_b   8.05739126
_cell_length_c   18.24077654
_cell_angle_alpha   90.02843208
_cell_angle_beta   90.00000000
_cell_angle_gamma   90.00000000
_symmetry_Int_Tables_number   1
_chemical_formula_structural   Ho10In8PtRh3
_chemical_formula_sum   'Ho10 In8 Pt1 Rh3'
_cell_volume   531.11447242
_cell_formula_units_Z   1
loop_
 _symmetry_equiv_pos_site_id
 _symmetry_equiv_pos_as_xyz
  1  'x, y, z'
loop_
 _atom_site_type_symbol
 _atom_site_label
 _atom_site_symmetry_multiplicity
 _atom_site_fract_x
 _atom_site_fract_y
 _atom_site_fract_z
 _atom_site_occupancy
  Ho  Ho0  1  0.000000  0.115248  0.412135  1
  Ho  Ho1  1  0.000000  0.883992  0.588775  1
  Ho  Ho2  1  0.000000  0.384295  0.911097  1
  Ho  Ho3  1  0.000000  0.617451  0.085868  1
  Ho  Ho4  1  0.000000  0.238639  0.221497  1
  Ho  Ho5  1  0.000000  0.755256  0.779070  1
  Ho  Ho6  1  0.000000  0.255036  0.721012  1
  Ho  Ho7  1  0.000000  0.749564  0.280054  1
  Ho  Ho8  1  0.000000  0.000200  0.999891  1
  Ho  Ho9  1  0.000000  0.500352  0.500002  1
  In  In10  1  0.500000  0.423601  0.351309  1
  In  In11  1  0.500000  0.574148  0.650047  1
  In  In12  1  0.500000  0.074260  0.849901  1
  In  In13  1  0.500000  0.926694  0.149844  1
  In  In14  1  0.500000  0.291800  0.066315  1
  In  In15  1  0.500000  0.706869  0.932099  1
  In  In16  1  0.500000  0.206700  0.567706  1
  In  In17  1  0.500000  0.793318  0.432354  1
  Pt  Pt18  1  0.500000  0.523794  0.196526  1
  Rh  Rh19  1  0.500000  0.023077  0.304664  1
  Rh  Rh20  1  0.500000  0.978114  0.695008  1
  Rh  Rh21  1  0.500000  0.477591  0.804828  1
