# generated using pymatgen
data_Dy5ReRuO12
_symmetry_space_group_name_H-M   'P 1'
_cell_length_a   6.85827657
_cell_length_b   6.85827552
_cell_length_c   7.52233692
_cell_angle_alpha   73.80313609
_cell_angle_beta   73.80313837
_cell_angle_gamma   48.87069754
_symmetry_Int_Tables_number   1
_chemical_formula_structural   Dy5ReRuO12
_chemical_formula_sum   'Dy5 Re1 Ru1 O12'
_cell_volume   253.69036755
_cell_formula_units_Z   1
loop_
 _symmetry_equiv_pos_site_id
 _symmetry_equiv_pos_as_xyz
  1  'x, y, z'
loop_
 _atom_site_type_symbol
 _atom_site_label
 _atom_site_symmetry_multiplicity
 _atom_site_fract_x
 _atom_site_fract_y
 _atom_site_fract_z
 _atom_site_occupancy
  Dy  Dy0  1  0.181723  0.212462  0.642333  1
  Dy  Dy1  1  0.180608  0.190714  0.173766  1
  Dy  Dy2  1  0.490128  0.509872  0.500000  1
  Dy  Dy3  1  0.787538  0.818277  0.357667  1
  Dy  Dy4  1  0.809286  0.819392  0.826234  1
  Re  Re5  1  0.297703  0.702297  0.000000  1
  Ru  Ru6  1  0.731935  0.268065  0.000000  1
  O  O7  1  0.411050  0.905205  0.915556  1
  O  O8  1  0.933817  0.413503  0.914652  1
  O  O9  1  0.899648  0.412419  0.422724  1
  O  O10  1  0.391463  0.909890  0.431367  1
  O  O11  1  0.500685  0.503357  0.202447  1
  O  O12  1  0.013750  0.984960  0.175556  1
  O  O13  1  0.015040  0.986250  0.824444  1
  O  O14  1  0.496643  0.499315  0.797553  1
  O  O15  1  0.094795  0.588950  0.084444  1
  O  O16  1  0.586497  0.066183  0.085348  1
  O  O17  1  0.090110  0.608537  0.568633  1
  O  O18  1  0.587581  0.100352  0.577276  1
