# generated using pymatgen
data_Y2Ni3P6Rh7
_symmetry_space_group_name_H-M   'P 1'
_cell_length_a   3.82260700
_cell_length_b   10.75682000
_cell_length_c   12.33400900
_cell_angle_alpha   90.00000000
_cell_angle_beta   90.00000000
_cell_angle_gamma   90.00000000
_symmetry_Int_Tables_number   1
_chemical_formula_structural   Y2Ni3P6Rh7
_chemical_formula_sum   'Y4 Ni6 P12 Rh14'
_cell_volume   507.16329310
_cell_formula_units_Z   2
loop_
 _symmetry_equiv_pos_site_id
 _symmetry_equiv_pos_as_xyz
  1  'x, y, z'
loop_
 _atom_site_type_symbol
 _atom_site_label
 _atom_site_symmetry_multiplicity
 _atom_site_fract_x
 _atom_site_fract_y
 _atom_site_fract_z
 _atom_site_occupancy
  Y  Y0  1  0.250000  0.585900  0.708070  1
  Y  Y1  1  0.250000  0.914100  0.208070  1
  Y  Y2  1  0.750000  0.413574  0.293754  1
  Y  Y3  1  0.750000  0.086426  0.793754  1
  Ni  Ni4  1  0.750000  0.110159  0.303640  1
  Ni  Ni5  1  0.750000  0.389841  0.803640  1
  Ni  Ni6  1  0.250000  0.462078  0.932534  1
  Ni  Ni7  1  0.250000  0.037922  0.432534  1
  Ni  Ni8  1  0.750000  0.531869  0.063201  1
  Ni  Ni9  1  0.750000  0.968131  0.563201  1
  P  P10  1  0.250000  0.415314  0.108396  1
  P  P11  1  0.250000  0.084686  0.608396  1
  P  P12  1  0.750000  0.576083  0.887926  1
  P  P13  1  0.750000  0.923917  0.387926  1
  P  P14  1  0.250000  0.269952  0.874521  1
  P  P15  1  0.250000  0.230048  0.374521  1
  P  P16  1  0.750000  0.726569  0.126306  1
  P  P17  1  0.750000  0.773431  0.626306  1
  P  P18  1  0.250000  0.598966  0.387385  1
  P  P19  1  0.250000  0.901034  0.887385  1
  P  P20  1  0.750000  0.402732  0.617092  1
  P  P21  1  0.750000  0.097268  0.117092  1
  Rh  Rh22  1  0.250000  0.709755  0.980883  1
  Rh  Rh23  1  0.250000  0.790245  0.480883  1
  Rh  Rh24  1  0.750000  0.285255  0.013100  1
  Rh  Rh25  1  0.750000  0.214745  0.513100  1
  Rh  Rh26  1  0.250000  0.409527  0.483138  1
  Rh  Rh27  1  0.250000  0.090473  0.983138  1
  Rh  Rh28  1  0.750000  0.593760  0.519951  1
  Rh  Rh29  1  0.750000  0.906240  0.019951  1
  Rh  Rh30  1  0.250000  0.221668  0.184838  1
  Rh  Rh31  1  0.250000  0.278332  0.684838  1
  Rh  Rh32  1  0.750000  0.772689  0.818895  1
  Rh  Rh33  1  0.750000  0.727311  0.318895  1
  Rh  Rh34  1  0.250000  0.891324  0.696368  1
  Rh  Rh35  1  0.250000  0.608676  0.196368  1
