# generated using pymatgen
data_NaSi2Pd2Pt
_symmetry_space_group_name_H-M   'P 1'
_cell_length_a   6.74544246
_cell_length_b   6.79968271
_cell_length_c   6.74544199
_cell_angle_alpha   129.52839327
_cell_angle_beta   117.02919688
_cell_angle_gamma   84.53389332
_symmetry_Int_Tables_number   1
_chemical_formula_structural   NaSi2Pd2Pt
_chemical_formula_sum   'Na2 Si4 Pd4 Pt2'
_cell_volume   203.92397969
_cell_formula_units_Z   2
loop_
 _symmetry_equiv_pos_site_id
 _symmetry_equiv_pos_as_xyz
  1  'x, y, z'
loop_
 _atom_site_type_symbol
 _atom_site_label
 _atom_site_symmetry_multiplicity
 _atom_site_fract_x
 _atom_site_fract_y
 _atom_site_fract_z
 _atom_site_occupancy
  Na  Na0  1  0.999696  0.956364  0.956669  1
  Na  Na1  1  0.500251  0.019367  0.519117  1
  Si  Si2  1  0.313212  0.382858  0.069646  1
  Si  Si3  1  0.840923  0.279953  0.439030  1
  Si  Si4  1  0.686015  0.756944  0.070928  1
  Si  Si5  1  0.160482  0.600391  0.439909  1
  Pd  Pd6  1  0.048500  0.997587  0.544947  1
  Pd  Pd7  1  0.721702  0.501080  0.222301  1
  Pd  Pd8  1  0.278779  0.501080  0.779377  1
  Pd  Pd9  1  0.452641  0.997587  0.949087  1
  Pt  Pt10  1  0.951807  0.495896  0.949902  1
  Pt  Pt11  1  0.545993  0.495896  0.544089  1
