# generated using pymatgen
data_DyEr9Hg3Ru
_symmetry_space_group_name_H-M   'P 1'
_cell_length_a   9.48884400
_cell_length_b   9.49079470
_cell_length_c   9.66965600
_cell_angle_alpha   90.00000000
_cell_angle_beta   90.00000000
_cell_angle_gamma   119.93039652
_symmetry_Int_Tables_number   1
_chemical_formula_structural   DyEr9Hg3Ru
_chemical_formula_sum   'Dy2 Er18 Hg6 Ru2'
_cell_volume   754.67804555
_cell_formula_units_Z   2
loop_
 _symmetry_equiv_pos_site_id
 _symmetry_equiv_pos_as_xyz
  1  'x, y, z'
loop_
 _atom_site_type_symbol
 _atom_site_label
 _atom_site_symmetry_multiplicity
 _atom_site_fract_x
 _atom_site_fract_y
 _atom_site_fract_z
 _atom_site_occupancy
  Dy  Dy0  1  0.459227  0.918236  0.750000  1
  Dy  Dy1  1  0.081786  0.540808  0.750000  1
  Er  Er2  1  0.999890  0.000070  0.499814  1
  Er  Er3  1  0.999890  0.000070  0.000186  1
  Er  Er4  1  0.209229  0.790765  0.439620  1
  Er  Er5  1  0.209713  0.418624  0.439926  1
  Er  Er6  1  0.581313  0.790267  0.439947  1
  Er  Er7  1  0.790445  0.209611  0.559213  1
  Er  Er8  1  0.790097  0.581143  0.559405  1
  Er  Er9  1  0.418888  0.209929  0.559413  1
  Er  Er10  1  0.790445  0.209611  0.940787  1
  Er  Er11  1  0.790097  0.581143  0.940595  1
  Er  Er12  1  0.418888  0.209929  0.940587  1
  Er  Er13  1  0.209229  0.790765  0.060380  1
  Er  Er14  1  0.209713  0.418624  0.060074  1
  Er  Er15  1  0.581313  0.790267  0.060053  1
  Er  Er16  1  0.541138  0.458852  0.250000  1
  Er  Er17  1  0.541104  0.081892  0.250000  1
  Er  Er18  1  0.918047  0.458853  0.250000  1
  Er  Er19  1  0.459705  0.540443  0.750000  1
  Hg  Hg20  1  0.881534  0.118689  0.250000  1
  Hg  Hg21  1  0.881040  0.762881  0.250000  1
  Hg  Hg22  1  0.237114  0.119073  0.250000  1
  Hg  Hg23  1  0.117485  0.882286  0.750000  1
  Hg  Hg24  1  0.119203  0.236223  0.750000  1
  Hg  Hg25  1  0.763741  0.880665  0.750000  1
  Ru  Ru26  1  0.333256  0.666868  0.250000  1
  Ru  Ru27  1  0.666467  0.333413  0.750000  1
