# generated using pymatgen
data_Er4Al4Pd3Ru
_symmetry_space_group_name_H-M   'P 1'
_cell_length_a   4.31894800
_cell_length_b   6.85859335
_cell_length_c   7.87323448
_cell_angle_alpha   90.09286834
_cell_angle_beta   90.00000000
_cell_angle_gamma   90.00000000
_symmetry_Int_Tables_number   1
_chemical_formula_structural   Er4Al4Pd3Ru
_chemical_formula_sum   'Er4 Al4 Pd3 Ru1'
_cell_volume   233.21992120
_cell_formula_units_Z   1
loop_
 _symmetry_equiv_pos_site_id
 _symmetry_equiv_pos_as_xyz
  1  'x, y, z'
loop_
 _atom_site_type_symbol
 _atom_site_label
 _atom_site_symmetry_multiplicity
 _atom_site_fract_x
 _atom_site_fract_y
 _atom_site_fract_z
 _atom_site_occupancy
  Er  Er0  1  0.250000  0.036104  0.323012  1
  Er  Er1  1  0.250000  0.531275  0.180272  1
  Er  Er2  1  0.750000  0.978504  0.677948  1
  Er  Er3  1  0.750000  0.463609  0.815839  1
  Al  Al4  1  0.250000  0.144068  0.937382  1
  Al  Al5  1  0.250000  0.635795  0.561650  1
  Al  Al6  1  0.750000  0.858061  0.060363  1
  Al  Al7  1  0.750000  0.356562  0.442240  1
  Pd  Pd8  1  0.250000  0.771009  0.879840  1
  Pd  Pd9  1  0.750000  0.730710  0.377484  1
  Pd  Pd10  1  0.750000  0.230905  0.122633  1
  Ru  Ru11  1  0.250000  0.263398  0.621338  1
