# generated using pymatgen
data_Dy4Ho3Er3Ru4
_symmetry_space_group_name_H-M   'P 1'
_cell_length_a   6.31911554
_cell_length_b   7.24991633
_cell_length_c   8.44104895
_cell_angle_alpha   96.74412686
_cell_angle_beta   112.05267884
_cell_angle_gamma   89.88181918
_symmetry_Int_Tables_number   1
_chemical_formula_structural   Dy4Ho3Er3Ru4
_chemical_formula_sum   'Dy4 Ho3 Er3 Ru4'
_cell_volume   355.56682274
_cell_formula_units_Z   1
loop_
 _symmetry_equiv_pos_site_id
 _symmetry_equiv_pos_as_xyz
  1  'x, y, z'
loop_
 _atom_site_type_symbol
 _atom_site_label
 _atom_site_symmetry_multiplicity
 _atom_site_fract_x
 _atom_site_fract_y
 _atom_site_fract_z
 _atom_site_occupancy
  Dy  Dy0  1  0.790797  0.583847  0.812928  1
  Dy  Dy1  1  0.977623  0.916030  0.186900  1
  Dy  Dy2  1  0.209002  0.415983  0.187103  1
  Dy  Dy3  1  0.022651  0.084203  0.813099  1
  Ho  Ho4  1  0.205915  0.685119  0.565967  1
  Ho  Ho5  1  0.640049  0.815238  0.434462  1
  Ho  Ho6  1  0.794376  0.314838  0.434153  1
  Er  Er7  1  0.359954  0.184632  0.565760  1
  Er  Er8  1  0.420223  0.749573  0.999770  1
  Er  Er9  1  0.579554  0.250331  0.999878  1
  Ru  Ru10  1  0.601771  0.924879  0.779340  1
  Ru  Ru11  1  0.822349  0.576352  0.220270  1
  Ru  Ru12  1  0.397938  0.075489  0.220849  1
  Ru  Ru13  1  0.177799  0.423485  0.779520  1
