# generated using pymatgen
data_Sr2Ca(GdSn2)2
_symmetry_space_group_name_H-M   'P 1'
_cell_length_a   8.44800800
_cell_length_b   8.85133600
_cell_length_c   16.63918300
_cell_angle_alpha   90.00000000
_cell_angle_beta   90.00000000
_cell_angle_gamma   90.00000000
_symmetry_Int_Tables_number   1
_chemical_formula_structural   Sr2Ca(GdSn2)2
_chemical_formula_sum   'Sr8 Ca4 Gd8 Sn16'
_cell_volume   1244.21416600
_cell_formula_units_Z   4
loop_
 _symmetry_equiv_pos_site_id
 _symmetry_equiv_pos_as_xyz
  1  'x, y, z'
loop_
 _atom_site_type_symbol
 _atom_site_label
 _atom_site_symmetry_multiplicity
 _atom_site_fract_x
 _atom_site_fract_y
 _atom_site_fract_z
 _atom_site_occupancy
  Sr  Sr0  1  0.493249  0.317274  0.905116  1
  Sr  Sr1  1  0.993249  0.182726  0.594884  1
  Sr  Sr2  1  0.506751  0.682726  0.405116  1
  Sr  Sr3  1  0.006751  0.817274  0.094884  1
  Sr  Sr4  1  0.506751  0.682726  0.094884  1
  Sr  Sr5  1  0.006751  0.817274  0.405116  1
  Sr  Sr6  1  0.493249  0.317274  0.594884  1
  Sr  Sr7  1  0.993249  0.182726  0.905116  1
  Ca  Ca8  1  0.165659  0.494649  0.750000  1
  Ca  Ca9  1  0.665659  0.005351  0.750000  1
  Ca  Ca10  1  0.834341  0.505351  0.250000  1
  Ca  Ca11  1  0.334341  0.994649  0.250000  1
  Gd  Gd12  1  0.328478  0.830895  0.877686  1
  Gd  Gd13  1  0.828478  0.669105  0.622314  1
  Gd  Gd14  1  0.671522  0.169105  0.377686  1
  Gd  Gd15  1  0.171522  0.330895  0.122314  1
  Gd  Gd16  1  0.671522  0.169105  0.122314  1
  Gd  Gd17  1  0.171522  0.330895  0.377686  1
  Gd  Gd18  1  0.328478  0.830895  0.622314  1
  Gd  Gd19  1  0.828478  0.669105  0.877686  1
  Sn  Sn20  1  0.340800  0.041252  0.040415  1
  Sn  Sn21  1  0.840800  0.458748  0.459585  1
  Sn  Sn22  1  0.659200  0.958748  0.540415  1
  Sn  Sn23  1  0.159200  0.541252  0.959585  1
  Sn  Sn24  1  0.659200  0.958748  0.959585  1
  Sn  Sn25  1  0.159200  0.541252  0.540415  1
  Sn  Sn26  1  0.340800  0.041252  0.459585  1
  Sn  Sn27  1  0.840800  0.458748  0.040415  1
  Sn  Sn28  1  0.534838  0.625407  0.750000  1
  Sn  Sn29  1  0.034838  0.874593  0.750000  1
  Sn  Sn30  1  0.465162  0.374593  0.250000  1
  Sn  Sn31  1  0.965162  0.125407  0.250000  1
  Sn  Sn32  1  0.286368  0.114176  0.750000  1
  Sn  Sn33  1  0.786368  0.385824  0.750000  1
  Sn  Sn34  1  0.713632  0.885824  0.250000  1
  Sn  Sn35  1  0.213632  0.614176  0.250000  1
