# generated using pymatgen
data_Tb4ThAl2Ru3
_symmetry_space_group_name_H-M   'P 1'
_cell_length_a   8.43778534
_cell_length_b   8.42704935
_cell_length_c   8.41457000
_cell_angle_alpha   109.84484393
_cell_angle_beta   109.49109936
_cell_angle_gamma   109.40366179
_symmetry_Int_Tables_number   1
_chemical_formula_structural   Tb4ThAl2Ru3
_chemical_formula_sum   'Tb8 Th2 Al4 Ru6'
_cell_volume   458.72168800
_cell_formula_units_Z   2
loop_
 _symmetry_equiv_pos_site_id
 _symmetry_equiv_pos_as_xyz
  1  'x, y, z'
loop_
 _atom_site_type_symbol
 _atom_site_label
 _atom_site_symmetry_multiplicity
 _atom_site_fract_x
 _atom_site_fract_y
 _atom_site_fract_z
 _atom_site_occupancy
  Tb  Tb0  1  0.782653  0.785051  0.780328  1
  Tb  Tb1  1  0.317581  0.566729  0.751656  1
  Tb  Tb2  1  0.748792  0.315380  0.567043  1
  Tb  Tb3  1  0.567061  0.747703  0.313678  1
  Tb  Tb4  1  0.716170  0.500831  0.997286  1
  Tb  Tb5  1  0.999032  0.717998  0.504904  1
  Tb  Tb6  1  0.499341  0.994021  0.714519  1
  Tb  Tb7  1  0.252933  0.186818  0.932977  1
  Th  Th8  1  0.940151  0.252609  0.192628  1
  Th  Th9  1  0.189516  0.937928  0.250201  1
  Al  Al10  1  0.416862  0.413041  0.410497  1
  Al  Al11  1  0.092596  0.494066  0.994764  1
  Al  Al12  1  0.997311  0.092691  0.505667  1
  Al  Al13  1  0.500250  0.004377  0.092270  1
  Ru  Ru14  1  0.871716  0.121960  0.749997  1
  Ru  Ru15  1  0.755283  0.892010  0.125445  1
  Ru  Ru16  1  0.127257  0.755894  0.894074  1
  Ru  Ru17  1  0.235364  0.608640  0.365357  1
  Ru  Ru18  1  0.361919  0.233654  0.606714  1
  Ru  Ru19  1  0.628212  0.378600  0.249992  1
