# generated using pymatgen
data_Li3Y5Co12(NiP3)4
_symmetry_space_group_name_H-M   'P 1'
_cell_length_a   12.24887200
_cell_length_b   12.24887086
_cell_length_c   3.73735000
_cell_angle_alpha   90.00000000
_cell_angle_beta   90.00000000
_cell_angle_gamma   120.00000309
_symmetry_Int_Tables_number   1
_chemical_formula_structural   Li3Y5Co12(NiP3)4
_chemical_formula_sum   'Li3 Y5 Co12 Ni4 P12'
_cell_volume   485.60879235
_cell_formula_units_Z   1
loop_
 _symmetry_equiv_pos_site_id
 _symmetry_equiv_pos_as_xyz
  1  'x, y, z'
loop_
 _atom_site_type_symbol
 _atom_site_label
 _atom_site_symmetry_multiplicity
 _atom_site_fract_x
 _atom_site_fract_y
 _atom_site_fract_z
 _atom_site_occupancy
  Li  Li0  1  0.559494  0.561578  0.000000  1
  Li  Li1  1  0.438422  0.997915  0.000000  1
  Li  Li2  1  0.002085  0.440506  0.000000  1
  Y  Y3  1  0.190124  0.189519  0.500000  1
  Y  Y4  1  0.810481  0.000605  0.500000  1
  Y  Y5  1  0.999395  0.809876  0.500000  1
  Y  Y6  1  0.333333  0.666667  0.000000  1
  Y  Y7  1  0.666667  0.333333  0.000000  1
  Co  Co8  1  0.717804  0.717971  0.500000  1
  Co  Co9  1  0.282029  0.999833  0.500000  1
  Co  Co10  1  0.000167  0.282196  0.500000  1
  Co  Co11  1  0.176962  0.376787  0.000000  1
  Co  Co12  1  0.623213  0.800176  0.000000  1
  Co  Co13  1  0.199824  0.823038  0.000000  1
  Co  Co14  1  0.801310  0.623384  0.000000  1
  Co  Co15  1  0.822075  0.198690  0.000000  1
  Co  Co16  1  0.376616  0.177925  0.000000  1
  Co  Co17  1  0.355756  0.481468  0.500000  1
  Co  Co18  1  0.518532  0.874289  0.500000  1
  Co  Co19  1  0.125711  0.644244  0.500000  1
  Ni  Ni20  1  0.875822  0.517308  0.500000  1
  Ni  Ni21  1  0.641486  0.124178  0.500000  1
  Ni  Ni22  1  0.482692  0.358514  0.500000  1
  Ni  Ni23  1  0.000000  0.000000  0.000000  1
  P  P24  1  0.817545  0.817596  0.000000  1
  P  P25  1  0.182404  0.999949  0.000000  1
  P  P26  1  0.000051  0.182455  0.000000  1
  P  P27  1  0.168342  0.479221  0.500000  1
  P  P28  1  0.520779  0.689121  0.500000  1
  P  P29  1  0.310879  0.831658  0.500000  1
  P  P30  1  0.693807  0.524812  0.500000  1
  P  P31  1  0.831004  0.306193  0.500000  1
  P  P32  1  0.475188  0.168996  0.500000  1
  P  P33  1  0.362702  0.369403  0.000000  1
  P  P34  1  0.630597  0.993298  0.000000  1
  P  P35  1  0.006702  0.637298  0.000000  1
