# generated using pymatgen
data_Ba3TlPb8
_symmetry_space_group_name_H-M   'P 1'
_cell_length_a   9.52429934
_cell_length_b   9.50154360
_cell_length_c   9.52429900
_cell_angle_alpha   46.42283791
_cell_angle_beta   46.13211401
_cell_angle_gamma   46.42284303
_symmetry_Int_Tables_number   1
_chemical_formula_structural   Ba3TlPb8
_chemical_formula_sum   'Ba3 Tl1 Pb8'
_cell_volume   411.54871417
_cell_formula_units_Z   1
loop_
 _symmetry_equiv_pos_site_id
 _symmetry_equiv_pos_as_xyz
  1  'x, y, z'
loop_
 _atom_site_type_symbol
 _atom_site_label
 _atom_site_symmetry_multiplicity
 _atom_site_fract_x
 _atom_site_fract_y
 _atom_site_fract_z
 _atom_site_occupancy
  Ba  Ba0  1  0.783538  0.784175  0.783538  1
  Ba  Ba1  1  0.217589  0.213156  0.217589  1
  Ba  Ba2  1  0.002170  0.998090  0.002170  1
  Tl  Tl3  1  0.294232  0.742688  0.294232  1
  Pb  Pb4  1  0.734634  0.299113  0.298213  1
  Pb  Pb5  1  0.298213  0.299113  0.734634  1
  Pb  Pb6  1  0.501131  0.499425  0.998710  1
  Pb  Pb7  1  0.500554  0.998562  0.500554  1
  Pb  Pb8  1  0.998710  0.499425  0.501131  1
  Pb  Pb9  1  0.702893  0.264672  0.702893  1
  Pb  Pb10  1  0.703307  0.700791  0.263029  1
  Pb  Pb11  1  0.263029  0.700791  0.703307  1
