# generated using pymatgen
data_Lu5ZnAg4
_symmetry_space_group_name_H-M   'P 1'
_cell_length_a   3.56711000
_cell_length_b   3.56711000
_cell_length_c   17.57571400
_cell_angle_alpha   90.00000000
_cell_angle_beta   90.00000000
_cell_angle_gamma   90.00000000
_symmetry_Int_Tables_number   1
_chemical_formula_structural   Lu5ZnAg4
_chemical_formula_sum   'Lu5 Zn1 Ag4'
_cell_volume   223.63819632
_cell_formula_units_Z   1
loop_
 _symmetry_equiv_pos_site_id
 _symmetry_equiv_pos_as_xyz
  1  'x, y, z'
loop_
 _atom_site_type_symbol
 _atom_site_label
 _atom_site_symmetry_multiplicity
 _atom_site_fract_x
 _atom_site_fract_y
 _atom_site_fract_z
 _atom_site_occupancy
  Lu  Lu0  1  0.500000  0.500000  0.099218  1
  Lu  Lu1  1  0.500000  0.500000  0.302446  1
  Lu  Lu2  1  0.500000  0.500000  0.500000  1
  Lu  Lu3  1  0.500000  0.500000  0.697554  1
  Lu  Lu4  1  0.500000  0.500000  0.900782  1
  Zn  Zn5  1  0.000000  0.000000  0.000000  1
  Ag  Ag6  1  0.000000  0.000000  0.202313  1
  Ag  Ag7  1  0.000000  0.000000  0.401497  1
  Ag  Ag8  1  0.000000  0.000000  0.598503  1
  Ag  Ag9  1  0.000000  0.000000  0.797687  1
