# generated using pymatgen
data_Lu12Ni4BiRu
_symmetry_space_group_name_H-M   'P 1'
_cell_length_a   8.15375027
_cell_length_b   8.15375164
_cell_length_c   8.15374947
_cell_angle_alpha   111.47903021
_cell_angle_beta   110.77177277
_cell_angle_gamma   106.21202950
_symmetry_Int_Tables_number   1
_chemical_formula_structural   Lu12Ni4BiRu
_chemical_formula_sum   'Lu12 Ni4 Bi1 Ru1'
_cell_volume   416.27976113
_cell_formula_units_Z   1
loop_
 _symmetry_equiv_pos_site_id
 _symmetry_equiv_pos_as_xyz
  1  'x, y, z'
loop_
 _atom_site_type_symbol
 _atom_site_label
 _atom_site_symmetry_multiplicity
 _atom_site_fract_x
 _atom_site_fract_y
 _atom_site_fract_z
 _atom_site_occupancy
  Lu  Lu0  1  0.411230  0.217563  0.193668  1
  Lu  Lu1  1  0.588770  0.782437  0.806332  1
  Lu  Lu2  1  0.023895  0.217563  0.806332  1
  Lu  Lu3  1  0.976105  0.782437  0.193668  1
  Lu  Lu4  1  0.179437  0.282550  0.461987  1
  Lu  Lu5  1  0.820563  0.717450  0.538013  1
  Lu  Lu6  1  0.179437  0.717450  0.896886  1
  Lu  Lu7  1  0.820563  0.282550  0.103114  1
  Lu  Lu8  1  0.318239  0.626414  0.308175  1
  Lu  Lu9  1  0.681761  0.373586  0.691825  1
  Lu  Lu10  1  0.318239  0.010063  0.691825  1
  Lu  Lu11  1  0.681761  0.989937  0.308175  1
  Ni  Ni12  1  0.357905  0.000000  0.357905  1
  Ni  Ni13  1  0.642095  0.000000  0.642095  1
  Ni  Ni14  1  0.121717  0.621717  0.500000  1
  Ni  Ni15  1  0.878283  0.378283  0.500000  1
  Bi  Bi16  1  0.500000  0.500000  0.000000  1
  Ru  Ru17  1  0.000000  0.000000  0.000000  1
