# generated using pymatgen
data_Lu5Zr5Sb6
_symmetry_space_group_name_H-M   'P 1'
_cell_length_a   8.65781292
_cell_length_b   8.71213418
_cell_length_c   5.90503000
_cell_angle_alpha   90.00000000
_cell_angle_beta   90.00000000
_cell_angle_gamma   120.20776695
_symmetry_Int_Tables_number   1
_chemical_formula_structural   Lu5Zr5Sb6
_chemical_formula_sum   'Lu5 Zr5 Sb6'
_cell_volume   384.92174209
_cell_formula_units_Z   1
loop_
 _symmetry_equiv_pos_site_id
 _symmetry_equiv_pos_as_xyz
  1  'x, y, z'
loop_
 _atom_site_type_symbol
 _atom_site_label
 _atom_site_symmetry_multiplicity
 _atom_site_fract_x
 _atom_site_fract_y
 _atom_site_fract_z
 _atom_site_occupancy
  Lu  Lu0  1  0.751972  0.751464  0.750000  1
  Lu  Lu1  1  0.248028  0.999492  0.750000  1
  Lu  Lu2  1  0.000000  0.253352  0.750000  1
  Lu  Lu3  1  0.250815  0.250323  0.250000  1
  Lu  Lu4  1  0.749185  0.999509  0.250000  1
  Zr  Zr5  1  0.000000  0.738318  0.250000  1
  Zr  Zr6  1  0.667022  0.334929  0.000728  1
  Zr  Zr7  1  0.332978  0.667908  0.000728  1
  Zr  Zr8  1  0.332978  0.667908  0.499272  1
  Zr  Zr9  1  0.667022  0.334929  0.499272  1
  Sb  Sb10  1  0.390316  0.390711  0.750000  1
  Sb  Sb11  1  0.609684  0.000395  0.750000  1
  Sb  Sb12  1  0.000000  0.610097  0.750000  1
  Sb  Sb13  1  0.613445  0.612040  0.250000  1
  Sb  Sb14  1  0.386555  0.998595  0.250000  1
  Sb  Sb15  1  0.000000  0.390031  0.250000  1
