# generated using pymatgen
data_Pr3Nd3Hg10
_symmetry_space_group_name_H-M   'P 1'
_cell_length_a   6.55526626
_cell_length_b   6.55526657
_cell_length_c   10.63904800
_cell_angle_alpha   89.99905630
_cell_angle_beta   89.99905427
_cell_angle_gamma   105.84829378
_symmetry_Int_Tables_number   1
_chemical_formula_structural   Pr3Nd3Hg10
_chemical_formula_sum   'Pr3 Nd3 Hg10'
_cell_volume   439.79793282
_cell_formula_units_Z   1
loop_
 _symmetry_equiv_pos_site_id
 _symmetry_equiv_pos_as_xyz
  1  'x, y, z'
loop_
 _atom_site_type_symbol
 _atom_site_label
 _atom_site_symmetry_multiplicity
 _atom_site_fract_x
 _atom_site_fract_y
 _atom_site_fract_z
 _atom_site_occupancy
  Pr  Pr0  1  0.203545  0.796455  0.500000  1
  Pr  Pr1  1  0.203544  0.796456  0.000000  1
  Pr  Pr2  1  0.796468  0.203532  0.500000  1
  Nd  Nd3  1  0.590571  0.590467  0.249970  1
  Nd  Nd4  1  0.409533  0.409429  0.750030  1
  Nd  Nd5  1  0.796459  0.203541  0.000000  1
  Hg  Hg6  1  0.997339  0.997441  0.249941  1
  Hg  Hg7  1  0.002559  0.002661  0.750059  1
  Hg  Hg8  1  0.302938  0.302974  0.033972  1
  Hg  Hg9  1  0.697026  0.697062  0.966028  1
  Hg  Hg10  1  0.303049  0.303041  0.465986  1
  Hg  Hg11  1  0.696959  0.696951  0.534014  1
  Hg  Hg12  1  0.487348  0.050329  0.249921  1
  Hg  Hg13  1  0.949671  0.512652  0.750079  1
  Hg  Hg14  1  0.512840  0.949850  0.750070  1
  Hg  Hg15  1  0.050150  0.487160  0.249930  1
