# generated using pymatgen
data_Tm8Nb7Si16W5
_symmetry_space_group_name_H-M   'P 1'
_cell_length_a   6.93246580
_cell_length_b   6.93608931
_cell_length_c   12.88017746
_cell_angle_alpha   89.88907670
_cell_angle_beta   89.92758072
_cell_angle_gamma   90.01482257
_symmetry_Int_Tables_number   1
_chemical_formula_structural   Tm8Nb7Si16W5
_chemical_formula_sum   'Tm8 Nb7 Si16 W5'
_cell_volume   619.33137782
_cell_formula_units_Z   1
loop_
 _symmetry_equiv_pos_site_id
 _symmetry_equiv_pos_as_xyz
  1  'x, y, z'
loop_
 _atom_site_type_symbol
 _atom_site_label
 _atom_site_symmetry_multiplicity
 _atom_site_fract_x
 _atom_site_fract_y
 _atom_site_fract_z
 _atom_site_occupancy
  Tm  Tm0  1  0.999988  0.338362  0.219279  1
  Tm  Tm1  1  0.000424  0.661793  0.717341  1
  Tm  Tm2  1  0.161264  0.500324  0.468194  1
  Tm  Tm3  1  0.499335  0.839148  0.032535  1
  Tm  Tm4  1  0.838564  0.500245  0.968201  1
  Tm  Tm5  1  0.500023  0.160791  0.531081  1
  Tm  Tm6  1  0.338766  0.000244  0.781797  1
  Tm  Tm7  1  0.661894  0.999702  0.281839  1
  Nb  Nb8  1  0.845558  0.005556  0.874612  1
  Nb  Nb9  1  0.504488  0.655977  0.623708  1
  Nb  Nb10  1  0.345643  0.494969  0.875156  1
  Nb  Nb11  1  0.492761  0.344685  0.125775  1
  Nb  Nb12  1  0.654885  0.504704  0.375363  1
  Nb  Nb13  1  0.995622  0.154624  0.624759  1
  Nb  Nb14  1  0.004832  0.845771  0.125614  1
  Si  Si15  1  0.294923  0.040324  0.186926  1
  Si  Si16  1  0.703870  0.958366  0.684858  1
  Si  Si17  1  0.454866  0.796436  0.433643  1
  Si  Si18  1  0.202831  0.542229  0.065076  1
  Si  Si19  1  0.541794  0.203565  0.935066  1
  Si  Si20  1  0.795865  0.457767  0.565070  1
  Si  Si21  1  0.042181  0.296548  0.814996  1
  Si  Si22  1  0.960787  0.707220  0.315455  1
  Si  Si23  1  0.368235  0.292806  0.319191  1
  Si  Si24  1  0.632454  0.703366  0.817435  1
  Si  Si25  1  0.201743  0.868573  0.565568  1
  Si  Si26  1  0.132722  0.797364  0.932388  1
  Si  Si27  1  0.797032  0.133348  0.067865  1
  Si  Si28  1  0.870944  0.200075  0.431515  1
  Si  Si29  1  0.297613  0.367616  0.682074  1
  Si  Si30  1  0.703004  0.631423  0.182677  1
  W  W31  1  0.169314  0.169622  0.000755  1
  W  W32  1  0.830379  0.831486  0.499602  1
  W  W33  1  0.329615  0.668573  0.250200  1
  W  W34  1  0.669630  0.330780  0.749738  1
  W  W35  1  0.156150  0.995619  0.374652  1
