# generated using pymatgen
data_Ba6PrEr(BO3)6
_symmetry_space_group_name_H-M   'P 1'
_cell_length_a   8.29084753
_cell_length_b   8.29084791
_cell_length_c   8.29084639
_cell_angle_alpha   105.63856643
_cell_angle_beta   105.63857873
_cell_angle_gamma   105.63857874
_symmetry_Int_Tables_number   1
_chemical_formula_structural   Ba6PrEr(BO3)6
_chemical_formula_sum   'Ba6 Pr1 Er1 B6 O18'
_cell_volume   491.17808033
_cell_formula_units_Z   1
loop_
 _symmetry_equiv_pos_site_id
 _symmetry_equiv_pos_as_xyz
  1  'x, y, z'
loop_
 _atom_site_type_symbol
 _atom_site_label
 _atom_site_symmetry_multiplicity
 _atom_site_fract_x
 _atom_site_fract_y
 _atom_site_fract_z
 _atom_site_occupancy
  Ba  Ba0  1  0.355274  0.731044  0.846256  1
  Ba  Ba1  1  0.846256  0.355274  0.731044  1
  Ba  Ba2  1  0.731044  0.846256  0.355274  1
  Ba  Ba3  1  0.644726  0.268956  0.153744  1
  Ba  Ba4  1  0.153744  0.644726  0.268956  1
  Ba  Ba5  1  0.268956  0.153744  0.644726  1
  Pr  Pr6  1  0.000000  0.000000  0.000000  1
  Er  Er7  1  0.500000  0.500000  0.500000  1
  B  B8  1  0.707261  0.615284  0.952957  1
  B  B9  1  0.952957  0.707261  0.615284  1
  B  B10  1  0.615284  0.952957  0.707261  1
  B  B11  1  0.047043  0.292739  0.384716  1
  B  B12  1  0.384716  0.047043  0.292739  1
  B  B13  1  0.292739  0.384716  0.047043  1
  O  O14  1  0.051118  0.804315  0.539409  1
  O  O15  1  0.539409  0.051118  0.804315  1
  O  O16  1  0.427112  0.492806  0.217403  1
  O  O17  1  0.492806  0.217403  0.427112  1
  O  O18  1  0.217403  0.427112  0.492806  1
  O  O19  1  0.782597  0.572888  0.507194  1
  O  O20  1  0.572888  0.507194  0.782597  1
  O  O21  1  0.507194  0.782597  0.572888  1
  O  O22  1  0.262608  0.200841  0.980045  1
  O  O23  1  0.200841  0.980045  0.262608  1
  O  O24  1  0.980045  0.262608  0.200841  1
  O  O25  1  0.737392  0.799159  0.019955  1
  O  O26  1  0.799159  0.019955  0.737392  1
  O  O27  1  0.019955  0.737392  0.799159  1
  O  O28  1  0.195685  0.460591  0.948882  1
  O  O29  1  0.460591  0.948882  0.195685  1
  O  O30  1  0.948882  0.195685  0.460591  1
  O  O31  1  0.804315  0.539409  0.051118  1
