# generated using pymatgen
data_Sr2Ni2Ir5
_symmetry_space_group_name_H-M   'P 1'
_cell_length_a   5.35201400
_cell_length_b   5.35201256
_cell_length_c   25.25380100
_cell_angle_alpha   90.00000000
_cell_angle_beta   90.00000000
_cell_angle_gamma   119.99999654
_symmetry_Int_Tables_number   1
_chemical_formula_structural   Sr2Ni2Ir5
_chemical_formula_sum   'Sr8 Ni8 Ir20'
_cell_volume   626.45771997
_cell_formula_units_Z   4
loop_
 _symmetry_equiv_pos_site_id
 _symmetry_equiv_pos_as_xyz
  1  'x, y, z'
loop_
 _atom_site_type_symbol
 _atom_site_label
 _atom_site_symmetry_multiplicity
 _atom_site_fract_x
 _atom_site_fract_y
 _atom_site_fract_z
 _atom_site_occupancy
  Sr  Sr0  1  0.333333  0.666667  0.473492  1
  Sr  Sr1  1  0.666667  0.333333  0.526508  1
  Sr  Sr2  1  0.666667  0.333333  0.973492  1
  Sr  Sr3  1  0.333333  0.666667  0.026508  1
  Sr  Sr4  1  0.333333  0.666667  0.327403  1
  Sr  Sr5  1  0.666667  0.333333  0.672597  1
  Sr  Sr6  1  0.666667  0.333333  0.827403  1
  Sr  Sr7  1  0.333333  0.666667  0.172597  1
  Ni  Ni8  1  0.000000  0.000000  0.329922  1
  Ni  Ni9  1  0.000000  0.000000  0.670078  1
  Ni  Ni10  1  0.000000  0.000000  0.829922  1
  Ni  Ni11  1  0.000000  0.000000  0.170078  1
  Ni  Ni12  1  0.333333  0.666667  0.669767  1
  Ni  Ni13  1  0.666667  0.333333  0.330233  1
  Ni  Ni14  1  0.666667  0.333333  0.169767  1
  Ni  Ni15  1  0.333333  0.666667  0.830233  1
  Ir  Ir16  1  0.000000  0.000000  0.500000  1
  Ir  Ir17  1  0.000000  0.000000  0.000000  1
  Ir  Ir18  1  0.833128  0.166872  0.250000  1
  Ir  Ir19  1  0.833128  0.666256  0.250000  1
  Ir  Ir20  1  0.333744  0.166872  0.250000  1
  Ir  Ir21  1  0.166872  0.833128  0.750000  1
  Ir  Ir22  1  0.166872  0.333744  0.750000  1
  Ir  Ir23  1  0.666256  0.833128  0.750000  1
  Ir  Ir24  1  0.832923  0.167077  0.409846  1
  Ir  Ir25  1  0.832923  0.665846  0.409846  1
  Ir  Ir26  1  0.334154  0.167077  0.409846  1
  Ir  Ir27  1  0.167077  0.832923  0.590154  1
  Ir  Ir28  1  0.167077  0.334154  0.590154  1
  Ir  Ir29  1  0.665846  0.832923  0.590154  1
  Ir  Ir30  1  0.167077  0.832923  0.909846  1
  Ir  Ir31  1  0.167077  0.334154  0.909846  1
  Ir  Ir32  1  0.665846  0.832923  0.909846  1
  Ir  Ir33  1  0.832923  0.167077  0.090154  1
  Ir  Ir34  1  0.832923  0.665846  0.090154  1
  Ir  Ir35  1  0.334154  0.167077  0.090154  1
