# generated using pymatgen
data_Sr8Cd3Si12Ir
_symmetry_space_group_name_H-M   'P 1'
_cell_length_a   11.96706456
_cell_length_b   10.33668749
_cell_length_c   8.48589176
_cell_angle_alpha   78.27950941
_cell_angle_beta   57.70230986
_cell_angle_gamma   44.19852439
_symmetry_Int_Tables_number   1
_chemical_formula_structural   Sr8Cd3Si12Ir
_chemical_formula_sum   'Sr8 Cd3 Si12 Ir1'
_cell_volume   589.03551879
_cell_formula_units_Z   1
loop_
 _symmetry_equiv_pos_site_id
 _symmetry_equiv_pos_as_xyz
  1  'x, y, z'
loop_
 _atom_site_type_symbol
 _atom_site_label
 _atom_site_symmetry_multiplicity
 _atom_site_fract_x
 _atom_site_fract_y
 _atom_site_fract_z
 _atom_site_occupancy
  Sr  Sr0  1  0.135554  0.119850  0.859541  1
  Sr  Sr1  1  0.859522  0.885075  0.134738  1
  Sr  Sr2  1  0.138768  0.121953  0.372130  1
  Sr  Sr3  1  0.374360  0.365926  0.136557  1
  Sr  Sr4  1  0.616147  0.636769  0.377713  1
  Sr  Sr5  1  0.378120  0.368467  0.615943  1
  Sr  Sr6  1  0.629845  0.627627  0.871204  1
  Sr  Sr7  1  0.869766  0.871782  0.630926  1
  Cd  Cd8  1  0.082647  0.417369  0.083115  1
  Cd  Cd9  1  0.833069  0.168397  0.830947  1
  Cd  Cd10  1  0.166046  0.833777  0.167038  1
  Si  Si11  1  0.908606  0.596448  0.435812  1
  Si  Si12  1  0.088867  0.402223  0.584642  1
  Si  Si13  1  0.434909  0.059322  0.908994  1
  Si  Si14  1  0.583846  0.923994  0.089465  1
  Si  Si15  1  0.337651  0.654603  0.820289  1
  Si  Si16  1  0.660446  0.344466  0.180524  1
  Si  Si17  1  0.822921  0.185934  0.336083  1
  Si  Si18  1  0.178055  0.817514  0.661758  1
  Si  Si19  1  0.907127  0.593148  0.906959  1
  Si  Si20  1  0.578376  0.922052  0.578276  1
  Si  Si21  1  0.339657  0.659860  0.339419  1
  Si  Si22  1  0.658080  0.340464  0.660518  1
  Ir  Ir23  1  0.417618  0.082984  0.417405  1
