# generated using pymatgen
data_Tb8HfZr10Si16Tc
_symmetry_space_group_name_H-M   'P 1'
_cell_length_a   7.31568457
_cell_length_b   7.31558131
_cell_length_c   13.41890230
_cell_angle_alpha   89.92217509
_cell_angle_beta   89.98680173
_cell_angle_gamma   89.99109716
_symmetry_Int_Tables_number   1
_chemical_formula_structural   Tb8HfZr10Si16Tc
_chemical_formula_sum   'Tb8 Hf1 Zr10 Si16 Tc1'
_cell_volume   718.15863576
_cell_formula_units_Z   1
loop_
 _symmetry_equiv_pos_site_id
 _symmetry_equiv_pos_as_xyz
  1  'x, y, z'
loop_
 _atom_site_type_symbol
 _atom_site_label
 _atom_site_symmetry_multiplicity
 _atom_site_fract_x
 _atom_site_fract_y
 _atom_site_fract_z
 _atom_site_occupancy
  Tb  Tb0  1  0.999513  0.343596  0.210544  1
  Tb  Tb1  1  0.004283  0.654244  0.716557  1
  Tb  Tb2  1  0.154761  0.495999  0.464042  1
  Tb  Tb3  1  0.500941  0.847702  0.034483  1
  Tb  Tb4  1  0.847701  0.500484  0.965762  1
  Tb  Tb5  1  0.495782  0.154878  0.535820  1
  Tb  Tb6  1  0.344176  0.999275  0.789616  1
  Tb  Tb7  1  0.654375  0.004650  0.283207  1
  Hf  Hf8  1  0.005970  0.854982  0.122079  1
  Zr  Zr9  1  0.824728  0.824562  0.499763  1
  Zr  Zr10  1  0.324182  0.675845  0.247777  1
  Zr  Zr11  1  0.675600  0.324003  0.752034  1
  Zr  Zr12  1  0.145712  0.997298  0.372344  1
  Zr  Zr13  1  0.854417  0.005192  0.878162  1
  Zr  Zr14  1  0.503223  0.646385  0.625703  1
  Zr  Zr15  1  0.351247  0.494703  0.876998  1
  Zr  Zr16  1  0.494583  0.351743  0.123388  1
  Zr  Zr17  1  0.646610  0.503552  0.373950  1
  Zr  Zr18  1  0.997451  0.146088  0.627332  1
  Si  Si19  1  0.360560  0.293448  0.315353  1
  Si  Si20  1  0.639049  0.706512  0.818146  1
  Si  Si21  1  0.206536  0.861062  0.566389  1
  Si  Si22  1  0.137365  0.795622  0.933751  1
  Si  Si23  1  0.796282  0.136653  0.067462  1
  Si  Si24  1  0.861026  0.206844  0.433340  1
  Si  Si25  1  0.293490  0.360523  0.684765  1
  Si  Si26  1  0.708067  0.639704  0.181298  1
  Si  Si27  1  0.292139  0.054841  0.180816  1
  Si  Si28  1  0.703941  0.949066  0.687539  1
  Si  Si29  1  0.447874  0.796403  0.436105  1
  Si  Si30  1  0.204465  0.549270  0.063174  1
  Si  Si31  1  0.547569  0.204912  0.937392  1
  Si  Si32  1  0.796437  0.448011  0.563713  1
  Si  Si33  1  0.055431  0.292879  0.818896  1
  Si  Si34  1  0.949430  0.704472  0.311716  1
  Tc  Tc35  1  0.175087  0.174597  0.000586  1
