# generated using pymatgen
data_Pr7Th(Si3Pt)4
_symmetry_space_group_name_H-M   'P 1'
_cell_length_a   8.24115189
_cell_length_b   8.24115344
_cell_length_c   8.67502500
_cell_angle_alpha   90.00000000
_cell_angle_beta   90.00000000
_cell_angle_gamma   119.76799030
_symmetry_Int_Tables_number   1
_chemical_formula_structural   Pr7Th(Si3Pt)4
_chemical_formula_sum   'Pr7 Th1 Si12 Pt4'
_cell_volume   511.43197359
_cell_formula_units_Z   1
loop_
 _symmetry_equiv_pos_site_id
 _symmetry_equiv_pos_as_xyz
  1  'x, y, z'
loop_
 _atom_site_type_symbol
 _atom_site_label
 _atom_site_symmetry_multiplicity
 _atom_site_fract_x
 _atom_site_fract_y
 _atom_site_fract_z
 _atom_site_occupancy
  Pr  Pr0  1  0.500296  0.499704  0.250000  1
  Pr  Pr1  1  0.000670  0.500375  0.750000  1
  Pr  Pr2  1  0.999298  0.499596  0.250000  1
  Pr  Pr3  1  0.499625  0.999330  0.750000  1
  Pr  Pr4  1  0.500404  0.000702  0.250000  1
  Pr  Pr5  1  0.000013  0.999987  0.750000  1
  Pr  Pr6  1  0.999980  0.000020  0.250000  1
  Th  Th7  1  0.499889  0.500111  0.750000  1
  Si  Si8  1  0.833354  0.166646  0.999793  1
  Si  Si9  1  0.166634  0.833366  0.999834  1
  Si  Si10  1  0.331050  0.165208  0.998841  1
  Si  Si11  1  0.166634  0.833366  0.500166  1
  Si  Si12  1  0.668886  0.834756  0.998650  1
  Si  Si13  1  0.833354  0.166646  0.500207  1
  Si  Si14  1  0.834792  0.668950  0.998841  1
  Si  Si15  1  0.668886  0.834756  0.501350  1
  Si  Si16  1  0.165244  0.331114  0.998650  1
  Si  Si17  1  0.331050  0.165208  0.501159  1
  Si  Si18  1  0.165244  0.331114  0.501350  1
  Si  Si19  1  0.834792  0.668950  0.501159  1
  Pt  Pt20  1  0.665147  0.334853  0.996623  1
  Pt  Pt21  1  0.334805  0.665195  0.998454  1
  Pt  Pt22  1  0.334805  0.665195  0.501546  1
  Pt  Pt23  1  0.665147  0.334853  0.503377  1
