# generated using pymatgen
data_Dy12InCoNi3Os
_symmetry_space_group_name_H-M   'P 1'
_cell_length_a   8.31591559
_cell_length_b   8.31591571
_cell_length_c   8.31591586
_cell_angle_alpha   111.21998726
_cell_angle_beta   109.45446367
_cell_angle_gamma   107.75772024
_symmetry_Int_Tables_number   1
_chemical_formula_structural   Dy12InCoNi3Os
_chemical_formula_sum   'Dy12 In1 Co1 Ni3 Os1'
_cell_volume   442.29450289
_cell_formula_units_Z   1
loop_
 _symmetry_equiv_pos_site_id
 _symmetry_equiv_pos_as_xyz
  1  'x, y, z'
loop_
 _atom_site_type_symbol
 _atom_site_label
 _atom_site_symmetry_multiplicity
 _atom_site_fract_x
 _atom_site_fract_y
 _atom_site_fract_z
 _atom_site_occupancy
  Dy  Dy0  1  0.410093  0.219464  0.190629  1
  Dy  Dy1  1  0.589250  0.779602  0.809647  1
  Dy  Dy2  1  0.028836  0.219464  0.809371  1
  Dy  Dy3  1  0.969954  0.779602  0.190353  1
  Dy  Dy4  1  0.177217  0.281916  0.462580  1
  Dy  Dy5  1  0.819335  0.714636  0.537420  1
  Dy  Dy6  1  0.177217  0.714636  0.895301  1
  Dy  Dy7  1  0.819335  0.281916  0.104699  1
  Dy  Dy8  1  0.322139  0.626720  0.304581  1
  Dy  Dy9  1  0.682328  0.375331  0.693003  1
  Dy  Dy10  1  0.322139  0.017557  0.695419  1
  Dy  Dy11  1  0.682328  0.989326  0.306997  1
  In  In12  1  0.499353  0.499353  0.000000  1
  Co  Co13  1  0.885847  0.385847  0.500000  1
  Ni  Ni14  1  0.361855  0.999231  0.362624  1
  Ni  Ni15  1  0.636608  0.999231  0.637376  1
  Ni  Ni16  1  0.117785  0.617785  0.500000  1
  Os  Os17  1  0.998382  0.998382  0.000000  1
