# generated using pymatgen
data_Pr2Dy4MnCo16TcP12
_symmetry_space_group_name_H-M   'P 1'
_cell_length_a   3.72881700
_cell_length_b   10.60294000
_cell_length_c   12.29007900
_cell_angle_alpha   90.00000000
_cell_angle_beta   90.00000000
_cell_angle_gamma   90.00000000
_symmetry_Int_Tables_number   1
_chemical_formula_structural   Pr2Dy4MnCo16TcP12
_chemical_formula_sum   'Pr2 Dy4 Mn1 Co16 Tc1 P12'
_cell_volume   485.90576109
_cell_formula_units_Z   1
loop_
 _symmetry_equiv_pos_site_id
 _symmetry_equiv_pos_as_xyz
  1  'x, y, z'
loop_
 _atom_site_type_symbol
 _atom_site_label
 _atom_site_symmetry_multiplicity
 _atom_site_fract_x
 _atom_site_fract_y
 _atom_site_fract_z
 _atom_site_occupancy
  Pr  Pr0  1  0.000000  0.500000  0.524880  1
  Pr  Pr1  1  0.500000  0.000000  0.477787  1
  Dy  Dy2  1  0.500000  0.817810  0.204141  1
  Dy  Dy3  1  0.500000  0.182190  0.204141  1
  Dy  Dy4  1  0.000000  0.682123  0.796267  1
  Dy  Dy5  1  0.000000  0.317877  0.796267  1
  Mn  Mn6  1  0.000000  0.000000  0.845414  1
  Co  Co7  1  0.500000  0.500000  0.706032  1
  Co  Co8  1  0.000000  0.000000  0.293517  1
  Co  Co9  1  0.000000  0.500000  0.987247  1
  Co  Co10  1  0.500000  0.000000  0.013872  1
  Co  Co11  1  0.500000  0.332192  0.990755  1
  Co  Co12  1  0.500000  0.667808  0.990755  1
  Co  Co13  1  0.000000  0.167384  0.006165  1
  Co  Co14  1  0.000000  0.832616  0.006165  1
  Co  Co15  1  0.500000  0.296070  0.428657  1
  Co  Co16  1  0.500000  0.703930  0.428657  1
  Co  Co17  1  0.000000  0.204627  0.570559  1
  Co  Co18  1  0.000000  0.795373  0.570559  1
  Co  Co19  1  0.500000  0.879061  0.712500  1
  Co  Co20  1  0.500000  0.120939  0.712500  1
  Co  Co21  1  0.000000  0.620137  0.288712  1
  Co  Co22  1  0.000000  0.379863  0.288712  1
  Tc  Tc23  1  0.500000  0.500000  0.153823  1
  P  P24  1  0.500000  0.500000  0.882829  1
  P  P25  1  0.000000  0.000000  0.115646  1
  P  P26  1  0.500000  0.500000  0.343405  1
  P  P27  1  0.000000  0.000000  0.661274  1
  P  P28  1  0.500000  0.306763  0.618255  1
  P  P29  1  0.500000  0.693237  0.618255  1
  P  P30  1  0.000000  0.192436  0.382150  1
  P  P31  1  0.000000  0.807564  0.382150  1
  P  P32  1  0.500000  0.847979  0.893649  1
  P  P33  1  0.500000  0.152021  0.893649  1
  P  P34  1  0.000000  0.655147  0.105325  1
  P  P35  1  0.000000  0.344853  0.105325  1
