# generated using pymatgen
data_EuFe2As12OsPd
_symmetry_space_group_name_H-M   'P 1'
_cell_length_a   7.40190667
_cell_length_b   7.36815442
_cell_length_c   7.34742315
_cell_angle_alpha   109.34940462
_cell_angle_beta   109.35235319
_cell_angle_gamma   109.51635577
_symmetry_Int_Tables_number   1
_chemical_formula_structural   EuFe2As12OsPd
_chemical_formula_sum   'Eu1 Fe2 As12 Os1 Pd1'
_cell_volume   309.21336995
_cell_formula_units_Z   1
loop_
 _symmetry_equiv_pos_site_id
 _symmetry_equiv_pos_as_xyz
  1  'x, y, z'
loop_
 _atom_site_type_symbol
 _atom_site_label
 _atom_site_symmetry_multiplicity
 _atom_site_fract_x
 _atom_site_fract_y
 _atom_site_fract_z
 _atom_site_occupancy
  Eu  Eu0  1  0.000000  0.000000  0.000000  1
  Fe  Fe1  1  0.500000  0.500000  0.500000  1
  Fe  Fe2  1  0.500000  0.000000  0.000000  1
  As  As3  1  0.350969  0.160430  0.496465  1
  As  As4  1  0.360707  0.862320  0.198918  1
  As  As5  1  0.639293  0.137680  0.801082  1
  As  As6  1  0.791204  0.649917  0.148719  1
  As  As7  1  0.162218  0.498139  0.360417  1
  As  As8  1  0.504157  0.661455  0.843681  1
  As  As9  1  0.840476  0.190670  0.336605  1
  As  As10  1  0.649031  0.839570  0.503535  1
  As  As11  1  0.208796  0.350083  0.851281  1
  As  As12  1  0.159524  0.809330  0.663395  1
  As  As13  1  0.495843  0.338545  0.156319  1
  As  As14  1  0.837782  0.501861  0.639583  1
  Os  Os15  1  0.000000  0.000000  0.500000  1
  Pd  Pd16  1  0.000000  0.500000  0.000000  1
