# generated using pymatgen
data_Dy4ErIr2Os
_symmetry_space_group_name_H-M   'P 1'
_cell_length_a   10.85457700
_cell_length_b   10.85457700
_cell_length_c   6.40310600
_cell_angle_alpha   90.00000000
_cell_angle_beta   90.00000000
_cell_angle_gamma   90.00000000
_symmetry_Int_Tables_number   1
_chemical_formula_structural   Dy4ErIr2Os
_chemical_formula_sum   'Dy16 Er4 Ir8 Os4'
_cell_volume   754.42574247
_cell_formula_units_Z   4
loop_
 _symmetry_equiv_pos_site_id
 _symmetry_equiv_pos_as_xyz
  1  'x, y, z'
loop_
 _atom_site_type_symbol
 _atom_site_label
 _atom_site_symmetry_multiplicity
 _atom_site_fract_x
 _atom_site_fract_y
 _atom_site_fract_z
 _atom_site_occupancy
  Dy  Dy0  1  0.293275  0.086380  0.377710  1
  Dy  Dy1  1  0.293275  0.913620  0.877710  1
  Dy  Dy2  1  0.706725  0.086380  0.877710  1
  Dy  Dy3  1  0.706725  0.913620  0.377710  1
  Dy  Dy4  1  0.586380  0.793275  0.877710  1
  Dy  Dy5  1  0.586380  0.206725  0.377710  1
  Dy  Dy6  1  0.413620  0.793275  0.377710  1
  Dy  Dy7  1  0.413620  0.206725  0.877710  1
  Dy  Dy8  1  0.206725  0.413620  0.622290  1
  Dy  Dy9  1  0.206725  0.586380  0.122290  1
  Dy  Dy10  1  0.793275  0.413620  0.122290  1
  Dy  Dy11  1  0.793275  0.586380  0.622290  1
  Dy  Dy12  1  0.913620  0.706725  0.122290  1
  Dy  Dy13  1  0.913620  0.293275  0.622290  1
  Dy  Dy14  1  0.086380  0.706725  0.622290  1
  Dy  Dy15  1  0.086380  0.293275  0.122290  1
  Er  Er16  1  0.000000  0.000000  0.500000  1
  Er  Er17  1  0.000000  0.000000  0.000000  1
  Er  Er18  1  0.500000  0.500000  0.000000  1
  Er  Er19  1  0.500000  0.500000  0.500000  1
  Ir  Ir20  1  0.848758  0.151242  0.250000  1
  Ir  Ir21  1  0.848758  0.848758  0.750000  1
  Ir  Ir22  1  0.151242  0.151242  0.750000  1
  Ir  Ir23  1  0.151242  0.848758  0.250000  1
  Ir  Ir24  1  0.651242  0.348758  0.750000  1
  Ir  Ir25  1  0.651242  0.651242  0.250000  1
  Ir  Ir26  1  0.348758  0.348758  0.250000  1
  Ir  Ir27  1  0.348758  0.651242  0.750000  1
  Os  Os28  1  0.500000  0.000000  0.124067  1
  Os  Os29  1  0.500000  0.000000  0.624067  1
  Os  Os30  1  0.000000  0.500000  0.875933  1
  Os  Os31  1  0.000000  0.500000  0.375933  1
