# generated using pymatgen
data_Tm7Lu(Ge4Mo3)4
_symmetry_space_group_name_H-M   'P 1'
_cell_length_a   6.89221500
_cell_length_b   7.02659002
_cell_length_c   13.08609404
_cell_angle_alpha   89.99083654
_cell_angle_beta   89.99913457
_cell_angle_gamma   89.99663297
_symmetry_Int_Tables_number   1
_chemical_formula_structural   Tm7Lu(Ge4Mo3)4
_chemical_formula_sum   'Tm7 Lu1 Ge16 Mo12'
_cell_volume   633.74341876
_cell_formula_units_Z   1
loop_
 _symmetry_equiv_pos_site_id
 _symmetry_equiv_pos_as_xyz
  1  'x, y, z'
loop_
 _atom_site_type_symbol
 _atom_site_label
 _atom_site_symmetry_multiplicity
 _atom_site_fract_x
 _atom_site_fract_y
 _atom_site_fract_z
 _atom_site_occupancy
  Tm  Tm0  1  0.488780  0.329143  0.091762  1
  Tm  Tm1  1  0.988817  0.170813  0.408294  1
  Tm  Tm2  1  0.511183  0.670718  0.591786  1
  Tm  Tm3  1  0.011037  0.829308  0.908485  1
  Tm  Tm4  1  0.511178  0.670969  0.908460  1
  Tm  Tm5  1  0.011213  0.829202  0.591759  1
  Tm  Tm6  1  0.488719  0.329222  0.407960  1
  Lu  Lu7  1  0.988288  0.171072  0.091732  1
  Ge  Ge8  1  0.671311  0.046157  0.547892  1
  Ge  Ge9  1  0.171273  0.453813  0.952242  1
  Ge  Ge10  1  0.328114  0.954861  0.048004  1
  Ge  Ge11  1  0.828838  0.545687  0.452084  1
  Ge  Ge12  1  0.328819  0.953906  0.452052  1
  Ge  Ge13  1  0.828839  0.545248  0.047999  1
  Ge  Ge14  1  0.671306  0.045880  0.952282  1
  Ge  Ge15  1  0.171184  0.454163  0.547875  1
  Ge  Ge16  1  0.529230  0.369064  0.750077  1
  Ge  Ge17  1  0.029230  0.130872  0.750029  1
  Ge  Ge18  1  0.470827  0.630965  0.249905  1
  Ge  Ge19  1  0.970995  0.869674  0.249805  1
  Ge  Ge20  1  0.810282  0.647257  0.750111  1
  Ge  Ge21  1  0.310153  0.852639  0.750136  1
  Ge  Ge22  1  0.189239  0.352146  0.249638  1
  Ge  Ge23  1  0.690329  0.147354  0.249812  1
  Mo  Mo24  1  0.829379  0.345461  0.626896  1
  Mo  Mo25  1  0.329184  0.154472  0.873328  1
  Mo  Mo26  1  0.170489  0.654324  0.126595  1
  Mo  Mo27  1  0.670629  0.845684  0.373212  1
  Mo  Mo28  1  0.170525  0.654376  0.373036  1
  Mo  Mo29  1  0.671190  0.845763  0.126581  1
  Mo  Mo30  1  0.829703  0.345318  0.873533  1
  Mo  Mo31  1  0.329656  0.154405  0.626680  1
  Mo  Mo32  1  0.665801  0.004669  0.750172  1
  Mo  Mo33  1  0.165861  0.495205  0.750033  1
  Mo  Mo34  1  0.334126  0.995476  0.249816  1
  Mo  Mo35  1  0.834274  0.504715  0.249936  1
