# generated using pymatgen
data_Ta12Al8ZnCo3C4
_symmetry_space_group_name_H-M   'P 1'
_cell_length_a   8.24003556
_cell_length_b   8.23655042
_cell_length_c   8.24003600
_cell_angle_alpha   59.98600018
_cell_angle_beta   59.99999825
_cell_angle_gamma   59.98600309
_symmetry_Int_Tables_number   1
_chemical_formula_structural   Ta12Al8ZnCo3C4
_chemical_formula_sum   'Ta12 Al8 Zn1 Co3 C4'
_cell_volume   395.36355233
_cell_formula_units_Z   1
loop_
 _symmetry_equiv_pos_site_id
 _symmetry_equiv_pos_as_xyz
  1  'x, y, z'
loop_
 _atom_site_type_symbol
 _atom_site_label
 _atom_site_symmetry_multiplicity
 _atom_site_fract_x
 _atom_site_fract_y
 _atom_site_fract_z
 _atom_site_occupancy
  Ta  Ta0  1  0.309713  0.937762  0.942813  1
  Ta  Ta1  1  0.937815  0.312590  0.311780  1
  Ta  Ta2  1  0.937815  0.312590  0.937815  1
  Ta  Ta3  1  0.942813  0.937762  0.309713  1
  Ta  Ta4  1  0.309713  0.937762  0.309713  1
  Ta  Ta5  1  0.311780  0.312590  0.937815  1
  Ta  Ta6  1  0.062185  0.687410  0.062185  1
  Ta  Ta7  1  0.690287  0.062238  0.690287  1
  Ta  Ta8  1  0.690287  0.062238  0.057187  1
  Ta  Ta9  1  0.057187  0.062238  0.690287  1
  Ta  Ta10  1  0.062185  0.687410  0.688220  1
  Ta  Ta11  1  0.688220  0.687410  0.062185  1
  Al  Al12  1  0.287128  0.302061  0.287128  1
  Al  Al13  1  0.287128  0.302061  0.623684  1
  Al  Al14  1  0.623684  0.302061  0.287128  1
  Al  Al15  1  0.293530  0.619410  0.293530  1
  Al  Al16  1  0.712872  0.697939  0.712872  1
  Al  Al17  1  0.712872  0.697939  0.376316  1
  Al  Al18  1  0.706470  0.380590  0.706470  1
  Al  Al19  1  0.376316  0.697939  0.712872  1
  Zn  Zn20  1  0.500000  0.000000  0.500000  1
  Co  Co21  1  0.500000  0.500000  0.500000  1
  Co  Co22  1  0.500000  0.500000  0.000000  1
  Co  Co23  1  0.000000  0.500000  0.500000  1
  C  C24  1  0.000000  0.000000  0.000000  1
  C  C25  1  0.000000  0.000000  0.500000  1
  C  C26  1  0.500000  0.000000  0.000000  1
  C  C27  1  0.000000  0.500000  0.000000  1
