# generated using pymatgen
data_Tb2(SeO4)3
_symmetry_space_group_name_H-M   'P 1'
_cell_length_a   10.01607273
_cell_length_b   10.01607296
_cell_length_c   10.01607315
_cell_angle_alpha   57.94762778
_cell_angle_beta   57.94762601
_cell_angle_gamma   57.94763052
_symmetry_Int_Tables_number   1
_chemical_formula_structural   Tb2(SeO4)3
_chemical_formula_sum   'Tb4 Se6 O24'
_cell_volume   677.06172563
_cell_formula_units_Z   2
loop_
 _symmetry_equiv_pos_site_id
 _symmetry_equiv_pos_as_xyz
  1  'x, y, z'
loop_
 _atom_site_type_symbol
 _atom_site_label
 _atom_site_symmetry_multiplicity
 _atom_site_fract_x
 _atom_site_fract_y
 _atom_site_fract_z
 _atom_site_occupancy
  Tb  Tb0  1  0.143928  0.143928  0.143928  1
  Tb  Tb1  1  0.856072  0.856072  0.856072  1
  Tb  Tb2  1  0.643928  0.643928  0.643928  1
  Tb  Tb3  1  0.356072  0.356072  0.356072  1
  Se  Se4  1  0.250000  0.537313  0.962687  1
  Se  Se5  1  0.462687  0.037313  0.750000  1
  Se  Se6  1  0.037313  0.750000  0.462687  1
  Se  Se7  1  0.962687  0.250000  0.537313  1
  Se  Se8  1  0.537313  0.962687  0.250000  1
  Se  Se9  1  0.750000  0.462687  0.037313  1
  O  O10  1  0.417203  0.565128  0.792356  1
  O  O11  1  0.275351  0.507880  0.128751  1
  O  O12  1  0.492120  0.871249  0.724649  1
  O  O13  1  0.207644  0.582797  0.434872  1
  O  O14  1  0.082797  0.707644  0.934872  1
  O  O15  1  0.371249  0.992120  0.224649  1
  O  O16  1  0.007880  0.775351  0.628751  1
  O  O17  1  0.292356  0.065128  0.917203  1
  O  O18  1  0.434872  0.207644  0.582797  1
  O  O19  1  0.065128  0.917203  0.292356  1
  O  O20  1  0.871249  0.724649  0.492120  1
  O  O21  1  0.775351  0.628751  0.007880  1
  O  O22  1  0.224649  0.371249  0.992120  1
  O  O23  1  0.128751  0.275351  0.507880  1
  O  O24  1  0.934872  0.082797  0.707644  1
  O  O25  1  0.565128  0.792356  0.417203  1
  O  O26  1  0.707644  0.934872  0.082797  1
  O  O27  1  0.992120  0.224649  0.371249  1
  O  O28  1  0.628751  0.007880  0.775351  1
  O  O29  1  0.917203  0.292356  0.065128  1
  O  O30  1  0.792356  0.417203  0.565128  1
  O  O31  1  0.507880  0.128751  0.275351  1
  O  O32  1  0.724649  0.492120  0.871249  1
  O  O33  1  0.582797  0.434872  0.207644  1
