# generated using pymatgen
data_Sc6CdHg7
_symmetry_space_group_name_H-M   'P 1'
_cell_length_a   7.89653611
_cell_length_b   7.89653613
_cell_length_c   7.89653506
_cell_angle_alpha   113.60966687
_cell_angle_beta   113.60966618
_cell_angle_gamma   113.60965703
_symmetry_Int_Tables_number   1
_chemical_formula_structural   Sc6CdHg7
_chemical_formula_sum   'Sc6 Cd1 Hg7'
_cell_volume   307.61872808
_cell_formula_units_Z   1
loop_
 _symmetry_equiv_pos_site_id
 _symmetry_equiv_pos_as_xyz
  1  'x, y, z'
loop_
 _atom_site_type_symbol
 _atom_site_label
 _atom_site_symmetry_multiplicity
 _atom_site_fract_x
 _atom_site_fract_y
 _atom_site_fract_z
 _atom_site_occupancy
  Sc  Sc0  1  0.373190  0.961200  0.235232  1
  Sc  Sc1  1  0.961200  0.235232  0.373190  1
  Sc  Sc2  1  0.235232  0.373190  0.961200  1
  Sc  Sc3  1  0.626810  0.038800  0.764768  1
  Sc  Sc4  1  0.038800  0.764768  0.626810  1
  Sc  Sc5  1  0.764768  0.626810  0.038800  1
  Cd  Cd6  1  0.500000  0.500000  0.500000  1
  Hg  Hg7  1  0.000000  0.000000  0.000000  1
  Hg  Hg8  1  0.269518  0.122236  0.570559  1
  Hg  Hg9  1  0.122236  0.570559  0.269518  1
  Hg  Hg10  1  0.570559  0.269518  0.122236  1
  Hg  Hg11  1  0.730482  0.877764  0.429441  1
  Hg  Hg12  1  0.877764  0.429441  0.730482  1
  Hg  Hg13  1  0.429441  0.730482  0.877764  1
