# generated using pymatgen
data_Pr2NdTh(Zn5Ge)2
_symmetry_space_group_name_H-M   'P 1'
_cell_length_a   8.40988214
_cell_length_b   8.40988239
_cell_length_c   8.91532000
_cell_angle_alpha   90.00000000
_cell_angle_beta   90.00000000
_cell_angle_gamma   149.35232244
_symmetry_Int_Tables_number   1
_chemical_formula_structural   Pr2NdTh(Zn5Ge)2
_chemical_formula_sum   'Pr2 Nd1 Th1 Zn10 Ge2'
_cell_volume   321.42554043
_cell_formula_units_Z   1
loop_
 _symmetry_equiv_pos_site_id
 _symmetry_equiv_pos_as_xyz
  1  'x, y, z'
loop_
 _atom_site_type_symbol
 _atom_site_label
 _atom_site_symmetry_multiplicity
 _atom_site_fract_x
 _atom_site_fract_y
 _atom_site_fract_z
 _atom_site_occupancy
  Pr  Pr0  1  0.000002  0.999998  0.503244  1
  Pr  Pr1  1  0.000002  0.999998  0.996756  1
  Nd  Nd2  1  0.797460  0.202540  0.750000  1
  Th  Th3  1  0.202764  0.797236  0.250000  1
  Zn  Zn4  1  0.813640  0.186360  0.393400  1
  Zn  Zn5  1  0.185099  0.814901  0.608287  1
  Zn  Zn6  1  0.813640  0.186360  0.106600  1
  Zn  Zn7  1  0.185099  0.814901  0.891713  1
  Zn  Zn8  1  0.653255  0.346745  0.479544  1
  Zn  Zn9  1  0.347884  0.652116  0.521505  1
  Zn  Zn10  1  0.653255  0.346745  0.020456  1
  Zn  Zn11  1  0.347884  0.652116  0.978495  1
  Zn  Zn12  1  0.402340  0.597660  0.250000  1
  Zn  Zn13  1  0.597593  0.402407  0.750000  1
  Ge  Ge14  1  0.557205  0.442795  0.250000  1
  Ge  Ge15  1  0.442878  0.557122  0.750000  1
