# generated using pymatgen
data_Tb3Dy7(YNi2)2
_symmetry_space_group_name_H-M   'P 1'
_cell_length_a   6.35090904
_cell_length_b   6.85045600
_cell_length_c   9.59769676
_cell_angle_alpha   89.98940488
_cell_angle_beta   90.05723058
_cell_angle_gamma   89.99892015
_symmetry_Int_Tables_number   1
_chemical_formula_structural   Tb3Dy7(YNi2)2
_chemical_formula_sum   'Tb3 Dy7 Y2 Ni4'
_cell_volume   417.56315830
_cell_formula_units_Z   1
loop_
 _symmetry_equiv_pos_site_id
 _symmetry_equiv_pos_as_xyz
  1  'x, y, z'
loop_
 _atom_site_type_symbol
 _atom_site_label
 _atom_site_symmetry_multiplicity
 _atom_site_fract_x
 _atom_site_fract_y
 _atom_site_fract_z
 _atom_site_occupancy
  Tb  Tb0  1  0.177192  0.177812  0.065502  1
  Tb  Tb1  1  0.859038  0.534089  0.250004  1
  Tb  Tb2  1  0.640802  0.034069  0.249957  1
  Dy  Dy3  1  0.322561  0.677888  0.066224  1
  Dy  Dy4  1  0.177762  0.178179  0.433984  1
  Dy  Dy5  1  0.677586  0.322107  0.565692  1
  Dy  Dy6  1  0.821919  0.821457  0.933911  1
  Dy  Dy7  1  0.677670  0.322049  0.933697  1
  Dy  Dy8  1  0.822375  0.822041  0.565605  1
  Dy  Dy9  1  0.322419  0.678200  0.434083  1
  Y  Y10  1  0.140487  0.466820  0.749608  1
  Y  Y11  1  0.359853  0.966500  0.749610  1
  Ni  Ni12  1  0.057308  0.890526  0.250954  1
  Ni  Ni13  1  0.442718  0.391468  0.251388  1
  Ni  Ni14  1  0.940889  0.108127  0.750083  1
  Ni  Ni15  1  0.559421  0.608671  0.749695  1
