# generated using pymatgen
data_TbHo3(Rh2O7)2
_symmetry_space_group_name_H-M   'P 1'
_cell_length_a   7.21366872
_cell_length_b   7.22477756
_cell_length_c   7.21366900
_cell_angle_alpha   60.05084461
_cell_angle_beta   59.99999414
_cell_angle_gamma   60.05085185
_symmetry_Int_Tables_number   1
_chemical_formula_structural   TbHo3(Rh2O7)2
_chemical_formula_sum   'Tb1 Ho3 Rh4 O14'
_cell_volume   266.04507695
_cell_formula_units_Z   1
loop_
 _symmetry_equiv_pos_site_id
 _symmetry_equiv_pos_as_xyz
  1  'x, y, z'
loop_
 _atom_site_type_symbol
 _atom_site_label
 _atom_site_symmetry_multiplicity
 _atom_site_fract_x
 _atom_site_fract_y
 _atom_site_fract_z
 _atom_site_occupancy
  Tb  Tb0  1  0.125000  0.625000  0.125000  1
  Ho  Ho1  1  0.125000  0.125000  0.625000  1
  Ho  Ho2  1  0.125000  0.125000  0.125000  1
  Ho  Ho3  1  0.625000  0.125000  0.125000  1
  Rh  Rh4  1  0.125000  0.625000  0.625000  1
  Rh  Rh5  1  0.625000  0.625000  0.625000  1
  Rh  Rh6  1  0.625000  0.125000  0.625000  1
  Rh  Rh7  1  0.625000  0.625000  0.125000  1
  O  O8  1  0.287676  0.713165  0.711483  1
  O  O9  1  0.537241  0.962725  0.962793  1
  O  O10  1  0.712759  0.287275  0.712759  1
  O  O11  1  0.711483  0.713165  0.287676  1
  O  O12  1  0.287676  0.713165  0.287676  1
  O  O13  1  0.287207  0.287275  0.712759  1
  O  O14  1  0.998997  0.003009  0.998997  1
  O  O15  1  0.251003  0.246991  0.251003  1
  O  O16  1  0.962324  0.536835  0.962324  1
  O  O17  1  0.538517  0.536835  0.962324  1
  O  O18  1  0.962793  0.962725  0.537241  1
  O  O19  1  0.537241  0.962725  0.537241  1
  O  O20  1  0.712759  0.287275  0.287207  1
  O  O21  1  0.962324  0.536835  0.538517  1
