# generated using pymatgen
data_V10GaSi3Os2
_symmetry_space_group_name_H-M   'P 1'
_cell_length_a   4.67504100
_cell_length_b   4.74114784
_cell_length_c   9.50231933
_cell_angle_alpha   89.91922282
_cell_angle_beta   90.00000000
_cell_angle_gamma   90.00000000
_symmetry_Int_Tables_number   1
_chemical_formula_structural   V10GaSi3Os2
_chemical_formula_sum   'V10 Ga1 Si3 Os2'
_cell_volume   210.61927383
_cell_formula_units_Z   1
loop_
 _symmetry_equiv_pos_site_id
 _symmetry_equiv_pos_as_xyz
  1  'x, y, z'
loop_
 _atom_site_type_symbol
 _atom_site_label
 _atom_site_symmetry_multiplicity
 _atom_site_fract_x
 _atom_site_fract_y
 _atom_site_fract_z
 _atom_site_occupancy
  V  V0  1  0.000000  0.498270  0.625841  1
  V  V1  1  0.500000  0.248486  0.253164  1
  V  V2  1  0.753843  0.000324  0.999725  1
  V  V3  1  0.751848  0.000393  0.500060  1
  V  V4  1  0.000000  0.497949  0.867693  1
  V  V5  1  0.000000  0.501288  0.381875  1
  V  V6  1  0.500000  0.747796  0.746330  1
  V  V7  1  0.500000  0.755547  0.252364  1
  V  V8  1  0.246157  0.000324  0.999725  1
  V  V9  1  0.248152  0.000393  0.500060  1
  Ga  Ga10  1  0.500000  0.503868  0.998829  1
  Si  Si11  1  0.500000  0.504953  0.496914  1
  Si  Si12  1  0.000000  0.991077  0.750134  1
  Si  Si13  1  0.000000  0.000392  0.254142  1
  Os  Os14  1  0.000000  0.501797  0.126724  1
  Os  Os15  1  0.500000  0.247142  0.746419  1
