# generated using pymatgen
data_Y5Er3Sc11Si16Mo
_symmetry_space_group_name_H-M   'P 1'
_cell_length_a   7.07180740
_cell_length_b   7.32371037
_cell_length_c   13.89420367
_cell_angle_alpha   90.14029470
_cell_angle_beta   89.69163506
_cell_angle_gamma   89.74541735
_symmetry_Int_Tables_number   1
_chemical_formula_structural   Y5Er3Sc11Si16Mo
_chemical_formula_sum   'Y5 Er3 Sc11 Si16 Mo1'
_cell_volume   719.58705408
_cell_formula_units_Z   1
loop_
 _symmetry_equiv_pos_site_id
 _symmetry_equiv_pos_as_xyz
  1  'x, y, z'
loop_
 _atom_site_type_symbol
 _atom_site_label
 _atom_site_symmetry_multiplicity
 _atom_site_fract_x
 _atom_site_fract_y
 _atom_site_fract_z
 _atom_site_occupancy
  Y  Y0  1  0.011441  0.174391  0.097294  1
  Y  Y1  1  0.989886  0.825722  0.898771  1
  Y  Y2  1  0.487908  0.677705  0.899398  1
  Y  Y3  1  0.992910  0.829300  0.595392  1
  Y  Y4  1  0.512478  0.323612  0.096459  1
  Er  Er5  1  0.009373  0.175530  0.403381  1
  Er  Er6  1  0.506685  0.323039  0.409883  1
  Er  Er7  1  0.487752  0.676544  0.595917  1
  Sc  Sc8  1  0.164206  0.495042  0.744685  1
  Sc  Sc9  1  0.837332  0.497934  0.252312  1
  Sc  Sc10  1  0.336252  0.002793  0.253088  1
  Sc  Sc11  1  0.658431  0.002455  0.746726  1
  Sc  Sc12  1  0.664572  0.825446  0.379143  1
  Sc  Sc13  1  0.168483  0.678144  0.378113  1
  Sc  Sc14  1  0.668688  0.824063  0.124996  1
  Sc  Sc15  1  0.833392  0.323430  0.623466  1
  Sc  Sc16  1  0.333372  0.176920  0.874700  1
  Sc  Sc17  1  0.830763  0.323076  0.871687  1
  Sc  Sc18  1  0.169741  0.676614  0.126405  1
  Si  Si19  1  0.043267  0.120602  0.745267  1
  Si  Si20  1  0.963065  0.885573  0.251805  1
  Si  Si21  1  0.466675  0.616110  0.251357  1
  Si  Si22  1  0.531784  0.375952  0.745295  1
  Si  Si23  1  0.287586  0.879838  0.745524  1
  Si  Si24  1  0.710420  0.127455  0.251739  1
  Si  Si25  1  0.215126  0.372554  0.251590  1
  Si  Si26  1  0.783832  0.624101  0.746219  1
  Si  Si27  1  0.175864  0.450930  0.540296  1
  Si  Si28  1  0.842112  0.531203  0.460479  1
  Si  Si29  1  0.333032  0.970399  0.470853  1
  Si  Si30  1  0.845521  0.535543  0.038924  1
  Si  Si31  1  0.646962  0.035423  0.544464  1
  Si  Si32  1  0.155078  0.465957  0.959344  1
  Si  Si33  1  0.661261  0.036343  0.958962  1
  Si  Si34  1  0.341124  0.962384  0.038323  1
  Mo  Mo35  1  0.333626  0.177873  0.627740  1
