# generated using pymatgen
data_Lu3Hf5(V3Ge4)4
_symmetry_space_group_name_H-M   'P 1'
_cell_length_a   6.79332852
_cell_length_b   6.79220566
_cell_length_c   12.59479236
_cell_angle_alpha   90.08448243
_cell_angle_beta   90.01282077
_cell_angle_gamma   89.89562116
_symmetry_Int_Tables_number   1
_chemical_formula_structural   Lu3Hf5(V3Ge4)4
_chemical_formula_sum   'Lu3 Hf5 V12 Ge16'
_cell_volume   581.14332427
_cell_formula_units_Z   1
loop_
 _symmetry_equiv_pos_site_id
 _symmetry_equiv_pos_as_xyz
  1  'x, y, z'
loop_
 _atom_site_type_symbol
 _atom_site_label
 _atom_site_symmetry_multiplicity
 _atom_site_fract_x
 _atom_site_fract_y
 _atom_site_fract_z
 _atom_site_occupancy
  Lu  Lu0  1  0.997407  0.337718  0.527475  1
  Lu  Lu1  1  0.663469  0.001335  0.972973  1
  Lu  Lu2  1  0.338319  0.997179  0.472420  1
  Hf  Hf3  1  0.006769  0.659576  0.027293  1
  Hf  Hf4  1  0.836331  0.505068  0.276746  1
  Hf  Hf5  1  0.163485  0.495064  0.777363  1
  Hf  Hf6  1  0.505371  0.836074  0.723200  1
  Hf  Hf7  1  0.495353  0.163434  0.221718  1
  V  V8  1  0.331502  0.337576  0.000146  1
  V  V9  1  0.164772  0.833786  0.248289  1
  V  V10  1  0.835455  0.164765  0.751072  1
  V  V11  1  0.665802  0.665455  0.499909  1
  V  V12  1  0.001560  0.166925  0.127167  1
  V  V13  1  0.336967  0.504512  0.374738  1
  V  V14  1  0.663733  0.497986  0.877149  1
  V  V15  1  0.504616  0.337363  0.625093  1
  V  V16  1  0.494184  0.663596  0.123668  1
  V  V17  1  0.997365  0.833857  0.629042  1
  V  V18  1  0.163578  0.002962  0.873577  1
  V  V19  1  0.833884  0.996258  0.371160  1
  Ge  Ge20  1  0.287459  0.968030  0.067478  1
  Ge  Ge21  1  0.532922  0.790662  0.316128  1
  Ge  Ge22  1  0.467294  0.209620  0.817486  1
  Ge  Ge23  1  0.790959  0.532810  0.683482  1
  Ge  Ge24  1  0.208763  0.467152  0.182824  1
  Ge  Ge25  1  0.711166  0.030925  0.568034  1
  Ge  Ge26  1  0.967331  0.291555  0.932490  1
  Ge  Ge27  1  0.031451  0.710724  0.431959  1
  Ge  Ge28  1  0.698798  0.377131  0.075181  1
  Ge  Ge29  1  0.123451  0.199925  0.321344  1
  Ge  Ge30  1  0.877055  0.797550  0.823956  1
  Ge  Ge31  1  0.200834  0.123361  0.678714  1
  Ge  Ge32  1  0.801331  0.873823  0.176033  1
  Ge  Ge33  1  0.302964  0.625216  0.575063  1
  Ge  Ge34  1  0.372944  0.698475  0.925002  1
  Ge  Ge35  1  0.625357  0.302554  0.424631  1
