# generated using pymatgen
data_Sm8P(Pd5Pt)4
_symmetry_space_group_name_H-M   'P 1'
_cell_length_a   8.44882100
_cell_length_b   8.44911710
_cell_length_c   8.44802200
_cell_angle_alpha   90.00000000
_cell_angle_beta   90.00000000
_cell_angle_gamma   90.00863256
_symmetry_Int_Tables_number   1
_chemical_formula_structural   Sm8P(Pd5Pt)4
_chemical_formula_sum   'Sm8 P1 Pd20 Pt4'
_cell_volume   603.06270216
_cell_formula_units_Z   1
loop_
 _symmetry_equiv_pos_site_id
 _symmetry_equiv_pos_as_xyz
  1  'x, y, z'
loop_
 _atom_site_type_symbol
 _atom_site_label
 _atom_site_symmetry_multiplicity
 _atom_site_fract_x
 _atom_site_fract_y
 _atom_site_fract_z
 _atom_site_occupancy
  Sm  Sm0  1  0.252977  0.253952  0.253454  1
  Sm  Sm1  1  0.744762  0.744480  0.745553  1
  Sm  Sm2  1  0.744762  0.744480  0.254447  1
  Sm  Sm3  1  0.745495  0.255360  0.744991  1
  Sm  Sm4  1  0.252977  0.253952  0.746546  1
  Sm  Sm5  1  0.253628  0.745960  0.252759  1
  Sm  Sm6  1  0.253628  0.745960  0.747241  1
  Sm  Sm7  1  0.745495  0.255360  0.255009  1
  P  P8  1  0.012887  0.000072  0.000000  1
  Pd  Pd9  1  0.500979  0.254608  0.000000  1
  Pd  Pd10  1  0.999954  0.744418  0.500000  1
  Pd  Pd11  1  0.500915  0.745906  0.000000  1
  Pd  Pd12  1  0.500671  0.999825  0.254371  1
  Pd  Pd13  1  0.255845  0.000049  0.500000  1
  Pd  Pd14  1  0.500671  0.999825  0.745629  1
  Pd  Pd15  1  0.741458  0.000098  0.500000  1
  Pd  Pd16  1  0.000027  0.499928  0.255755  1
  Pd  Pd17  1  0.000027  0.499928  0.744245  1
  Pd  Pd18  1  0.251303  0.499955  0.500000  1
  Pd  Pd19  1  0.748503  0.499979  0.500000  1
  Pd  Pd20  1  0.499241  0.250400  0.500000  1
  Pd  Pd21  1  0.499181  0.749579  0.500000  1
  Pd  Pd22  1  0.499117  0.500072  0.250123  1
  Pd  Pd23  1  0.499117  0.500072  0.749877  1
  Pd  Pd24  1  0.732841  0.000236  0.000000  1
  Pd  Pd25  1  0.996043  0.276735  0.000000  1
  Pd  Pd26  1  0.995986  0.723251  0.000000  1
  Pd  Pd27  1  0.996175  0.999642  0.276486  1
  Pd  Pd28  1  0.996175  0.999642  0.723514  1
  Pt  Pt29  1  0.255646  0.500199  0.000000  1
  Pt  Pt30  1  0.741536  0.500225  0.000000  1
  Pt  Pt31  1  0.999892  0.255368  0.500000  1
  Pt  Pt32  1  0.282085  0.000483  0.000000  1
