# generated using pymatgen
data_ZrGaAg(P2O7)2
_symmetry_space_group_name_H-M   'P 1'
_cell_length_a   4.95392795
_cell_length_b   7.15674814
_cell_length_c   8.27167991
_cell_angle_alpha   91.17017327
_cell_angle_beta   86.96971443
_cell_angle_gamma   74.89020671
_symmetry_Int_Tables_number   1
_chemical_formula_structural   ZrGaAg(P2O7)2
_chemical_formula_sum   'Zr1 Ga1 Ag1 P4 O14'
_cell_volume   282.55169609
_cell_formula_units_Z   1
loop_
 _symmetry_equiv_pos_site_id
 _symmetry_equiv_pos_as_xyz
  1  'x, y, z'
loop_
 _atom_site_type_symbol
 _atom_site_label
 _atom_site_symmetry_multiplicity
 _atom_site_fract_x
 _atom_site_fract_y
 _atom_site_fract_z
 _atom_site_occupancy
  Zr  Zr0  1  0.500000  0.000000  0.500000  1
  Ga  Ga1  1  0.000000  0.500000  0.000000  1
  Ag  Ag2  1  0.500000  0.000000  0.000000  1
  P  P3  1  0.124819  0.756493  0.289691  1
  P  P4  1  0.875181  0.243507  0.710309  1
  P  P5  1  0.482933  0.622898  0.767150  1
  P  P6  1  0.517067  0.377102  0.232850  1
  O  O7  1  0.037869  0.737123  0.117003  1
  O  O8  1  0.962131  0.262877  0.882997  1
  O  O9  1  0.685511  0.104283  0.699875  1
  O  O10  1  0.314489  0.895717  0.300125  1
  O  O11  1  0.416211  0.792330  0.652802  1
  O  O12  1  0.583789  0.207670  0.347198  1
  O  O13  1  0.224498  0.556818  0.814705  1
  O  O14  1  0.775502  0.443182  0.185295  1
  O  O15  1  0.353755  0.329015  0.090247  1
  O  O16  1  0.646245  0.670985  0.909753  1
  O  O17  1  0.882073  0.813734  0.417850  1
  O  O18  1  0.117927  0.186266  0.582150  1
  O  O19  1  0.696540  0.452688  0.657098  1
  O  O20  1  0.303460  0.547312  0.342902  1
