# generated using pymatgen
data_Yb3In3HgPdPt
_symmetry_space_group_name_H-M   'P 1'
_cell_length_a   7.92482400
_cell_length_b   7.92482372
_cell_length_c   3.85615900
_cell_angle_alpha   90.00000000
_cell_angle_beta   90.00000000
_cell_angle_gamma   120.00000953
_symmetry_Int_Tables_number   1
_chemical_formula_structural   Yb3In3HgPdPt
_chemical_formula_sum   'Yb3 In3 Hg1 Pd1 Pt1'
_cell_volume   209.73202931
_cell_formula_units_Z   1
loop_
 _symmetry_equiv_pos_site_id
 _symmetry_equiv_pos_as_xyz
  1  'x, y, z'
loop_
 _atom_site_type_symbol
 _atom_site_label
 _atom_site_symmetry_multiplicity
 _atom_site_fract_x
 _atom_site_fract_y
 _atom_site_fract_z
 _atom_site_occupancy
  Yb  Yb0  1  0.416748  0.024142  0.000000  1
  Yb  Yb1  1  0.975858  0.392606  0.000000  1
  Yb  Yb2  1  0.607394  0.583252  0.000000  1
  In  In3  1  0.746396  0.008542  0.500000  1
  In  In4  1  0.991458  0.737854  0.500000  1
  In  In5  1  0.262146  0.253604  0.500000  1
  Hg  Hg6  1  0.333333  0.666667  0.500000  1
  Pd  Pd7  1  0.000000  0.000000  0.000000  1
  Pt  Pt8  1  0.666667  0.333333  0.500000  1
