# generated using pymatgen
data_Ho8ScSi4B16W
_symmetry_space_group_name_H-M   'P 1'
_cell_length_a   7.13437000
_cell_length_b   7.13437000
_cell_length_c   7.71029600
_cell_angle_alpha   90.00000000
_cell_angle_beta   90.00000000
_cell_angle_gamma   90.00000000
_symmetry_Int_Tables_number   1
_chemical_formula_structural   Ho8ScSi4B16W
_chemical_formula_sum   'Ho8 Sc1 Si4 B16 W1'
_cell_volume   392.44817031
_cell_formula_units_Z   1
loop_
 _symmetry_equiv_pos_site_id
 _symmetry_equiv_pos_as_xyz
  1  'x, y, z'
loop_
 _atom_site_type_symbol
 _atom_site_label
 _atom_site_symmetry_multiplicity
 _atom_site_fract_x
 _atom_site_fract_y
 _atom_site_fract_z
 _atom_site_occupancy
  Ho  Ho0  1  0.679847  0.181797  0.233157  1
  Ho  Ho1  1  0.320153  0.818203  0.766843  1
  Ho  Ho2  1  0.320153  0.818203  0.233157  1
  Ho  Ho3  1  0.818203  0.679847  0.233157  1
  Ho  Ho4  1  0.818203  0.679847  0.766843  1
  Ho  Ho5  1  0.679847  0.181797  0.766843  1
  Ho  Ho6  1  0.181797  0.320153  0.766843  1
  Ho  Ho7  1  0.181797  0.320153  0.233157  1
  Sc  Sc8  1  0.000000  0.000000  0.500000  1
  Si  Si9  1  0.131569  0.611395  0.500000  1
  Si  Si10  1  0.868431  0.388605  0.500000  1
  Si  Si11  1  0.388605  0.131569  0.500000  1
  Si  Si12  1  0.611395  0.868431  0.500000  1
  B  B13  1  0.171910  0.039176  0.000000  1
  B  B14  1  0.828090  0.960824  0.000000  1
  B  B15  1  0.960824  0.171910  0.000000  1
  B  B16  1  0.327920  0.539514  0.000000  1
  B  B17  1  0.039176  0.828090  0.000000  1
  B  B18  1  0.672080  0.460486  0.000000  1
  B  B19  1  0.539514  0.672080  0.000000  1
  B  B20  1  0.460486  0.327920  0.000000  1
  B  B21  1  0.089787  0.590429  0.000000  1
  B  B22  1  0.910213  0.409571  0.000000  1
  B  B23  1  0.409571  0.089787  0.000000  1
  B  B24  1  0.590429  0.910213  0.000000  1
  B  B25  1  0.000000  0.000000  0.170292  1
  B  B26  1  0.000000  0.000000  0.829708  1
  B  B27  1  0.500000  0.500000  0.824348  1
  B  B28  1  0.500000  0.500000  0.175652  1
  W  W29  1  0.500000  0.500000  0.500000  1
