# generated using pymatgen
data_Tm8Ti11Si16Os
_symmetry_space_group_name_H-M   'P 1'
_cell_length_a   6.97937477
_cell_length_b   6.97937494
_cell_length_c   12.80673801
_cell_angle_alpha   90.02531496
_cell_angle_beta   89.97468703
_cell_angle_gamma   89.92957689
_symmetry_Int_Tables_number   1
_chemical_formula_structural   Tm8Ti11Si16Os
_chemical_formula_sum   'Tm8 Ti11 Si16 Os1'
_cell_volume   623.83704600
_cell_formula_units_Z   1
loop_
 _symmetry_equiv_pos_site_id
 _symmetry_equiv_pos_as_xyz
  1  'x, y, z'
loop_
 _atom_site_type_symbol
 _atom_site_label
 _atom_site_symmetry_multiplicity
 _atom_site_fract_x
 _atom_site_fract_y
 _atom_site_fract_z
 _atom_site_occupancy
  Tm  Tm0  1  0.341081  0.003649  0.467332  1
  Tm  Tm1  1  0.497122  0.840895  0.718205  1
  Tm  Tm2  1  0.499900  0.159073  0.215022  1
  Tm  Tm3  1  0.840895  0.497122  0.281795  1
  Tm  Tm4  1  0.159073  0.499900  0.784978  1
  Tm  Tm5  1  0.658103  0.998720  0.968764  1
  Tm  Tm6  1  0.003649  0.341081  0.532668  1
  Tm  Tm7  1  0.998720  0.658103  0.031236  1
  Ti  Ti8  1  0.174170  0.827656  0.248275  1
  Ti  Ti9  1  0.827656  0.174170  0.751725  1
  Ti  Ti10  1  0.673944  0.673944  0.500000  1
  Ti  Ti11  1  0.150943  0.002869  0.875292  1
  Ti  Ti12  1  0.492699  0.655366  0.124512  1
  Ti  Ti13  1  0.506311  0.349405  0.627982  1
  Ti  Ti14  1  0.655366  0.492699  0.875488  1
  Ti  Ti15  1  0.349405  0.506311  0.372018  1
  Ti  Ti16  1  0.848842  0.994445  0.375150  1
  Ti  Ti17  1  0.002869  0.150943  0.124708  1
  Ti  Ti18  1  0.994445  0.848842  0.624850  1
  Si  Si19  1  0.203131  0.132528  0.684238  1
  Si  Si20  1  0.371542  0.699936  0.932759  1
  Si  Si21  1  0.631966  0.296760  0.433814  1
  Si  Si22  1  0.699936  0.371542  0.067241  1
  Si  Si23  1  0.296760  0.631966  0.566186  1
  Si  Si24  1  0.796200  0.867482  0.183213  1
  Si  Si25  1  0.132528  0.203131  0.315762  1
  Si  Si26  1  0.867482  0.796200  0.816787  1
  Si  Si27  1  0.288165  0.955308  0.064520  1
  Si  Si28  1  0.546852  0.793081  0.315420  1
  Si  Si29  1  0.450802  0.208153  0.818296  1
  Si  Si30  1  0.793081  0.546852  0.684580  1
  Si  Si31  1  0.208153  0.450802  0.181704  1
  Si  Si32  1  0.707657  0.047939  0.565770  1
  Si  Si33  1  0.955308  0.288165  0.935480  1
  Si  Si34  1  0.047939  0.707657  0.434230  1
  Os  Os35  1  0.327309  0.327309  0.000000  1
