# generated using pymatgen
data_Pr15NdCd3AgIr4
_symmetry_space_group_name_H-M   'P 1'
_cell_length_a   10.01535653
_cell_length_b   10.01535596
_cell_length_c   10.01535712
_cell_angle_alpha   59.96216680
_cell_angle_beta   59.96217122
_cell_angle_gamma   59.96216944
_symmetry_Int_Tables_number   1
_chemical_formula_structural   Pr15NdCd3AgIr4
_chemical_formula_sum   'Pr15 Nd1 Cd3 Ag1 Ir4'
_cell_volume   709.75995727
_cell_formula_units_Z   1
loop_
 _symmetry_equiv_pos_site_id
 _symmetry_equiv_pos_as_xyz
  1  'x, y, z'
loop_
 _atom_site_type_symbol
 _atom_site_label
 _atom_site_symmetry_multiplicity
 _atom_site_fract_x
 _atom_site_fract_y
 _atom_site_fract_z
 _atom_site_occupancy
  Pr  Pr0  1  0.348642  0.348642  0.954462  1
  Pr  Pr1  1  0.348642  0.954462  0.348642  1
  Pr  Pr2  1  0.954462  0.348642  0.348642  1
  Pr  Pr3  1  0.809304  0.190588  0.190588  1
  Pr  Pr4  1  0.190024  0.808991  0.808991  1
  Pr  Pr5  1  0.190588  0.809304  0.190588  1
  Pr  Pr6  1  0.808991  0.190024  0.808991  1
  Pr  Pr7  1  0.190588  0.190588  0.809304  1
  Pr  Pr8  1  0.808991  0.808991  0.190024  1
  Pr  Pr9  1  0.936813  0.561394  0.561394  1
  Pr  Pr10  1  0.561055  0.938232  0.938232  1
  Pr  Pr11  1  0.561394  0.936813  0.561394  1
  Pr  Pr12  1  0.938232  0.561055  0.938232  1
  Pr  Pr13  1  0.561394  0.561394  0.936813  1
  Pr  Pr14  1  0.938232  0.938232  0.561055  1
  Nd  Nd15  1  0.347418  0.347418  0.347418  1
  Cd  Cd16  1  0.579580  0.579580  0.262411  1
  Cd  Cd17  1  0.579580  0.262411  0.579580  1
  Cd  Cd18  1  0.262411  0.579580  0.579580  1
  Ag  Ag19  1  0.581577  0.581577  0.581577  1
  Ir  Ir20  1  0.141516  0.141516  0.141516  1
  Ir  Ir21  1  0.142540  0.142540  0.575483  1
  Ir  Ir22  1  0.142540  0.575483  0.142540  1
  Ir  Ir23  1  0.575483  0.142540  0.142540  1
