# generated using pymatgen
data_Er4Al23GaPt7Rh2
_symmetry_space_group_name_H-M   'P 1'
_cell_length_a   7.49978836
_cell_length_b   7.49396473
_cell_length_c   13.17924816
_cell_angle_alpha   84.51324715
_cell_angle_beta   100.87349926
_cell_angle_gamma   119.71180075
_symmetry_Int_Tables_number   1
_chemical_formula_structural   Er4Al23GaPt7Rh2
_chemical_formula_sum   'Er4 Al23 Ga1 Pt7 Rh2'
_cell_volume   631.78070860
_cell_formula_units_Z   1
loop_
 _symmetry_equiv_pos_site_id
 _symmetry_equiv_pos_as_xyz
  1  'x, y, z'
loop_
 _atom_site_type_symbol
 _atom_site_label
 _atom_site_symmetry_multiplicity
 _atom_site_fract_x
 _atom_site_fract_y
 _atom_site_fract_z
 _atom_site_occupancy
  Er  Er0  1  0.732652  0.999858  0.190876  1
  Er  Er1  1  0.264362  0.002963  0.809020  1
  Er  Er2  1  0.061565  0.668020  0.191405  1
  Er  Er3  1  0.938600  0.328207  0.808805  1
  Al  Al4  1  0.188919  0.128106  0.181864  1
  Al  Al5  1  0.986413  0.669101  0.946552  1
  Al  Al6  1  0.020336  0.334454  0.053559  1
  Al  Al7  1  0.394723  0.664849  0.819646  1
  Al  Al8  1  0.600654  0.335634  0.182581  1
  Al  Al9  1  0.882898  0.664845  0.672281  1
  Al  Al10  1  0.118061  0.334442  0.326416  1
  Al  Al11  1  0.604467  0.458799  0.816990  1
  Al  Al12  1  0.396369  0.545176  0.180900  1
  Al  Al13  1  0.231873  0.341373  0.670148  1
  Al  Al14  1  0.769136  0.659599  0.329356  1
  Al  Al15  1  0.853778  0.333872  0.558703  1
  Al  Al16  1  0.186933  0.999878  0.558783  1
  Al  Al17  1  0.814236  0.999697  0.440671  1
  Al  Al18  1  0.348614  0.995784  0.054128  1
  Al  Al19  1  0.647989  0.997839  0.947103  1
  Al  Al20  1  0.556263  0.991985  0.672549  1
  Al  Al21  1  0.443123  0.006840  0.326754  1
  Al  Al22  1  0.522521  0.669330  0.560788  1
  Al  Al23  1  0.478469  0.330724  0.438327  1
  Al  Al24  1  0.684153  0.672734  0.044865  1
  Al  Al25  1  0.315164  0.332982  0.957907  1
  Al  Al26  1  0.146832  0.665129  0.441067  1
  Ga  Ga27  1  0.806089  0.866591  0.818533  1
  Pt  Pt28  1  0.546925  0.324991  0.637478  1
  Pt  Pt29  1  0.453965  0.674490  0.362276  1
  Pt  Pt30  1  0.888489  0.009088  0.636842  1
  Pt  Pt31  1  0.111825  0.990689  0.361360  1
  Pt  Pt32  1  0.672182  0.329277  0.999858  1
  Pt  Pt33  1  0.205120  0.667529  0.638744  1
  Pt  Pt34  1  0.796265  0.332275  0.361135  1
  Rh  Rh35  1  0.328861  0.671784  0.000035  1
  Rh  Rh36  1  0.001177  0.001065  0.001700  1
