# generated using pymatgen
data_Sm2CdCo2
_symmetry_space_group_name_H-M   'P 1'
_cell_length_a   7.23030515
_cell_length_b   7.23030577
_cell_length_c   4.01105300
_cell_angle_alpha   90.00000000
_cell_angle_beta   90.00000000
_cell_angle_gamma   148.98336128
_symmetry_Int_Tables_number   1
_chemical_formula_structural   Sm2CdCo2
_chemical_formula_sum   'Sm2 Cd1 Co2'
_cell_volume   108.04902595
_cell_formula_units_Z   1
loop_
 _symmetry_equiv_pos_site_id
 _symmetry_equiv_pos_as_xyz
  1  'x, y, z'
loop_
 _atom_site_type_symbol
 _atom_site_label
 _atom_site_symmetry_multiplicity
 _atom_site_fract_x
 _atom_site_fract_y
 _atom_site_fract_z
 _atom_site_occupancy
  Sm  Sm0  1  0.638595  0.361405  0.500000  1
  Sm  Sm1  1  0.361405  0.638595  0.500000  1
  Cd  Cd2  1  0.000000  0.000000  0.000000  1
  Co  Co3  1  0.791106  0.208894  0.000000  1
  Co  Co4  1  0.208894  0.791106  0.000000  1
