# generated using pymatgen
data_Ho4ReTc5Ge8
_symmetry_space_group_name_H-M   'P 1'
_cell_length_a   6.92847623
_cell_length_b   6.93141100
_cell_length_c   12.99406500
_cell_angle_alpha   90.00000000
_cell_angle_beta   90.04600383
_cell_angle_gamma   90.00000000
_symmetry_Int_Tables_number   1
_chemical_formula_structural   Ho4ReTc5Ge8
_chemical_formula_sum   'Ho8 Re2 Tc10 Ge16'
_cell_volume   624.02828862
_cell_formula_units_Z   2
loop_
 _symmetry_equiv_pos_site_id
 _symmetry_equiv_pos_as_xyz
  1  'x, y, z'
loop_
 _atom_site_type_symbol
 _atom_site_label
 _atom_site_symmetry_multiplicity
 _atom_site_fract_x
 _atom_site_fract_y
 _atom_site_fract_z
 _atom_site_occupancy
  Ho  Ho0  1  0.340573  0.990561  0.470991  1
  Ho  Ho1  1  0.508024  0.839233  0.722286  1
  Ho  Ho2  1  0.491018  0.158567  0.221308  1
  Ho  Ho3  1  0.840003  0.507784  0.277563  1
  Ho  Ho4  1  0.159427  0.490561  0.779009  1
  Ho  Ho5  1  0.659997  0.007784  0.972437  1
  Ho  Ho6  1  0.991976  0.339233  0.527714  1
  Ho  Ho7  1  0.008982  0.658567  0.028692  1
  Re  Re8  1  0.836784  0.162377  0.750119  1
  Re  Re9  1  0.663216  0.662377  0.499881  1
  Tc  Tc10  1  0.337504  0.336220  0.000048  1
  Tc  Tc11  1  0.162496  0.836220  0.249952  1
  Tc  Tc12  1  0.190790  0.978632  0.869652  1
  Tc  Tc13  1  0.521714  0.692015  0.119407  1
  Tc  Tc14  1  0.481000  0.313267  0.622360  1
  Tc  Tc15  1  0.688822  0.519747  0.877912  1
  Tc  Tc16  1  0.309210  0.478632  0.380348  1
  Tc  Tc17  1  0.811178  0.019747  0.372088  1
  Tc  Tc18  1  0.978286  0.192015  0.130593  1
  Tc  Tc19  1  0.019000  0.813267  0.627640  1
  Ge  Ge20  1  0.189779  0.113580  0.681009  1
  Ge  Ge21  1  0.387653  0.688906  0.931237  1
  Ge  Ge22  1  0.612439  0.311110  0.431589  1
  Ge  Ge23  1  0.688391  0.388346  0.068168  1
  Ge  Ge24  1  0.310221  0.613580  0.568991  1
  Ge  Ge25  1  0.811609  0.888346  0.181832  1
  Ge  Ge26  1  0.112347  0.188906  0.318763  1
  Ge  Ge27  1  0.887561  0.811110  0.818411  1
  Ge  Ge28  1  0.269925  0.984218  0.063655  1
  Ge  Ge29  1  0.516315  0.770953  0.313638  1
  Ge  Ge30  1  0.482229  0.225284  0.815703  1
  Ge  Ge31  1  0.776291  0.519199  0.684186  1
  Ge  Ge32  1  0.230075  0.484218  0.186345  1
  Ge  Ge33  1  0.723709  0.019199  0.565814  1
  Ge  Ge34  1  0.983685  0.270953  0.936362  1
  Ge  Ge35  1  0.017771  0.725284  0.434297  1
