# generated using pymatgen
data_PrTcP2Ru
_symmetry_space_group_name_H-M   'P 1'
_cell_length_a   5.81224822
_cell_length_b   5.81224710
_cell_length_c   5.81224816
_cell_angle_alpha   138.19963297
_cell_angle_beta   138.19962068
_cell_angle_gamma   60.59740003
_symmetry_Int_Tables_number   1
_chemical_formula_structural   PrTcP2Ru
_chemical_formula_sum   'Pr1 Tc1 P2 Ru1'
_cell_volume   86.30065245
_cell_formula_units_Z   1
loop_
 _symmetry_equiv_pos_site_id
 _symmetry_equiv_pos_as_xyz
  1  'x, y, z'
loop_
 _atom_site_type_symbol
 _atom_site_label
 _atom_site_symmetry_multiplicity
 _atom_site_fract_x
 _atom_site_fract_y
 _atom_site_fract_z
 _atom_site_occupancy
  Pr  Pr0  1  0.000000  0.000000  0.000000  1
  Tc  Tc1  1  0.750000  0.250000  0.500000  1
  P  P2  1  0.362157  0.362157  0.000000  1
  P  P3  1  0.637843  0.637843  0.000000  1
  Ru  Ru4  1  0.250000  0.750000  0.500000  1
