# generated using pymatgen
data_Yb2InSnPd2
_symmetry_space_group_name_H-M   'P 1'
_cell_length_a   4.31594000
_cell_length_b   7.33754200
_cell_length_c   8.53322500
_cell_angle_alpha   90.00000000
_cell_angle_beta   90.00000000
_cell_angle_gamma   90.00000000
_symmetry_Int_Tables_number   1
_chemical_formula_structural   Yb2InSnPd2
_chemical_formula_sum   'Yb4 In2 Sn2 Pd4'
_cell_volume   270.23350596
_cell_formula_units_Z   2
loop_
 _symmetry_equiv_pos_site_id
 _symmetry_equiv_pos_as_xyz
  1  'x, y, z'
loop_
 _atom_site_type_symbol
 _atom_site_label
 _atom_site_symmetry_multiplicity
 _atom_site_fract_x
 _atom_site_fract_y
 _atom_site_fract_z
 _atom_site_occupancy
  Yb  Yb0  1  0.250000  0.533783  0.179398  1
  Yb  Yb1  1  0.750000  0.467159  0.819541  1
  Yb  Yb2  1  0.250000  0.032841  0.319541  1
  Yb  Yb3  1  0.750000  0.966217  0.679398  1
  In  In4  1  0.250000  0.146757  0.936109  1
  In  In5  1  0.750000  0.353243  0.436109  1
  Sn  Sn6  1  0.250000  0.647421  0.561671  1
  Sn  Sn7  1  0.750000  0.852579  0.061671  1
  Pd  Pd8  1  0.750000  0.230833  0.132001  1
  Pd  Pd9  1  0.250000  0.269167  0.632001  1
  Pd  Pd10  1  0.750000  0.740520  0.371280  1
  Pd  Pd11  1  0.250000  0.759480  0.871280  1
