# generated using pymatgen
data_Rb4NbMoCl12
_symmetry_space_group_name_H-M   'P 1'
_cell_length_a   7.16408500
_cell_length_b   7.16408500
_cell_length_c   10.33019500
_cell_angle_alpha   90.00000000
_cell_angle_beta   90.00000000
_cell_angle_gamma   90.00000000
_symmetry_Int_Tables_number   1
_chemical_formula_structural   Rb4NbMoCl12
_chemical_formula_sum   'Rb4 Nb1 Mo1 Cl12'
_cell_volume   530.18810466
_cell_formula_units_Z   1
loop_
 _symmetry_equiv_pos_site_id
 _symmetry_equiv_pos_as_xyz
  1  'x, y, z'
loop_
 _atom_site_type_symbol
 _atom_site_label
 _atom_site_symmetry_multiplicity
 _atom_site_fract_x
 _atom_site_fract_y
 _atom_site_fract_z
 _atom_site_occupancy
  Rb  Rb0  1  0.500000  0.000000  0.727916  1
  Rb  Rb1  1  0.000000  0.500000  0.272084  1
  Rb  Rb2  1  0.500000  0.000000  0.272084  1
  Rb  Rb3  1  0.000000  0.500000  0.727916  1
  Nb  Nb4  1  0.000000  0.000000  0.000000  1
  Mo  Mo5  1  0.500000  0.500000  0.500000  1
  Cl  Cl6  1  0.000000  0.000000  0.766354  1
  Cl  Cl7  1  0.500000  0.500000  0.264254  1
  Cl  Cl8  1  0.740008  0.740008  0.500000  1
  Cl  Cl9  1  0.236923  0.236923  0.000000  1
  Cl  Cl10  1  0.740008  0.259992  0.500000  1
  Cl  Cl11  1  0.236923  0.763077  0.000000  1
  Cl  Cl12  1  0.000000  0.000000  0.233646  1
  Cl  Cl13  1  0.500000  0.500000  0.735746  1
  Cl  Cl14  1  0.259992  0.259992  0.500000  1
  Cl  Cl15  1  0.763077  0.763077  0.000000  1
  Cl  Cl16  1  0.259992  0.740008  0.500000  1
  Cl  Cl17  1  0.763077  0.236923  0.000000  1
