# generated using pymatgen
data_Lu2Zn3SnRh6
_symmetry_space_group_name_H-M   'P 1'
_cell_length_a   4.50337400
_cell_length_b   6.29731300
_cell_length_c   13.54894800
_cell_angle_alpha   90.00000000
_cell_angle_beta   90.00028373
_cell_angle_gamma   90.00000000
_symmetry_Int_Tables_number   1
_chemical_formula_structural   Lu2Zn3SnRh6
_chemical_formula_sum   'Lu4 Zn6 Sn2 Rh12'
_cell_volume   384.23672501
_cell_formula_units_Z   2
loop_
 _symmetry_equiv_pos_site_id
 _symmetry_equiv_pos_as_xyz
  1  'x, y, z'
loop_
 _atom_site_type_symbol
 _atom_site_label
 _atom_site_symmetry_multiplicity
 _atom_site_fract_x
 _atom_site_fract_y
 _atom_site_fract_z
 _atom_site_occupancy
  Lu  Lu0  1  0.000052  0.000000  0.999166  1
  Lu  Lu1  1  0.499948  0.500000  0.167025  1
  Lu  Lu2  1  0.999976  0.000000  0.333045  1
  Lu  Lu3  1  0.500029  0.500000  0.500825  1
  Zn  Zn4  1  0.000007  0.500000  0.002802  1
  Zn  Zn5  1  0.499978  0.000000  0.163679  1
  Zn  Zn6  1  0.999979  0.500000  0.336334  1
  Zn  Zn7  1  0.500010  0.000000  0.497180  1
  Zn  Zn8  1  0.000038  0.500000  0.662152  1
  Zn  Zn9  1  0.500014  0.000000  0.837854  1
  Sn  Sn10  1  0.000023  0.000000  0.668485  1
  Sn  Sn11  1  0.500007  0.500000  0.831507  1
  Rh  Rh12  1  0.500018  0.258066  0.995128  1
  Rh  Rh13  1  0.500018  0.741934  0.995128  1
  Rh  Rh14  1  0.999964  0.249288  0.166252  1
  Rh  Rh15  1  0.999964  0.750713  0.166252  1
  Rh  Rh16  1  0.499964  0.250703  0.333763  1
  Rh  Rh17  1  0.499964  0.749299  0.333763  1
  Rh  Rh18  1  0.000029  0.241964  0.504881  1
  Rh  Rh19  1  0.000029  0.758036  0.504881  1
  Rh  Rh20  1  0.500012  0.244810  0.671200  1
  Rh  Rh21  1  0.500012  0.755192  0.671200  1
  Rh  Rh22  1  0.999985  0.255174  0.828749  1
  Rh  Rh23  1  0.999985  0.744827  0.828749  1
