# generated using pymatgen
data_Tb17Dy3(Ir3Rh)3
_symmetry_space_group_name_H-M   'P 1'
_cell_length_a   10.92337100
_cell_length_b   10.92317700
_cell_length_c   6.41064200
_cell_angle_alpha   90.00000000
_cell_angle_beta   90.00000000
_cell_angle_gamma   89.99780747
_symmetry_Int_Tables_number   1
_chemical_formula_structural   Tb17Dy3(Ir3Rh)3
_chemical_formula_sum   'Tb17 Dy3 Ir9 Rh3'
_cell_volume   764.90443614
_cell_formula_units_Z   1
loop_
 _symmetry_equiv_pos_site_id
 _symmetry_equiv_pos_as_xyz
  1  'x, y, z'
loop_
 _atom_site_type_symbol
 _atom_site_label
 _atom_site_symmetry_multiplicity
 _atom_site_fract_x
 _atom_site_fract_y
 _atom_site_fract_z
 _atom_site_occupancy
  Tb  Tb0  1  0.290556  0.088776  0.379886  1
  Tb  Tb1  1  0.290358  0.910784  0.879770  1
  Tb  Tb2  1  0.709642  0.089216  0.879770  1
  Tb  Tb3  1  0.709444  0.911224  0.379886  1
  Tb  Tb4  1  0.589212  0.790322  0.879741  1
  Tb  Tb5  1  0.588743  0.209543  0.379928  1
  Tb  Tb6  1  0.411257  0.790457  0.379928  1
  Tb  Tb7  1  0.410788  0.209678  0.879741  1
  Tb  Tb8  1  0.208862  0.411211  0.619072  1
  Tb  Tb9  1  0.209290  0.589134  0.121446  1
  Tb  Tb10  1  0.790710  0.410866  0.121446  1
  Tb  Tb11  1  0.791138  0.588789  0.619072  1
  Tb  Tb12  1  0.910867  0.709255  0.121407  1
  Tb  Tb13  1  0.911177  0.291233  0.619107  1
  Tb  Tb14  1  0.088823  0.708767  0.619107  1
  Tb  Tb15  1  0.089133  0.290745  0.121407  1
  Tb  Tb16  1  0.000000  0.000000  0.500237  1
  Dy  Dy17  1  0.000000  0.000000  0.000035  1
  Dy  Dy18  1  0.500000  0.500000  0.000041  1
  Dy  Dy19  1  0.500000  0.500000  0.500242  1
  Ir  Ir20  1  0.845711  0.153077  0.249608  1
  Ir  Ir21  1  0.845948  0.846488  0.750017  1
  Ir  Ir22  1  0.154052  0.153512  0.750017  1
  Ir  Ir23  1  0.154289  0.846923  0.249608  1
  Ir  Ir24  1  0.653354  0.346112  0.749783  1
  Ir  Ir25  1  0.652918  0.654132  0.249839  1
  Ir  Ir26  1  0.347082  0.345868  0.249839  1
  Ir  Ir27  1  0.346646  0.653888  0.749783  1
  Ir  Ir28  1  0.000000  0.500000  0.375235  1
  Rh  Rh29  1  0.500000  0.000000  0.124276  1
  Rh  Rh30  1  0.500000  0.000000  0.624553  1
  Rh  Rh31  1  0.000000  0.500000  0.876171  1
