# generated using pymatgen
data_HoTm2In3GePt2
_symmetry_space_group_name_H-M   'P 1'
_cell_length_a   7.45320933
_cell_length_b   7.46060105
_cell_length_c   4.10546400
_cell_angle_alpha   90.00000000
_cell_angle_beta   90.00000000
_cell_angle_gamma   120.03552263
_symmetry_Int_Tables_number   1
_chemical_formula_structural   HoTm2In3GePt2
_chemical_formula_sum   'Ho1 Tm2 In3 Ge1 Pt2'
_cell_volume   197.63071810
_cell_formula_units_Z   1
loop_
 _symmetry_equiv_pos_site_id
 _symmetry_equiv_pos_as_xyz
  1  'x, y, z'
loop_
 _atom_site_type_symbol
 _atom_site_label
 _atom_site_symmetry_multiplicity
 _atom_site_fract_x
 _atom_site_fract_y
 _atom_site_fract_z
 _atom_site_occupancy
  Ho  Ho0  1  0.401559  0.411923  0.500000  1
  Tm  Tm1  1  0.588165  0.989088  0.500000  1
  Tm  Tm2  1  0.011026  0.599148  0.500000  1
  In  In3  1  0.005424  0.257501  0.000000  1
  In  In4  1  0.742655  0.748445  0.000000  1
  In  In5  1  0.251760  0.994043  0.000000  1
  Ge  Ge6  1  0.667014  0.333146  0.000000  1
  Pt  Pt7  1  0.999292  0.999299  0.500000  1
  Pt  Pt8  1  0.333105  0.667407  0.000000  1
