# generated using pymatgen
data_Er3MgCd2Si2Au
_symmetry_space_group_name_H-M   'P 1'
_cell_length_a   7.20320425
_cell_length_b   7.20320478
_cell_length_c   4.32269900
_cell_angle_alpha   90.00000000
_cell_angle_beta   90.00000000
_cell_angle_gamma   120.73021982
_symmetry_Int_Tables_number   1
_chemical_formula_structural   Er3MgCd2Si2Au
_chemical_formula_sum   'Er3 Mg1 Cd2 Si2 Au1'
_cell_volume   192.79432268
_cell_formula_units_Z   1
loop_
 _symmetry_equiv_pos_site_id
 _symmetry_equiv_pos_as_xyz
  1  'x, y, z'
loop_
 _atom_site_type_symbol
 _atom_site_label
 _atom_site_symmetry_multiplicity
 _atom_site_fract_x
 _atom_site_fract_y
 _atom_site_fract_z
 _atom_site_occupancy
  Er  Er0  1  0.580908  0.001308  0.000000  1
  Er  Er1  1  0.001308  0.580908  0.000000  1
  Er  Er2  1  0.417363  0.417363  0.000000  1
  Mg  Mg3  1  0.756784  0.756784  0.500000  1
  Cd  Cd4  1  0.253931  0.998863  0.500000  1
  Cd  Cd5  1  0.998863  0.253931  0.500000  1
  Si  Si6  1  0.338548  0.666965  0.500000  1
  Si  Si7  1  0.666965  0.338548  0.500000  1
  Au  Au8  1  0.985329  0.985329  0.000000  1
