# generated using pymatgen
data_Dy3Tl2Cd
_symmetry_space_group_name_H-M   'P 1'
_cell_length_a   5.36021700
_cell_length_b   5.36021580
_cell_length_c   6.56029700
_cell_angle_alpha   90.00000000
_cell_angle_beta   90.00000000
_cell_angle_gamma   120.00000121
_symmetry_Int_Tables_number   1
_chemical_formula_structural   Dy3Tl2Cd
_chemical_formula_sum   'Dy3 Tl2 Cd1'
_cell_volume   163.23706383
_cell_formula_units_Z   1
loop_
 _symmetry_equiv_pos_site_id
 _symmetry_equiv_pos_as_xyz
  1  'x, y, z'
loop_
 _atom_site_type_symbol
 _atom_site_label
 _atom_site_symmetry_multiplicity
 _atom_site_fract_x
 _atom_site_fract_y
 _atom_site_fract_z
 _atom_site_occupancy
  Dy  Dy0  1  0.000000  0.000000  0.000000  1
  Dy  Dy1  1  0.333333  0.666667  0.671947  1
  Dy  Dy2  1  0.666667  0.333333  0.328053  1
  Tl  Tl3  1  0.666667  0.333333  0.818913  1
  Tl  Tl4  1  0.333333  0.666667  0.181087  1
  Cd  Cd5  1  0.000000  0.000000  0.500000  1
