# generated using pymatgen
data_Ba3CaPtO6
_symmetry_space_group_name_H-M   'P 1'
_cell_length_a   7.18142405
_cell_length_b   7.18142381
_cell_length_c   7.18142313
_cell_angle_alpha   92.37423793
_cell_angle_beta   92.37423782
_cell_angle_gamma   92.37422530
_symmetry_Int_Tables_number   1
_chemical_formula_structural   Ba3CaPtO6
_chemical_formula_sum   'Ba6 Ca2 Pt2 O12'
_cell_volume   369.38542405
_cell_formula_units_Z   2
loop_
 _symmetry_equiv_pos_site_id
 _symmetry_equiv_pos_as_xyz
  1  'x, y, z'
loop_
 _atom_site_type_symbol
 _atom_site_label
 _atom_site_symmetry_multiplicity
 _atom_site_fract_x
 _atom_site_fract_y
 _atom_site_fract_z
 _atom_site_occupancy
  Ba  Ba0  1  0.886524  0.250000  0.613476  1
  Ba  Ba1  1  0.386524  0.113476  0.750000  1
  Ba  Ba2  1  0.750000  0.386524  0.113476  1
  Ba  Ba3  1  0.250000  0.613476  0.886524  1
  Ba  Ba4  1  0.613476  0.886524  0.250000  1
  Ba  Ba5  1  0.113476  0.750000  0.386524  1
  Ca  Ca6  1  0.750000  0.750000  0.750000  1
  Ca  Ca7  1  0.250000  0.250000  0.250000  1
  Pt  Pt8  1  0.500000  0.500000  0.500000  1
  Pt  Pt9  1  0.000000  0.000000  0.000000  1
  O  O10  1  0.912809  0.723107  0.041945  1
  O  O11  1  0.458055  0.776893  0.587191  1
  O  O12  1  0.041945  0.912809  0.723107  1
  O  O13  1  0.276893  0.958055  0.087191  1
  O  O14  1  0.958055  0.087191  0.276893  1
  O  O15  1  0.723107  0.041945  0.912809  1
  O  O16  1  0.587191  0.458055  0.776893  1
  O  O17  1  0.776893  0.587191  0.458055  1
  O  O18  1  0.412809  0.541945  0.223107  1
  O  O19  1  0.223107  0.412809  0.541945  1
  O  O20  1  0.541945  0.223107  0.412809  1
  O  O21  1  0.087191  0.276893  0.958055  1
