# generated using pymatgen
data_Ho3Co5P6Ir3Ru
_symmetry_space_group_name_H-M   'P 1'
_cell_length_a   3.77631500
_cell_length_b   10.81009300
_cell_length_c   12.51383500
_cell_angle_alpha   90.00000000
_cell_angle_beta   90.00000000
_cell_angle_gamma   90.00000000
_symmetry_Int_Tables_number   1
_chemical_formula_structural   Ho3Co5P6Ir3Ru
_chemical_formula_sum   'Ho6 Co10 P12 Ir6 Ru2'
_cell_volume   510.84373109
_cell_formula_units_Z   2
loop_
 _symmetry_equiv_pos_site_id
 _symmetry_equiv_pos_as_xyz
  1  'x, y, z'
loop_
 _atom_site_type_symbol
 _atom_site_label
 _atom_site_symmetry_multiplicity
 _atom_site_fract_x
 _atom_site_fract_y
 _atom_site_fract_z
 _atom_site_occupancy
  Ho  Ho0  1  0.000000  0.500000  0.521232  1
  Ho  Ho1  1  0.500000  0.000000  0.478768  1
  Ho  Ho2  1  0.500000  0.815193  0.196950  1
  Ho  Ho3  1  0.500000  0.184807  0.196950  1
  Ho  Ho4  1  0.000000  0.684807  0.803050  1
  Ho  Ho5  1  0.000000  0.315193  0.803050  1
  Co  Co6  1  0.000000  0.500000  0.991500  1
  Co  Co7  1  0.500000  0.000000  0.008500  1
  Co  Co8  1  0.500000  0.879687  0.715931  1
  Co  Co9  1  0.500000  0.120313  0.715931  1
  Co  Co10  1  0.000000  0.620313  0.284069  1
  Co  Co11  1  0.000000  0.379687  0.284069  1
  Co  Co12  1  0.500000  0.331830  0.994235  1
  Co  Co13  1  0.500000  0.668170  0.994235  1
  Co  Co14  1  0.000000  0.168170  0.005765  1
  Co  Co15  1  0.000000  0.831830  0.005765  1
  P  P16  1  0.500000  0.310243  0.625332  1
  P  P17  1  0.500000  0.689757  0.625332  1
  P  P18  1  0.000000  0.189757  0.374668  1
  P  P19  1  0.000000  0.810243  0.374668  1
  P  P20  1  0.500000  0.500000  0.894891  1
  P  P21  1  0.000000  0.000000  0.105109  1
  P  P22  1  0.500000  0.844944  0.895823  1
  P  P23  1  0.500000  0.155056  0.895823  1
  P  P24  1  0.000000  0.655056  0.104177  1
  P  P25  1  0.000000  0.344944  0.104177  1
  P  P26  1  0.500000  0.500000  0.342108  1
  P  P27  1  0.000000  0.000000  0.657892  1
  Ir  Ir28  1  0.500000  0.298832  0.425951  1
  Ir  Ir29  1  0.500000  0.701168  0.425951  1
  Ir  Ir30  1  0.000000  0.201168  0.574049  1
  Ir  Ir31  1  0.000000  0.798832  0.574049  1
  Ir  Ir32  1  0.500000  0.500000  0.709307  1
  Ir  Ir33  1  0.000000  0.000000  0.290693  1
  Ru  Ru34  1  0.500000  0.500000  0.157618  1
  Ru  Ru35  1  0.000000  0.000000  0.842382  1
