# generated using pymatgen
data_Ba3Ho2WO9
_symmetry_space_group_name_H-M   'P 1'
_cell_length_a   10.54371135
_cell_length_b   10.54371233
_cell_length_c   10.54371165
_cell_angle_alpha   146.46693461
_cell_angle_beta   131.66386403
_cell_angle_gamma   60.11065429
_symmetry_Int_Tables_number   1
_chemical_formula_structural   Ba3Ho2WO9
_chemical_formula_sum   'Ba6 Ho4 W2 O18'
_cell_volume   479.28813104
_cell_formula_units_Z   2
loop_
 _symmetry_equiv_pos_site_id
 _symmetry_equiv_pos_as_xyz
  1  'x, y, z'
loop_
 _atom_site_type_symbol
 _atom_site_label
 _atom_site_symmetry_multiplicity
 _atom_site_fract_x
 _atom_site_fract_y
 _atom_site_fract_z
 _atom_site_occupancy
  Ba  Ba0  1  0.579902  0.839430  0.740471  1
  Ba  Ba1  1  0.265618  0.500000  0.765618  1
  Ba  Ba2  1  0.901040  0.160570  0.740471  1
  Ba  Ba3  1  0.098960  0.839430  0.259529  1
  Ba  Ba4  1  0.734382  0.500000  0.234382  1
  Ba  Ba5  1  0.420098  0.160570  0.259529  1
  Ho  Ho6  1  0.329184  0.329184  0.000000  1
  Ho  Ho7  1  0.000000  0.000000  0.000000  1
  Ho  Ho8  1  0.670816  0.670816  0.000000  1
  Ho  Ho9  1  0.500000  0.000000  0.500000  1
  W  W10  1  0.165751  0.665751  0.500000  1
  W  W11  1  0.834249  0.334249  0.500000  1
  O  O12  1  0.601631  0.330912  0.270717  1
  O  O13  1  0.246651  0.000000  0.246651  1
  O  O14  1  0.939805  0.669088  0.270717  1
  O  O15  1  0.910571  0.639234  0.728663  1
  O  O16  1  0.588806  0.340322  0.751516  1
  O  O17  1  0.240620  0.970712  0.730092  1
  O  O18  1  0.759380  0.489474  0.730092  1
  O  O19  1  0.411194  0.162711  0.751516  1
  O  O20  1  0.089429  0.818092  0.728663  1
  O  O21  1  0.060195  0.330912  0.729283  1
  O  O22  1  0.753349  0.000000  0.753349  1
  O  O23  1  0.398369  0.669088  0.729283  1
  O  O24  1  0.759380  0.029288  0.269908  1
  O  O25  1  0.411194  0.659678  0.248484  1
  O  O26  1  0.089429  0.360766  0.271337  1
  O  O27  1  0.910571  0.181908  0.271337  1
  O  O28  1  0.588806  0.837289  0.248484  1
  O  O29  1  0.240620  0.510526  0.269908  1
