# generated using pymatgen
data_LaLuCdCu9
_symmetry_space_group_name_H-M   'P 1'
_cell_length_a   5.12328500
_cell_length_b   5.12328442
_cell_length_c   16.41381200
_cell_angle_alpha   90.00000000
_cell_angle_beta   90.00000000
_cell_angle_gamma   120.00001022
_symmetry_Int_Tables_number   1
_chemical_formula_structural   LaLuCdCu9
_chemical_formula_sum   'La2 Lu2 Cd2 Cu18'
_cell_volume   373.11011572
_cell_formula_units_Z   2
loop_
 _symmetry_equiv_pos_site_id
 _symmetry_equiv_pos_as_xyz
  1  'x, y, z'
loop_
 _atom_site_type_symbol
 _atom_site_label
 _atom_site_symmetry_multiplicity
 _atom_site_fract_x
 _atom_site_fract_y
 _atom_site_fract_z
 _atom_site_occupancy
  La  La0  1  0.666667  0.333333  0.237175  1
  La  La1  1  0.333333  0.666667  0.737175  1
  Lu  Lu2  1  0.666667  0.333333  0.471282  1
  Lu  Lu3  1  0.333333  0.666667  0.971282  1
  Cd  Cd4  1  0.666667  0.333333  0.034431  1
  Cd  Cd5  1  0.333333  0.666667  0.534431  1
  Cu  Cu6  1  0.333333  0.666667  0.250887  1
  Cu  Cu7  1  0.666667  0.333333  0.750887  1
  Cu  Cu8  1  0.168315  0.831685  0.377072  1
  Cu  Cu9  1  0.168315  0.336632  0.377072  1
  Cu  Cu10  1  0.000000  0.000000  0.753255  1
  Cu  Cu11  1  0.000000  0.000000  0.253255  1
  Cu  Cu12  1  0.000000  0.000000  0.000677  1
  Cu  Cu13  1  0.000000  0.000000  0.500677  1
  Cu  Cu14  1  0.166634  0.333271  0.123692  1
  Cu  Cu15  1  0.833366  0.166634  0.623692  1
  Cu  Cu16  1  0.333271  0.166634  0.623692  1
  Cu  Cu17  1  0.666729  0.833366  0.123692  1
  Cu  Cu18  1  0.166634  0.833366  0.123692  1
  Cu  Cu19  1  0.831685  0.663368  0.877072  1
  Cu  Cu20  1  0.831685  0.168315  0.877072  1
  Cu  Cu21  1  0.833366  0.666729  0.623692  1
  Cu  Cu22  1  0.336632  0.168315  0.877072  1
  Cu  Cu23  1  0.663368  0.831685  0.377072  1
