# generated using pymatgen
data_Nd4Ga4NiIr3
_symmetry_space_group_name_H-M   'P 1'
_cell_length_a   4.40713300
_cell_length_b   7.09292444
_cell_length_c   7.79365123
_cell_angle_alpha   90.08857325
_cell_angle_beta   90.00000000
_cell_angle_gamma   90.00000000
_symmetry_Int_Tables_number   1
_chemical_formula_structural   Nd4Ga4NiIr3
_chemical_formula_sum   'Nd4 Ga4 Ni1 Ir3'
_cell_volume   243.62504831
_cell_formula_units_Z   1
loop_
 _symmetry_equiv_pos_site_id
 _symmetry_equiv_pos_as_xyz
  1  'x, y, z'
loop_
 _atom_site_type_symbol
 _atom_site_label
 _atom_site_symmetry_multiplicity
 _atom_site_fract_x
 _atom_site_fract_y
 _atom_site_fract_z
 _atom_site_occupancy
  Nd  Nd0  1  0.250000  0.022754  0.809004  1
  Nd  Nd1  1  0.250000  0.521518  0.693833  1
  Nd  Nd2  1  0.750000  0.979636  0.193405  1
  Nd  Nd3  1  0.750000  0.482053  0.305648  1
  Ga  Ga4  1  0.250000  0.162553  0.423588  1
  Ga  Ga5  1  0.250000  0.666629  0.068146  1
  Ga  Ga6  1  0.750000  0.835260  0.579584  1
  Ga  Ga7  1  0.750000  0.337239  0.923953  1
  Ni  Ni8  1  0.750000  0.709577  0.899638  1
  Ir  Ir9  1  0.250000  0.780917  0.397763  1
  Ir  Ir10  1  0.250000  0.284966  0.101636  1
  Ir  Ir11  1  0.750000  0.216898  0.603802  1
