# generated using pymatgen
data_Li8Ho8Sn7Bi
_symmetry_space_group_name_H-M   'P 1'
_cell_length_a   9.39148800
_cell_length_b   9.39169368
_cell_length_c   7.22982917
_cell_angle_alpha   90.09209974
_cell_angle_beta   90.00066317
_cell_angle_gamma   119.99739882
_symmetry_Int_Tables_number   1
_chemical_formula_structural   Li8Ho8Sn7Bi
_chemical_formula_sum   'Li8 Ho8 Sn7 Bi1'
_cell_volume   552.26513108
_cell_formula_units_Z   1
loop_
 _symmetry_equiv_pos_site_id
 _symmetry_equiv_pos_as_xyz
  1  'x, y, z'
loop_
 _atom_site_type_symbol
 _atom_site_label
 _atom_site_symmetry_multiplicity
 _atom_site_fract_x
 _atom_site_fract_y
 _atom_site_fract_z
 _atom_site_occupancy
  Li  Li0  1  0.166597  0.333286  0.284995  1
  Li  Li1  1  0.168033  0.833625  0.288558  1
  Li  Li2  1  0.665530  0.833656  0.288510  1
  Li  Li3  1  0.833382  0.666641  0.787166  1
  Li  Li4  1  0.829086  0.164775  0.791153  1
  Li  Li5  1  0.335730  0.164740  0.791109  1
  Li  Li6  1  0.335334  0.670695  0.669119  1
  Li  Li7  1  0.666000  0.332032  0.171282  1
  Ho  Ho8  1  0.512701  0.025312  0.493608  1
  Ho  Ho9  1  0.517315  0.490745  0.490678  1
  Ho  Ho10  1  0.973521  0.490743  0.490605  1
  Ho  Ho11  1  0.487326  0.974729  0.994615  1
  Ho  Ho12  1  0.493371  0.514576  0.996725  1
  Ho  Ho13  1  0.021114  0.514545  0.996658  1
  Ho  Ho14  1  0.997219  0.994490  0.496976  1
  Ho  Ho15  1  0.997747  0.995469  0.002697  1
  Sn  Sn16  1  0.166874  0.832999  0.730527  1
  Sn  Sn17  1  0.666206  0.833035  0.730431  1
  Sn  Sn18  1  0.832996  0.666103  0.231176  1
  Sn  Sn19  1  0.833855  0.167562  0.230191  1
  Sn  Sn20  1  0.333666  0.167496  0.230233  1
  Sn  Sn21  1  0.332633  0.665308  0.260896  1
  Sn  Sn22  1  0.666998  0.333979  0.761470  1
  Bi  Bi23  1  0.166768  0.333459  0.732593  1
