# generated using pymatgen
data_Ho4Tm2LuCo17P12
_symmetry_space_group_name_H-M   'P 1'
_cell_length_a   3.70276900
_cell_length_b   10.56800500
_cell_length_c   12.27616100
_cell_angle_alpha   90.00000000
_cell_angle_beta   90.00000000
_cell_angle_gamma   90.00000000
_symmetry_Int_Tables_number   1
_chemical_formula_structural   Ho4Tm2LuCo17P12
_chemical_formula_sum   'Ho4 Tm2 Lu1 Co17 P12'
_cell_volume   480.37699898
_cell_formula_units_Z   1
loop_
 _symmetry_equiv_pos_site_id
 _symmetry_equiv_pos_as_xyz
  1  'x, y, z'
loop_
 _atom_site_type_symbol
 _atom_site_label
 _atom_site_symmetry_multiplicity
 _atom_site_fract_x
 _atom_site_fract_y
 _atom_site_fract_z
 _atom_site_occupancy
  Ho  Ho0  1  0.000000  0.500000  0.531140  1
  Ho  Ho1  1  0.500000  0.000000  0.477390  1
  Ho  Ho2  1  0.500000  0.823084  0.207975  1
  Ho  Ho3  1  0.500000  0.176916  0.207975  1
  Tm  Tm4  1  0.000000  0.682821  0.795448  1
  Tm  Tm5  1  0.000000  0.317179  0.795448  1
  Lu  Lu6  1  0.500000  0.500000  0.154805  1
  Co  Co7  1  0.000000  0.000000  0.834303  1
  Co  Co8  1  0.500000  0.500000  0.703630  1
  Co  Co9  1  0.000000  0.000000  0.295749  1
  Co  Co10  1  0.000000  0.500000  0.982253  1
  Co  Co11  1  0.500000  0.000000  0.013079  1
  Co  Co12  1  0.500000  0.324761  0.986715  1
  Co  Co13  1  0.500000  0.675239  0.986715  1
  Co  Co14  1  0.000000  0.160051  0.999228  1
  Co  Co15  1  0.000000  0.839949  0.999228  1
  Co  Co16  1  0.500000  0.293218  0.436184  1
  Co  Co17  1  0.500000  0.706782  0.436184  1
  Co  Co18  1  0.000000  0.201189  0.571172  1
  Co  Co19  1  0.000000  0.798811  0.571172  1
  Co  Co20  1  0.500000  0.880075  0.707081  1
  Co  Co21  1  0.500000  0.119925  0.707081  1
  Co  Co22  1  0.000000  0.623550  0.301199  1
  Co  Co23  1  0.000000  0.376450  0.301199  1
  P  P24  1  0.500000  0.500000  0.881526  1
  P  P25  1  0.000000  0.000000  0.115836  1
  P  P26  1  0.500000  0.500000  0.364363  1
  P  P27  1  0.000000  0.000000  0.653170  1
  P  P28  1  0.500000  0.309068  0.619204  1
  P  P29  1  0.500000  0.690932  0.619204  1
  P  P30  1  0.000000  0.187513  0.387115  1
  P  P31  1  0.000000  0.812487  0.387115  1
  P  P32  1  0.500000  0.853013  0.886642  1
  P  P33  1  0.500000  0.146987  0.886642  1
  P  P34  1  0.000000  0.667840  0.098417  1
  P  P35  1  0.000000  0.332160  0.098417  1
