# generated using pymatgen
data_LaVF7
_symmetry_space_group_name_H-M   'P 1'
_cell_length_a   5.71022700
_cell_length_b   9.23466033
_cell_length_c   12.28962958
_cell_angle_alpha   62.77920969
_cell_angle_beta   90.00000000
_cell_angle_gamma   90.00000000
_symmetry_Int_Tables_number   1
_chemical_formula_structural   LaVF7
_chemical_formula_sum   'La4 V4 F28'
_cell_volume   576.28482924
_cell_formula_units_Z   4
loop_
 _symmetry_equiv_pos_site_id
 _symmetry_equiv_pos_as_xyz
  1  'x, y, z'
loop_
 _atom_site_type_symbol
 _atom_site_label
 _atom_site_symmetry_multiplicity
 _atom_site_fract_x
 _atom_site_fract_y
 _atom_site_fract_z
 _atom_site_occupancy
  La  La0  1  0.758238  0.805306  0.268664  1
  La  La1  1  0.258238  0.194694  0.231336  1
  La  La2  1  0.241762  0.194694  0.731336  1
  La  La3  1  0.741762  0.805306  0.768664  1
  V  V4  1  0.244914  0.726388  0.543831  1
  V  V5  1  0.744914  0.273612  0.956169  1
  V  V6  1  0.755086  0.273612  0.456169  1
  V  V7  1  0.255086  0.726388  0.043831  1
  F  F8  1  0.970814  0.715077  0.458523  1
  F  F9  1  0.470814  0.284923  0.041477  1
  F  F10  1  0.029186  0.284923  0.541477  1
  F  F11  1  0.529186  0.715077  0.958523  1
  F  F12  1  0.060500  0.709433  0.925293  1
  F  F13  1  0.560500  0.290567  0.574707  1
  F  F14  1  0.939500  0.290567  0.074707  1
  F  F15  1  0.439500  0.709433  0.425293  1
  F  F16  1  0.735777  0.497570  0.866805  1
  F  F17  1  0.235777  0.502430  0.633195  1
  F  F18  1  0.264223  0.502430  0.133195  1
  F  F19  1  0.764223  0.497570  0.366805  1
  F  F20  1  0.739948  0.051275  0.043770  1
  F  F21  1  0.239948  0.948725  0.456230  1
  F  F22  1  0.260052  0.948725  0.956230  1
  F  F23  1  0.760052  0.051275  0.543770  1
  F  F24  1  0.050564  0.743303  0.664458  1
  F  F25  1  0.550564  0.256697  0.835542  1
  F  F26  1  0.949436  0.256697  0.335542  1
  F  F27  1  0.449436  0.743303  0.164458  1
  F  F28  1  0.013019  0.268820  0.866161  1
  F  F29  1  0.513019  0.731180  0.633839  1
  F  F30  1  0.986981  0.731180  0.133839  1
  F  F31  1  0.486981  0.268820  0.366161  1
  F  F32  1  0.090099  0.969336  0.229859  1
  F  F33  1  0.590099  0.030664  0.270141  1
  F  F34  1  0.909901  0.030664  0.770141  1
  F  F35  1  0.409901  0.969336  0.729859  1
