# generated using pymatgen
data_Li2HoAs2Pd
_symmetry_space_group_name_H-M   'P 1'
_cell_length_a   4.22873000
_cell_length_b   4.22872984
_cell_length_c   6.72760400
_cell_angle_alpha   90.00000000
_cell_angle_beta   90.00000000
_cell_angle_gamma   119.99998560
_symmetry_Int_Tables_number   1
_chemical_formula_structural   Li2HoAs2Pd
_chemical_formula_sum   'Li2 Ho1 As2 Pd1'
_cell_volume   104.18639525
_cell_formula_units_Z   1
loop_
 _symmetry_equiv_pos_site_id
 _symmetry_equiv_pos_as_xyz
  1  'x, y, z'
loop_
 _atom_site_type_symbol
 _atom_site_label
 _atom_site_symmetry_multiplicity
 _atom_site_fract_x
 _atom_site_fract_y
 _atom_site_fract_z
 _atom_site_occupancy
  Li  Li0  1  0.000000  0.000000  0.496691  1
  Li  Li1  1  0.333333  0.666667  0.354912  1
  Ho  Ho2  1  0.000000  0.000000  0.995910  1
  As  As3  1  0.666667  0.333333  0.250023  1
  As  As4  1  0.333333  0.666667  0.752891  1
  Pd  Pd5  1  0.666667  0.333333  0.649571  1
