# generated using pymatgen
data_Dy3Y13(HgRh)4
_symmetry_space_group_name_H-M   'P 1'
_cell_length_a   9.61424368
_cell_length_b   9.62120641
_cell_length_c   9.62117300
_cell_angle_alpha   60.00006136
_cell_angle_beta   59.97601856
_cell_angle_gamma   59.97598651
_symmetry_Int_Tables_number   1
_chemical_formula_structural   Dy3Y13(HgRh)4
_chemical_formula_sum   'Dy3 Y13 Hg4 Rh4'
_cell_volume   629.07186398
_cell_formula_units_Z   1
loop_
 _symmetry_equiv_pos_site_id
 _symmetry_equiv_pos_as_xyz
  1  'x, y, z'
loop_
 _atom_site_type_symbol
 _atom_site_label
 _atom_site_symmetry_multiplicity
 _atom_site_fract_x
 _atom_site_fract_y
 _atom_site_fract_z
 _atom_site_occupancy
  Dy  Dy0  1  0.601205  0.601349  0.601351  1
  Dy  Dy1  1  0.601206  0.601351  0.196094  1
  Dy  Dy2  1  0.601206  0.196093  0.601352  1
  Y  Y3  1  0.194228  0.601926  0.601927  1
  Y  Y4  1  0.061022  0.438951  0.438948  1
  Y  Y5  1  0.439079  0.060954  0.060951  1
  Y  Y6  1  0.439080  0.060955  0.439012  1
  Y  Y7  1  0.061024  0.438949  0.061079  1
  Y  Y8  1  0.439079  0.439014  0.060954  1
  Y  Y9  1  0.061021  0.061078  0.438949  1
  Y  Y10  1  0.186549  0.813642  0.813644  1
  Y  Y11  1  0.813389  0.186529  0.186533  1
  Y  Y12  1  0.813390  0.186530  0.813548  1
  Y  Y13  1  0.186552  0.813641  0.186164  1
  Y  Y14  1  0.813390  0.813548  0.186529  1
  Y  Y15  1  0.186551  0.186162  0.813641  1
  Hg  Hg16  1  0.834194  0.834145  0.834144  1
  Hg  Hg17  1  0.834194  0.834144  0.497515  1
  Hg  Hg18  1  0.834193  0.497516  0.834144  1
  Hg  Hg19  1  0.497403  0.834198  0.834198  1
  Rh  Rh20  1  0.394649  0.393171  0.393171  1
  Rh  Rh21  1  0.394641  0.393169  0.819022  1
  Rh  Rh22  1  0.394638  0.819025  0.393168  1
  Rh  Rh23  1  0.818117  0.393960  0.393962  1
