# generated using pymatgen
data_Ho6Fe8Co5Ni5P12
_symmetry_space_group_name_H-M   'P 1'
_cell_length_a   3.71831100
_cell_length_b   10.54296797
_cell_length_c   12.16153207
_cell_angle_alpha   90.30624857
_cell_angle_beta   90.00000000
_cell_angle_gamma   90.00000000
_symmetry_Int_Tables_number   1
_chemical_formula_structural   Ho6Fe8Co5Ni5P12
_chemical_formula_sum   'Ho6 Fe8 Co5 Ni5 P12'
_cell_volume   476.74998042
_cell_formula_units_Z   1
loop_
 _symmetry_equiv_pos_site_id
 _symmetry_equiv_pos_as_xyz
  1  'x, y, z'
loop_
 _atom_site_type_symbol
 _atom_site_label
 _atom_site_symmetry_multiplicity
 _atom_site_fract_x
 _atom_site_fract_y
 _atom_site_fract_z
 _atom_site_occupancy
  Ho  Ho0  1  0.000000  0.499913  0.520342  1
  Ho  Ho1  1  0.500000  0.000386  0.478426  1
  Ho  Ho2  1  0.500000  0.818145  0.204863  1
  Ho  Ho3  1  0.500000  0.182603  0.204694  1
  Ho  Ho4  1  0.000000  0.681639  0.795348  1
  Ho  Ho5  1  0.000000  0.317926  0.795559  1
  Fe  Fe6  1  0.000000  0.499569  0.987903  1
  Fe  Fe7  1  0.500000  0.000227  0.012658  1
  Fe  Fe8  1  0.500000  0.297674  0.428115  1
  Fe  Fe9  1  0.500000  0.701658  0.427392  1
  Fe  Fe10  1  0.000000  0.202359  0.572065  1
  Fe  Fe11  1  0.000000  0.797091  0.572297  1
  Fe  Fe12  1  0.500000  0.498636  0.156601  1
  Fe  Fe13  1  0.000000  0.000185  0.843008  1
  Co  Co14  1  0.000000  0.379174  0.288825  1
  Co  Co15  1  0.500000  0.332921  0.995260  1
  Co  Co16  1  0.500000  0.667423  0.995256  1
  Co  Co17  1  0.000000  0.168500  0.005856  1
  Co  Co18  1  0.000000  0.832576  0.004807  1
  Ni  Ni19  1  0.500000  0.878644  0.711153  1
  Ni  Ni20  1  0.500000  0.121409  0.711578  1
  Ni  Ni21  1  0.000000  0.621108  0.288135  1
  Ni  Ni22  1  0.500000  0.499503  0.702762  1
  Ni  Ni23  1  0.000000  0.000311  0.297555  1
  P  P24  1  0.500000  0.310510  0.611413  1
  P  P25  1  0.500000  0.688689  0.611180  1
  P  P26  1  0.000000  0.191719  0.386755  1
  P  P27  1  0.000000  0.810354  0.388278  1
  P  P28  1  0.500000  0.499764  0.885580  1
  P  P29  1  0.000000  0.000498  0.114860  1
  P  P30  1  0.500000  0.845779  0.896207  1
  P  P31  1  0.500000  0.154746  0.896830  1
  P  P32  1  0.000000  0.654219  0.103983  1
  P  P33  1  0.000000  0.347552  0.106902  1
  P  P34  1  0.500000  0.496587  0.344589  1
  P  P35  1  0.000000  0.999999  0.652967  1
