# generated using pymatgen
data_U8Ta9Si16W3
_symmetry_space_group_name_H-M   'P 1'
_cell_length_a   6.98231415
_cell_length_b   6.98171142
_cell_length_c   12.90683069
_cell_angle_alpha   89.97218975
_cell_angle_beta   90.00765210
_cell_angle_gamma   90.01005744
_symmetry_Int_Tables_number   1
_chemical_formula_structural   U8Ta9Si16W3
_chemical_formula_sum   'U8 Ta9 Si16 W3'
_cell_volume   629.18857752
_cell_formula_units_Z   1
loop_
 _symmetry_equiv_pos_site_id
 _symmetry_equiv_pos_as_xyz
  1  'x, y, z'
loop_
 _atom_site_type_symbol
 _atom_site_label
 _atom_site_symmetry_multiplicity
 _atom_site_fract_x
 _atom_site_fract_y
 _atom_site_fract_z
 _atom_site_occupancy
  U  U0  1  0.993431  0.330896  0.221257  1
  U  U1  1  0.005697  0.670859  0.719147  1
  U  U2  1  0.168662  0.494248  0.469879  1
  U  U3  1  0.506531  0.829743  0.031240  1
  U  U4  1  0.830655  0.506630  0.970128  1
  U  U5  1  0.495366  0.169314  0.529021  1
  U  U6  1  0.328380  0.993362  0.779987  1
  U  U7  1  0.670102  0.004744  0.279989  1
  Ta  Ta8  1  0.167156  0.167670  0.000436  1
  Ta  Ta9  1  0.831931  0.832457  0.499609  1
  Ta  Ta10  1  0.332333  0.668437  0.250423  1
  Ta  Ta11  1  0.668228  0.330973  0.749196  1
  Ta  Ta12  1  0.157928  0.001660  0.374228  1
  Ta  Ta13  1  0.842880  0.999035  0.874148  1
  Ta  Ta14  1  0.498988  0.657617  0.624254  1
  Ta  Ta15  1  0.340634  0.500424  0.876039  1
  Ta  Ta16  1  0.500897  0.341989  0.123738  1
  Si  Si17  1  0.293321  0.037315  0.184205  1
  Si  Si18  1  0.705310  0.963068  0.683816  1
  Si  Si19  1  0.463240  0.792804  0.433887  1
  Si  Si20  1  0.201622  0.540214  0.066856  1
  Si  Si21  1  0.538858  0.202259  0.934104  1
  Si  Si22  1  0.797059  0.460886  0.564568  1
  Si  Si23  1  0.037810  0.297068  0.814459  1
  Si  Si24  1  0.960904  0.703180  0.315243  1
  Si  Si25  1  0.375400  0.296400  0.316085  1
  Si  Si26  1  0.628210  0.706075  0.815451  1
  Si  Si27  1  0.204509  0.875729  0.565588  1
  Si  Si28  1  0.129088  0.794700  0.936400  1
  Si  Si29  1  0.796328  0.126155  0.066250  1
  Si  Si30  1  0.870560  0.207121  0.434899  1
  Si  Si31  1  0.291439  0.369644  0.683199  1
  Si  Si32  1  0.707279  0.628709  0.185524  1
  W  W33  1  0.662832  0.497958  0.375355  1
  W  W34  1  0.999588  0.161360  0.625152  1
  W  W35  1  0.996847  0.839294  0.126238  1
