# generated using pymatgen
data_Nb4GaTe4
_symmetry_space_group_name_H-M   'P 1'
_cell_length_a   4.90498100
_cell_length_b   11.09310100
_cell_length_c   19.30770400
_cell_angle_alpha   90.00000000
_cell_angle_beta   90.00000000
_cell_angle_gamma   90.00000000
_symmetry_Int_Tables_number   1
_chemical_formula_structural   Nb4GaTe4
_chemical_formula_sum   'Nb16 Ga4 Te16'
_cell_volume   1050.56016378
_cell_formula_units_Z   4
loop_
 _symmetry_equiv_pos_site_id
 _symmetry_equiv_pos_as_xyz
  1  'x, y, z'
loop_
 _atom_site_type_symbol
 _atom_site_label
 _atom_site_symmetry_multiplicity
 _atom_site_fract_x
 _atom_site_fract_y
 _atom_site_fract_z
 _atom_site_occupancy
  Nb  Nb0  1  0.500000  0.564772  0.381031  1
  Nb  Nb1  1  0.500000  0.435228  0.618969  1
  Nb  Nb2  1  0.500000  0.064772  0.118969  1
  Nb  Nb3  1  0.500000  0.935228  0.881031  1
  Nb  Nb4  1  0.500000  0.707542  0.537068  1
  Nb  Nb5  1  0.500000  0.292458  0.462932  1
  Nb  Nb6  1  0.500000  0.207542  0.962932  1
  Nb  Nb7  1  0.500000  0.792458  0.037068  1
  Nb  Nb8  1  0.000000  0.692559  0.441822  1
  Nb  Nb9  1  0.000000  0.307441  0.558178  1
  Nb  Nb10  1  0.000000  0.192559  0.058178  1
  Nb  Nb11  1  0.000000  0.807441  0.941822  1
  Nb  Nb12  1  0.000000  0.399363  0.389635  1
  Nb  Nb13  1  0.000000  0.600637  0.610365  1
  Nb  Nb14  1  0.000000  0.899363  0.110365  1
  Nb  Nb15  1  0.000000  0.100637  0.889635  1
  Ga  Ga16  1  0.249962  0.500000  0.500000  1
  Ga  Ga17  1  0.750038  0.000000  0.000000  1
  Ga  Ga18  1  0.750038  0.500000  0.500000  1
  Ga  Ga19  1  0.249962  0.000000  0.000000  1
  Te  Te20  1  0.000000  0.844005  0.561512  1
  Te  Te21  1  0.000000  0.155995  0.438488  1
  Te  Te22  1  0.000000  0.344005  0.938488  1
  Te  Te23  1  0.000000  0.655995  0.061512  1
  Te  Te24  1  0.500000  0.333254  0.316953  1
  Te  Te25  1  0.500000  0.666746  0.683047  1
  Te  Te26  1  0.500000  0.833254  0.183047  1
  Te  Te27  1  0.500000  0.166746  0.816953  1
  Te  Te28  1  0.500000  0.819504  0.403704  1
  Te  Te29  1  0.500000  0.180496  0.596296  1
  Te  Te30  1  0.500000  0.319504  0.096296  1
  Te  Te31  1  0.500000  0.680496  0.903704  1
  Te  Te32  1  0.000000  0.607036  0.302510  1
  Te  Te33  1  0.000000  0.392964  0.697490  1
  Te  Te34  1  0.000000  0.107036  0.197490  1
  Te  Te35  1  0.000000  0.892964  0.802510  1
