# generated using pymatgen
data_K6Li4TaTiP6
_symmetry_space_group_name_H-M   'P 1'
_cell_length_a   9.89611704
_cell_length_b   9.89611671
_cell_length_c   14.81677300
_cell_angle_alpha   90.00000000
_cell_angle_beta   90.00000000
_cell_angle_gamma   142.99892108
_symmetry_Int_Tables_number   1
_chemical_formula_structural   K6Li4TaTiP6
_chemical_formula_sum   'K12 Li8 Ta2 Ti2 P12'
_cell_volume   873.28728309
_cell_formula_units_Z   2
loop_
 _symmetry_equiv_pos_site_id
 _symmetry_equiv_pos_as_xyz
  1  'x, y, z'
loop_
 _atom_site_type_symbol
 _atom_site_label
 _atom_site_symmetry_multiplicity
 _atom_site_fract_x
 _atom_site_fract_y
 _atom_site_fract_z
 _atom_site_occupancy
  K  K0  1  0.106555  0.445767  0.671224  1
  K  K1  1  0.713566  0.716537  0.681099  1
  K  K2  1  0.216537  0.213566  0.818901  1
  K  K3  1  0.786434  0.783463  0.181099  1
  K  K4  1  0.945767  0.606555  0.828776  1
  K  K5  1  0.554233  0.893445  0.328776  1
  K  K6  1  0.393445  0.054233  0.171224  1
  K  K7  1  0.050756  0.393095  0.173707  1
  K  K8  1  0.893095  0.550756  0.326293  1
  K  K9  1  0.449244  0.106905  0.673707  1
  K  K10  1  0.606905  0.949245  0.826293  1
  K  K11  1  0.283463  0.286434  0.318901  1
  Li  Li12  1  0.918257  0.081743  0.000000  1
  Li  Li13  1  0.581743  0.418257  0.500000  1
  Li  Li14  1  0.082962  0.917038  0.000000  1
  Li  Li15  1  0.417038  0.582962  0.500000  1
  Li  Li16  1  0.749370  0.250630  0.000000  1
  Li  Li17  1  0.750630  0.249370  0.500000  1
  Li  Li18  1  0.248263  0.751737  0.000000  1
  Li  Li19  1  0.251737  0.748263  0.500000  1
  Ta  Ta20  1  0.084385  0.915615  0.500000  1
  Ta  Ta21  1  0.415615  0.584385  0.000000  1
  Ti  Ti22  1  0.913537  0.086463  0.500000  1
  Ti  Ti23  1  0.586463  0.413537  0.000000  1
  P  P24  1  0.887459  0.566355  0.089933  1
  P  P25  1  0.433645  0.112541  0.910067  1
  P  P26  1  0.612541  0.933645  0.589933  1
  P  P27  1  0.934037  0.615353  0.590447  1
  P  P28  1  0.115353  0.434037  0.909553  1
  P  P29  1  0.565963  0.884647  0.090447  1
  P  P30  1  0.384647  0.065963  0.409553  1
  P  P31  1  0.222155  0.219340  0.586805  1
  P  P32  1  0.719340  0.722155  0.913195  1
  P  P33  1  0.277845  0.280660  0.086805  1
  P  P34  1  0.066355  0.387459  0.410067  1
  P  P35  1  0.780660  0.777845  0.413195  1
