# generated using pymatgen
data_LaPa7(AlTc)8
_symmetry_space_group_name_H-M   'P 1'
_cell_length_a   3.89922100
_cell_length_b   7.45942626
_cell_length_c   16.17709943
_cell_angle_alpha   91.06339967
_cell_angle_beta   90.00000000
_cell_angle_gamma   90.00000000
_symmetry_Int_Tables_number   1
_chemical_formula_structural   LaPa7(AlTc)8
_chemical_formula_sum   'La1 Pa7 Al8 Tc8'
_cell_volume   470.44529197
_cell_formula_units_Z   1
loop_
 _symmetry_equiv_pos_site_id
 _symmetry_equiv_pos_as_xyz
  1  'x, y, z'
loop_
 _atom_site_type_symbol
 _atom_site_label
 _atom_site_symmetry_multiplicity
 _atom_site_fract_x
 _atom_site_fract_y
 _atom_site_fract_z
 _atom_site_occupancy
  La  La0  1  0.250000  0.165255  0.941529  1
  Pa  Pa1  1  0.250000  0.552956  0.777403  1
  Pa  Pa2  1  0.750000  0.432263  0.217318  1
  Pa  Pa3  1  0.750000  0.933447  0.283504  1
  Pa  Pa4  1  0.250000  0.064935  0.718967  1
  Pa  Pa5  1  0.250000  0.683131  0.560302  1
  Pa  Pa6  1  0.750000  0.324875  0.438371  1
  Pa  Pa7  1  0.750000  0.816457  0.062246  1
  Al  Al8  1  0.250000  0.613255  0.345604  1
  Al  Al9  1  0.750000  0.388566  0.645689  1
  Al  Al10  1  0.750000  0.870839  0.845724  1
  Al  Al11  1  0.250000  0.111532  0.159676  1
  Al  Al12  1  0.250000  0.498877  0.064791  1
  Al  Al13  1  0.750000  0.497401  0.934882  1
  Al  Al14  1  0.750000  0.013458  0.563257  1
  Al  Al15  1  0.250000  0.990117  0.436825  1
  Tc  Tc16  1  0.250000  0.758026  0.183649  1
  Tc  Tc17  1  0.750000  0.265009  0.798332  1
  Tc  Tc18  1  0.750000  0.763698  0.681074  1
  Tc  Tc19  1  0.250000  0.244343  0.324424  1
  Tc  Tc20  1  0.250000  0.737027  0.940090  1
  Tc  Tc21  1  0.750000  0.268898  0.081036  1
  Tc  Tc22  1  0.750000  0.749596  0.440155  1
  Tc  Tc23  1  0.250000  0.256039  0.555153  1
