# generated using pymatgen
data_Lu2Al2IrRh
_symmetry_space_group_name_H-M   'P 1'
_cell_length_a   4.19346500
_cell_length_b   6.76005901
_cell_length_c   7.84984578
_cell_angle_alpha   89.95557514
_cell_angle_beta   90.00000000
_cell_angle_gamma   90.00000000
_symmetry_Int_Tables_number   1
_chemical_formula_structural   Lu2Al2IrRh
_chemical_formula_sum   'Lu4 Al4 Ir2 Rh2'
_cell_volume   222.52791772
_cell_formula_units_Z   2
loop_
 _symmetry_equiv_pos_site_id
 _symmetry_equiv_pos_as_xyz
  1  'x, y, z'
loop_
 _atom_site_type_symbol
 _atom_site_label
 _atom_site_symmetry_multiplicity
 _atom_site_fract_x
 _atom_site_fract_y
 _atom_site_fract_z
 _atom_site_occupancy
  Lu  Lu0  1  0.250000  0.531718  0.178659  1
  Lu  Lu1  1  0.750000  0.468282  0.821341  1
  Lu  Lu2  1  0.750000  0.965686  0.679575  1
  Lu  Lu3  1  0.250000  0.034314  0.320425  1
  Al  Al4  1  0.250000  0.638802  0.560547  1
  Al  Al5  1  0.750000  0.361198  0.439453  1
  Al  Al6  1  0.750000  0.860493  0.059962  1
  Al  Al7  1  0.250000  0.139507  0.940038  1
  Ir  Ir8  1  0.250000  0.764858  0.877113  1
  Ir  Ir9  1  0.750000  0.235142  0.122887  1
  Rh  Rh10  1  0.750000  0.736216  0.379388  1
  Rh  Rh11  1  0.250000  0.263784  0.620612  1
