# generated using pymatgen
data_Sr2Yb(HoSn2)2
_symmetry_space_group_name_H-M   'P 1'
_cell_length_a   8.05242000
_cell_length_b   8.51327400
_cell_length_c   16.23729300
_cell_angle_alpha   90.00000000
_cell_angle_beta   90.00000000
_cell_angle_gamma   90.00000000
_symmetry_Int_Tables_number   1
_chemical_formula_structural   Sr2Yb(HoSn2)2
_chemical_formula_sum   'Sr8 Yb4 Ho8 Sn16'
_cell_volume   1113.10634354
_cell_formula_units_Z   4
loop_
 _symmetry_equiv_pos_site_id
 _symmetry_equiv_pos_as_xyz
  1  'x, y, z'
loop_
 _atom_site_type_symbol
 _atom_site_label
 _atom_site_symmetry_multiplicity
 _atom_site_fract_x
 _atom_site_fract_y
 _atom_site_fract_z
 _atom_site_occupancy
  Sr  Sr0  1  0.506842  0.677687  0.595157  1
  Sr  Sr1  1  0.006842  0.822313  0.904843  1
  Sr  Sr2  1  0.493158  0.322313  0.095157  1
  Sr  Sr3  1  0.993158  0.177687  0.404843  1
  Sr  Sr4  1  0.493158  0.322313  0.404843  1
  Sr  Sr5  1  0.993158  0.177687  0.095157  1
  Sr  Sr6  1  0.506842  0.677687  0.904843  1
  Sr  Sr7  1  0.006842  0.822313  0.595157  1
  Yb  Yb8  1  0.836627  0.507535  0.750000  1
  Yb  Yb9  1  0.336627  0.992465  0.750000  1
  Yb  Yb10  1  0.163373  0.492465  0.250000  1
  Yb  Yb11  1  0.663373  0.007535  0.250000  1
  Ho  Ho12  1  0.673667  0.169827  0.621766  1
  Ho  Ho13  1  0.173667  0.330173  0.878234  1
  Ho  Ho14  1  0.326333  0.830173  0.121766  1
  Ho  Ho15  1  0.826333  0.669827  0.378234  1
  Ho  Ho16  1  0.326333  0.830173  0.378234  1
  Ho  Ho17  1  0.826333  0.669827  0.121766  1
  Ho  Ho18  1  0.673667  0.169827  0.878234  1
  Ho  Ho19  1  0.173667  0.330173  0.621766  1
  Sn  Sn20  1  0.660771  0.958579  0.459308  1
  Sn  Sn21  1  0.160771  0.541421  0.040692  1
  Sn  Sn22  1  0.339229  0.041421  0.959308  1
  Sn  Sn23  1  0.839229  0.458579  0.540692  1
  Sn  Sn24  1  0.339229  0.041421  0.540692  1
  Sn  Sn25  1  0.839229  0.458579  0.959308  1
  Sn  Sn26  1  0.660771  0.958579  0.040692  1
  Sn  Sn27  1  0.160771  0.541421  0.459308  1
  Sn  Sn28  1  0.470512  0.366918  0.750000  1
  Sn  Sn29  1  0.970512  0.133082  0.750000  1
  Sn  Sn30  1  0.529488  0.633082  0.250000  1
  Sn  Sn31  1  0.029488  0.866918  0.250000  1
  Sn  Sn32  1  0.715576  0.885967  0.750000  1
  Sn  Sn33  1  0.215576  0.614033  0.750000  1
  Sn  Sn34  1  0.284424  0.114033  0.250000  1
  Sn  Sn35  1  0.784424  0.385967  0.250000  1
