# generated using pymatgen
data_NdAgRh2O7
_symmetry_space_group_name_H-M   'P 1'
_cell_length_a   7.47089967
_cell_length_b   7.26726467
_cell_length_c   7.26726237
_cell_angle_alpha   58.92665576
_cell_angle_beta   59.06865763
_cell_angle_gamma   59.06865873
_symmetry_Int_Tables_number   1
_chemical_formula_structural   NdAgRh2O7
_chemical_formula_sum   'Nd2 Ag2 Rh4 O14'
_cell_volume   272.76840027
_cell_formula_units_Z   2
loop_
 _symmetry_equiv_pos_site_id
 _symmetry_equiv_pos_as_xyz
  1  'x, y, z'
loop_
 _atom_site_type_symbol
 _atom_site_label
 _atom_site_symmetry_multiplicity
 _atom_site_fract_x
 _atom_site_fract_y
 _atom_site_fract_z
 _atom_site_occupancy
  Nd  Nd0  1  0.125000  0.625000  0.625000  1
  Nd  Nd1  1  0.625000  0.625000  0.625000  1
  Ag  Ag2  1  0.625000  0.625000  0.125000  1
  Ag  Ag3  1  0.625000  0.125000  0.625000  1
  Rh  Rh4  1  0.125000  0.125000  0.625000  1
  Rh  Rh5  1  0.125000  0.625000  0.125000  1
  Rh  Rh6  1  0.625000  0.125000  0.125000  1
  Rh  Rh7  1  0.125000  0.125000  0.125000  1
  O  O8  1  0.517787  0.482213  0.482213  1
  O  O9  1  0.732213  0.767787  0.767787  1
  O  O10  1  0.449153  0.046368  0.453746  1
  O  O11  1  0.199266  0.796254  0.203632  1
  O  O12  1  0.449153  0.453746  0.046368  1
  O  O13  1  0.037064  0.462936  0.462936  1
  O  O14  1  0.445397  0.054603  0.054603  1
  O  O15  1  0.050734  0.046368  0.453746  1
  O  O16  1  0.050734  0.453746  0.046368  1
  O  O17  1  0.804603  0.195397  0.195397  1
  O  O18  1  0.212936  0.787064  0.787064  1
  O  O19  1  0.800847  0.203632  0.796254  1
  O  O20  1  0.199266  0.203632  0.796254  1
  O  O21  1  0.800847  0.796254  0.203632  1
