# generated using pymatgen
data_YbY(In2Ir)2
_symmetry_space_group_name_H-M   'P 1'
_cell_length_a   5.56871541
_cell_length_b   5.56871473
_cell_length_c   8.24469700
_cell_angle_alpha   90.00000000
_cell_angle_beta   90.00000000
_cell_angle_gamma   135.49044273
_symmetry_Int_Tables_number   1
_chemical_formula_structural   YbY(In2Ir)2
_chemical_formula_sum   'Yb1 Y1 In4 Ir2'
_cell_volume   179.23391869
_cell_formula_units_Z   1
loop_
 _symmetry_equiv_pos_site_id
 _symmetry_equiv_pos_as_xyz
  1  'x, y, z'
loop_
 _atom_site_type_symbol
 _atom_site_label
 _atom_site_symmetry_multiplicity
 _atom_site_fract_x
 _atom_site_fract_y
 _atom_site_fract_z
 _atom_site_occupancy
  Yb  Yb0  1  0.933015  0.066985  0.750000  1
  Y  Y1  1  0.070295  0.929705  0.250000  1
  In  In2  1  0.644567  0.355433  0.551771  1
  In  In3  1  0.355926  0.644074  0.452374  1
  In  In4  1  0.644567  0.355433  0.948229  1
  In  In5  1  0.355926  0.644074  0.047626  1
  Ir  Ir6  1  0.775338  0.224662  0.250000  1
  Ir  Ir7  1  0.220365  0.779635  0.750000  1
