# generated using pymatgen
data_TbDyHf2(NiP)4
_symmetry_space_group_name_H-M   'P 1'
_cell_length_a   3.85692900
_cell_length_b   3.85692919
_cell_length_c   14.66960700
_cell_angle_alpha   90.00000000
_cell_angle_beta   90.00000000
_cell_angle_gamma   119.99998981
_symmetry_Int_Tables_number   1
_chemical_formula_structural   TbDyHf2(NiP)4
_chemical_formula_sum   'Tb1 Dy1 Hf2 Ni4 P4'
_cell_volume   188.98723242
_cell_formula_units_Z   1
loop_
 _symmetry_equiv_pos_site_id
 _symmetry_equiv_pos_as_xyz
  1  'x, y, z'
loop_
 _atom_site_type_symbol
 _atom_site_label
 _atom_site_symmetry_multiplicity
 _atom_site_fract_x
 _atom_site_fract_y
 _atom_site_fract_z
 _atom_site_occupancy
  Tb  Tb0  1  0.000000  0.000000  0.500000  1
  Dy  Dy1  1  0.000000  0.000000  0.000000  1
  Hf  Hf2  1  0.000000  0.000000  0.249999  1
  Hf  Hf3  1  0.000000  0.000000  0.750001  1
  Ni  Ni4  1  0.333333  0.666667  0.149891  1
  Ni  Ni5  1  0.666667  0.333333  0.850109  1
  Ni  Ni6  1  0.666667  0.333333  0.649899  1
  Ni  Ni7  1  0.333333  0.666667  0.350101  1
  P  P8  1  0.333333  0.666667  0.625370  1
  P  P9  1  0.666667  0.333333  0.374630  1
  P  P10  1  0.666667  0.333333  0.125356  1
  P  P11  1  0.333333  0.666667  0.874644  1
