# generated using pymatgen
data_Y4P7Rh8
_symmetry_space_group_name_H-M   'P 1'
_cell_length_a   3.94749000
_cell_length_b   12.67530786
_cell_length_c   13.10114016
_cell_angle_alpha   80.71031312
_cell_angle_beta   90.00000000
_cell_angle_gamma   90.00000000
_symmetry_Int_Tables_number   1
_chemical_formula_structural   Y4P7Rh8
_chemical_formula_sum   'Y8 P14 Rh16'
_cell_volume   646.92674046
_cell_formula_units_Z   2
loop_
 _symmetry_equiv_pos_site_id
 _symmetry_equiv_pos_as_xyz
  1  'x, y, z'
loop_
 _atom_site_type_symbol
 _atom_site_label
 _atom_site_symmetry_multiplicity
 _atom_site_fract_x
 _atom_site_fract_y
 _atom_site_fract_z
 _atom_site_occupancy
  Y  Y0  1  0.250000  0.104680  0.789172  1
  Y  Y1  1  0.750000  0.895320  0.210828  1
  Y  Y2  1  0.250000  0.275584  0.100797  1
  Y  Y3  1  0.750000  0.724416  0.899203  1
  Y  Y4  1  0.250000  0.520031  0.292843  1
  Y  Y5  1  0.750000  0.479969  0.707157  1
  Y  Y6  1  0.250000  0.210251  0.436964  1
  Y  Y7  1  0.750000  0.789749  0.563036  1
  P  P8  1  0.250000  0.047284  0.102549  1
  P  P9  1  0.750000  0.952716  0.897451  1
  P  P10  1  0.250000  0.313963  0.689828  1
  P  P11  1  0.750000  0.686037  0.310172  1
  P  P12  1  0.250000  0.608256  0.565615  1
  P  P13  1  0.750000  0.391744  0.434385  1
  P  P14  1  0.250000  0.843539  0.717642  1
  P  P15  1  0.750000  0.156461  0.282358  1
  P  P16  1  0.750000  0.259461  0.923433  1
  P  P17  1  0.250000  0.740539  0.076567  1
  P  P18  1  0.750000  0.092463  0.586936  1
  P  P19  1  0.250000  0.907537  0.413064  1
  P  P20  1  0.750000  0.471767  0.129407  1
  P  P21  1  0.250000  0.528233  0.870593  1
  Rh  Rh22  1  0.250000  0.988994  0.574920  1
  Rh  Rh23  1  0.750000  0.011006  0.425080  1
  Rh  Rh24  1  0.250000  0.663412  0.729756  1
  Rh  Rh25  1  0.750000  0.336588  0.270244  1
  Rh  Rh26  1  0.250000  0.553462  0.045374  1
  Rh  Rh27  1  0.750000  0.446538  0.954626  1
  Rh  Rh28  1  0.250000  0.058783  0.274951  1
  Rh  Rh29  1  0.750000  0.941217  0.725049  1
  Rh  Rh30  1  0.250000  0.423595  0.525979  1
  Rh  Rh31  1  0.750000  0.576405  0.474021  1
  Rh  Rh32  1  0.250000  0.915444  0.996190  1
  Rh  Rh33  1  0.750000  0.084556  0.003810  1
  Rh  Rh34  1  0.250000  0.728221  0.395740  1
  Rh  Rh35  1  0.750000  0.271779  0.604260  1
  Rh  Rh36  1  0.250000  0.342411  0.859669  1
  Rh  Rh37  1  0.750000  0.657589  0.140331  1
