# generated using pymatgen
data_Pr2Be(BRu)7
_symmetry_space_group_name_H-M   'P 1'
_cell_length_a   6.50009800
_cell_length_b   6.50009800
_cell_length_c   10.13785400
_cell_angle_alpha   90.00000000
_cell_angle_beta   90.00000000
_cell_angle_gamma   90.00000000
_symmetry_Int_Tables_number   1
_chemical_formula_structural   Pr2Be(BRu)7
_chemical_formula_sum   'Pr4 Be2 B14 Ru14'
_cell_volume   428.33724722
_cell_formula_units_Z   2
loop_
 _symmetry_equiv_pos_site_id
 _symmetry_equiv_pos_as_xyz
  1  'x, y, z'
loop_
 _atom_site_type_symbol
 _atom_site_label
 _atom_site_symmetry_multiplicity
 _atom_site_fract_x
 _atom_site_fract_y
 _atom_site_fract_z
 _atom_site_occupancy
  Pr  Pr0  1  0.735376  0.875460  0.999120  1
  Pr  Pr1  1  0.124540  0.735376  0.499120  1
  Pr  Pr2  1  0.875460  0.264624  0.499120  1
  Pr  Pr3  1  0.264624  0.124540  0.999120  1
  Be  Be4  1  0.500000  0.500000  0.349211  1
  Be  Be5  1  0.500000  0.500000  0.849211  1
  B  B6  1  0.500000  0.000000  0.588222  1
  B  B7  1  0.500000  0.000000  0.409809  1
  B  B8  1  0.899307  0.276360  0.172890  1
  B  B9  1  0.103991  0.721162  0.828074  1
  B  B10  1  0.276360  0.100693  0.672890  1
  B  B11  1  0.100693  0.723640  0.172890  1
  B  B12  1  0.278838  0.103991  0.328074  1
  B  B13  1  0.896009  0.278838  0.828074  1
  B  B14  1  0.500000  0.500000  0.655098  1
  B  B15  1  0.500000  0.500000  0.155098  1
  B  B16  1  0.000000  0.500000  0.909809  1
  B  B17  1  0.723640  0.899307  0.672890  1
  B  B18  1  0.721162  0.896009  0.328074  1
  B  B19  1  0.000000  0.500000  0.088222  1
  Ru  Ru20  1  0.202311  0.399592  0.750063  1
  Ru  Ru21  1  0.388113  0.276568  0.503746  1
  Ru  Ru22  1  0.399592  0.797689  0.250063  1
  Ru  Ru23  1  0.202523  0.397476  0.244539  1
  Ru  Ru24  1  0.611887  0.723432  0.503746  1
  Ru  Ru25  1  0.602524  0.202523  0.744539  1
  Ru  Ru26  1  0.276568  0.611887  0.003746  1
  Ru  Ru27  1  0.723432  0.388113  0.003746  1
  Ru  Ru28  1  0.797477  0.602524  0.244539  1
  Ru  Ru29  1  0.797689  0.600408  0.750063  1
  Ru  Ru30  1  0.397476  0.797477  0.744539  1
  Ru  Ru31  1  0.000000  0.000000  0.250794  1
  Ru  Ru32  1  0.600408  0.202311  0.250063  1
  Ru  Ru33  1  0.000000  0.000000  0.750794  1
