# generated using pymatgen
data_SrNd(Ga3Pt)2
_symmetry_space_group_name_H-M   'P 1'
_cell_length_a   6.17339566
_cell_length_b   6.17339511
_cell_length_c   5.98864900
_cell_angle_alpha   90.00000000
_cell_angle_beta   90.00000000
_cell_angle_gamma   117.75269345
_symmetry_Int_Tables_number   1
_chemical_formula_structural   SrNd(Ga3Pt)2
_chemical_formula_sum   'Sr1 Nd1 Ga6 Pt2'
_cell_volume   201.97773959
_cell_formula_units_Z   1
loop_
 _symmetry_equiv_pos_site_id
 _symmetry_equiv_pos_as_xyz
  1  'x, y, z'
loop_
 _atom_site_type_symbol
 _atom_site_label
 _atom_site_symmetry_multiplicity
 _atom_site_fract_x
 _atom_site_fract_y
 _atom_site_fract_z
 _atom_site_occupancy
  Sr  Sr0  1  0.765588  0.234412  0.250000  1
  Nd  Nd1  1  0.229846  0.770154  0.750000  1
  Ga  Ga2  1  0.661657  0.338343  0.750000  1
  Ga  Ga3  1  0.340345  0.659655  0.250000  1
  Ga  Ga4  1  0.722913  0.722476  0.997482  1
  Ga  Ga5  1  0.722913  0.722476  0.502518  1
  Ga  Ga6  1  0.277524  0.277087  0.997482  1
  Ga  Ga7  1  0.277524  0.277087  0.502518  1
  Pt  Pt8  1  0.896942  0.103058  0.750000  1
  Pt  Pt9  1  0.104747  0.895253  0.250000  1
