# generated using pymatgen
data_PrHo2Bi(SO6)2
_symmetry_space_group_name_H-M   'P 1'
_cell_length_a   4.21651813
_cell_length_b   7.31481569
_cell_length_c   8.12422295
_cell_angle_alpha   106.12729866
_cell_angle_beta   90.65297571
_cell_angle_gamma   106.49646182
_symmetry_Int_Tables_number   1
_chemical_formula_structural   PrHo2Bi(SO6)2
_chemical_formula_sum   'Pr1 Ho2 Bi1 S2 O12'
_cell_volume   229.69533735
_cell_formula_units_Z   1
loop_
 _symmetry_equiv_pos_site_id
 _symmetry_equiv_pos_as_xyz
  1  'x, y, z'
loop_
 _atom_site_type_symbol
 _atom_site_label
 _atom_site_symmetry_multiplicity
 _atom_site_fract_x
 _atom_site_fract_y
 _atom_site_fract_z
 _atom_site_occupancy
  Pr  Pr0  1  0.657424  0.336997  0.084551  1
  Ho  Ho1  1  0.330099  0.671705  0.416192  1
  Ho  Ho2  1  0.338384  0.671217  0.921129  1
  Bi  Bi3  1  0.686508  0.362912  0.591171  1
  S  S4  1  0.936957  0.988215  0.750313  1
  S  S5  1  0.051828  0.988282  0.243069  1
  O  O6  1  0.771414  0.524646  0.876753  1
  O  O7  1  0.232265  0.507943  0.127962  1
  O  O8  1  0.279687  0.512512  0.627678  1
  O  O9  1  0.754503  0.527350  0.387334  1
  O  O10  1  0.724812  0.968855  0.595509  1
  O  O11  1  0.246434  0.975076  0.390729  1
  O  O12  1  0.723123  0.981912  0.896474  1
  O  O13  1  0.261121  0.978638  0.094305  1
  O  O14  1  0.199036  0.184440  0.801139  1
  O  O15  1  0.745131  0.816523  0.195644  1
  O  O16  1  0.080340  0.820130  0.714277  1
  O  O17  1  0.980933  0.182647  0.285769  1
