# generated using pymatgen
data_Hf5Sc3TiV11Si16
_symmetry_space_group_name_H-M   'P 1'
_cell_length_a   6.62704011
_cell_length_b   6.62786605
_cell_length_c   12.25611635
_cell_angle_alpha   90.00678742
_cell_angle_beta   90.01548662
_cell_angle_gamma   89.92014717
_symmetry_Int_Tables_number   1
_chemical_formula_structural   Hf5Sc3TiV11Si16
_chemical_formula_sum   'Hf5 Sc3 Ti1 V11 Si16'
_cell_volume   538.32649676
_cell_formula_units_Z   1
loop_
 _symmetry_equiv_pos_site_id
 _symmetry_equiv_pos_as_xyz
  1  'x, y, z'
loop_
 _atom_site_type_symbol
 _atom_site_label
 _atom_site_symmetry_multiplicity
 _atom_site_fract_x
 _atom_site_fract_y
 _atom_site_fract_z
 _atom_site_occupancy
  Hf  Hf0  1  0.002770  0.661076  0.029792  1
  Hf  Hf1  1  0.837801  0.503341  0.280383  1
  Hf  Hf2  1  0.160943  0.498035  0.779683  1
  Hf  Hf3  1  0.502972  0.838024  0.719304  1
  Hf  Hf4  1  0.497717  0.161305  0.220112  1
  Sc  Sc5  1  0.998290  0.338057  0.529273  1
  Sc  Sc6  1  0.662617  0.000760  0.970852  1
  Sc  Sc7  1  0.338085  0.998486  0.470724  1
  Ti  Ti8  1  0.331479  0.333914  0.999930  1
  V  V9  1  0.166382  0.832745  0.250288  1
  V  V10  1  0.833026  0.166609  0.749354  1
  V  V11  1  0.667226  0.667144  0.500127  1
  V  V12  1  0.004808  0.158758  0.127294  1
  V  V13  1  0.342844  0.505978  0.375873  1
  V  V14  1  0.658421  0.496128  0.875441  1
  V  V15  1  0.505763  0.342909  0.624075  1
  V  V16  1  0.495387  0.658209  0.124511  1
  V  V17  1  0.994730  0.840631  0.627685  1
  V  V18  1  0.157661  0.004119  0.872695  1
  V  V19  1  0.840928  0.994360  0.372515  1
  Si  Si20  1  0.292764  0.958233  0.064384  1
  Si  Si21  1  0.538557  0.793196  0.315372  1
  Si  Si22  1  0.462731  0.206069  0.813623  1
  Si  Si23  1  0.793266  0.538845  0.684598  1
  Si  Si24  1  0.207064  0.461758  0.187119  1
  Si  Si25  1  0.708200  0.039795  0.563691  1
  Si  Si26  1  0.956453  0.290415  0.934965  1
  Si  Si27  1  0.039839  0.708112  0.436330  1
  Si  Si28  1  0.706028  0.371149  0.071439  1
  Si  Si29  1  0.128258  0.203764  0.320918  1
  Si  Si30  1  0.870450  0.795692  0.821597  1
  Si  Si31  1  0.204113  0.128651  0.679114  1
  Si  Si32  1  0.795052  0.871984  0.178940  1
  Si  Si33  1  0.296104  0.628622  0.570648  1
  Si  Si34  1  0.372636  0.707162  0.928011  1
  Si  Si35  1  0.628636  0.295964  0.429342  1
