# generated using pymatgen
data_Pr16Y4Si15Rh
_symmetry_space_group_name_H-M   'P 1'
_cell_length_a   7.86411668
_cell_length_b   7.82834116
_cell_length_c   15.30279148
_cell_angle_alpha   90.07873848
_cell_angle_beta   89.76385110
_cell_angle_gamma   90.19422174
_symmetry_Int_Tables_number   1
_chemical_formula_structural   Pr16Y4Si15Rh
_chemical_formula_sum   'Pr16 Y4 Si15 Rh1'
_cell_volume   942.07128674
_cell_formula_units_Z   1
loop_
 _symmetry_equiv_pos_site_id
 _symmetry_equiv_pos_as_xyz
  1  'x, y, z'
loop_
 _atom_site_type_symbol
 _atom_site_label
 _atom_site_symmetry_multiplicity
 _atom_site_fract_x
 _atom_site_fract_y
 _atom_site_fract_z
 _atom_site_occupancy
  Pr  Pr0  1  0.376553  0.013651  0.446837  1
  Pr  Pr1  1  0.486542  0.877945  0.696316  1
  Pr  Pr2  1  0.513329  0.121766  0.195426  1
  Pr  Pr3  1  0.877711  0.485702  0.303048  1
  Pr  Pr4  1  0.122663  0.508187  0.801587  1
  Pr  Pr5  1  0.623875  0.986763  0.945970  1
  Pr  Pr6  1  0.007308  0.378231  0.554055  1
  Pr  Pr7  1  0.985995  0.622930  0.054387  1
  Pr  Pr8  1  0.133016  0.981828  0.874564  1
  Pr  Pr9  1  0.522747  0.628468  0.127408  1
  Pr  Pr10  1  0.469356  0.364698  0.630939  1
  Pr  Pr11  1  0.625331  0.521632  0.872299  1
  Pr  Pr12  1  0.374485  0.476874  0.372018  1
  Pr  Pr13  1  0.875231  0.025625  0.378428  1
  Pr  Pr14  1  0.976485  0.124860  0.122466  1
  Pr  Pr15  1  0.029108  0.882320  0.623277  1
  Y  Y16  1  0.306764  0.307260  0.999870  1
  Y  Y17  1  0.190693  0.808278  0.250297  1
  Y  Y18  1  0.816049  0.189660  0.750074  1
  Y  Y19  1  0.692272  0.689434  0.500718  1
  Si  Si20  1  0.327952  0.688318  0.956535  1
  Si  Si21  1  0.668800  0.312297  0.458629  1
  Si  Si22  1  0.689742  0.329833  0.043438  1
  Si  Si23  1  0.311790  0.671445  0.542195  1
  Si  Si24  1  0.812439  0.828123  0.209102  1
  Si  Si25  1  0.172685  0.188748  0.291884  1
  Si  Si26  1  0.829866  0.810553  0.792758  1
  Si  Si27  1  0.285609  0.921344  0.062442  1
  Si  Si28  1  0.580069  0.784487  0.313803  1
  Si  Si29  1  0.427702  0.209668  0.815692  1
  Si  Si30  1  0.780512  0.582504  0.686241  1
  Si  Si31  1  0.213607  0.421751  0.186553  1
  Si  Si32  1  0.709008  0.075226  0.562053  1
  Si  Si33  1  0.919620  0.285844  0.937589  1
  Si  Si34  1  0.081165  0.717181  0.437291  1
  Rh  Rh35  1  0.183918  0.176571  0.703809  1
