# generated using pymatgen
data_Ir7Os2
_symmetry_space_group_name_H-M   'P 1'
_cell_length_a   6.12052093
_cell_length_b   6.12052124
_cell_length_c   6.13710574
_cell_angle_alpha   95.72470383
_cell_angle_beta   95.72471077
_cell_angle_gamma   143.12644800
_symmetry_Int_Tables_number   1
_chemical_formula_structural   Ir7Os2
_chemical_formula_sum   'Ir7 Os2'
_cell_volume   130.91078989
_cell_formula_units_Z   1
loop_
 _symmetry_equiv_pos_site_id
 _symmetry_equiv_pos_as_xyz
  1  'x, y, z'
loop_
 _atom_site_type_symbol
 _atom_site_label
 _atom_site_symmetry_multiplicity
 _atom_site_fract_x
 _atom_site_fract_y
 _atom_site_fract_z
 _atom_site_occupancy
  Ir  Ir0  1  0.333345  0.666654  0.000000  1
  Ir  Ir1  1  0.663464  0.662590  0.326054  1
  Ir  Ir2  1  0.329199  0.996810  0.326009  1
  Ir  Ir3  1  0.998959  0.332241  0.331201  1
  Ir  Ir4  1  0.667758  0.001041  0.668798  1
  Ir  Ir5  1  0.003190  0.670800  0.673990  1
  Ir  Ir6  1  0.337410  0.336536  0.673947  1
  Os  Os7  1  0.003352  0.996648  0.000000  1
  Os  Os8  1  0.663322  0.336677  0.000000  1
