# generated using pymatgen
data_Er4SiRh7Au5
_symmetry_space_group_name_H-M   'P 1'
_cell_length_a   7.29579450
_cell_length_b   7.29579452
_cell_length_c   7.29579455
_cell_angle_alpha   108.59855605
_cell_angle_beta   109.90929617
_cell_angle_gamma   109.90930413
_symmetry_Int_Tables_number   1
_chemical_formula_structural   Er4SiRh7Au5
_chemical_formula_sum   'Er4 Si1 Rh7 Au5'
_cell_volume   298.89630100
_cell_formula_units_Z   1
loop_
 _symmetry_equiv_pos_site_id
 _symmetry_equiv_pos_as_xyz
  1  'x, y, z'
loop_
 _atom_site_type_symbol
 _atom_site_label
 _atom_site_symmetry_multiplicity
 _atom_site_fract_x
 _atom_site_fract_y
 _atom_site_fract_z
 _atom_site_occupancy
  Er  Er0  1  0.987471  0.993736  0.493736  1
  Er  Er1  1  0.012529  0.506264  0.006264  1
  Er  Er2  1  0.500000  0.993736  0.006264  1
  Er  Er3  1  0.500000  0.506264  0.493736  1
  Si  Si4  1  0.000000  0.000000  0.000000  1
  Rh  Rh5  1  0.500000  0.750000  0.250000  1
  Rh  Rh6  1  0.728267  0.727648  0.999380  1
  Rh  Rh7  1  0.271733  0.000620  0.272352  1
  Rh  Rh8  1  0.000000  0.269516  0.269516  1
  Rh  Rh9  1  0.271733  0.271113  0.999380  1
  Rh  Rh10  1  0.728267  0.000620  0.728887  1
  Rh  Rh11  1  0.000000  0.730484  0.730484  1
  Au  Au12  1  0.748521  0.247890  0.499369  1
  Au  Au13  1  0.748521  0.500631  0.249152  1
  Au  Au14  1  0.500000  0.250000  0.750000  1
  Au  Au15  1  0.251479  0.500631  0.752110  1
  Au  Au16  1  0.251479  0.750848  0.499369  1
