# generated using pymatgen
data_HoEr3ReRuC4
_symmetry_space_group_name_H-M   'P 1'
_cell_length_a   5.05678500
_cell_length_b   6.50823100
_cell_length_c   9.75377400
_cell_angle_alpha   90.00000000
_cell_angle_beta   90.00000000
_cell_angle_gamma   90.00000000
_symmetry_Int_Tables_number   1
_chemical_formula_structural   HoEr3ReRuC4
_chemical_formula_sum   'Ho2 Er6 Re2 Ru2 C8'
_cell_volume   321.00377282
_cell_formula_units_Z   2
loop_
 _symmetry_equiv_pos_site_id
 _symmetry_equiv_pos_as_xyz
  1  'x, y, z'
loop_
 _atom_site_type_symbol
 _atom_site_label
 _atom_site_symmetry_multiplicity
 _atom_site_fract_x
 _atom_site_fract_y
 _atom_site_fract_z
 _atom_site_occupancy
  Ho  Ho0  1  0.750000  0.968875  0.714924  1
  Ho  Ho1  1  0.250000  0.531125  0.214924  1
  Er  Er2  1  0.750000  0.828029  0.055553  1
  Er  Er3  1  0.250000  0.671971  0.555553  1
  Er  Er4  1  0.750000  0.321124  0.442227  1
  Er  Er5  1  0.250000  0.178876  0.942227  1
  Er  Er6  1  0.750000  0.466618  0.784462  1
  Er  Er7  1  0.250000  0.033382  0.284462  1
  Re  Re8  1  0.750000  0.780335  0.366815  1
  Re  Re9  1  0.250000  0.719665  0.866815  1
  Ru  Ru10  1  0.750000  0.280276  0.133013  1
  Ru  Ru11  1  0.250000  0.219724  0.633013  1
  C  C12  1  0.750000  0.174316  0.946870  1
  C  C13  1  0.250000  0.826886  0.053326  1
  C  C14  1  0.750000  0.673114  0.553326  1
  C  C15  1  0.250000  0.325684  0.446870  1
  C  C16  1  0.750000  0.046112  0.260519  1
  C  C17  1  0.250000  0.453888  0.760519  1
  C  C18  1  0.750000  0.547971  0.242292  1
  C  C19  1  0.250000  0.952029  0.742292  1
