# generated using pymatgen
data_BeSb16
_symmetry_space_group_name_H-M   'P 1'
_cell_length_a   7.51885101
_cell_length_b   7.51885009
_cell_length_c   13.43235900
_cell_angle_alpha   55.38820488
_cell_angle_beta   55.38820971
_cell_angle_gamma   65.92155140
_symmetry_Int_Tables_number   1
_chemical_formula_structural   BeSb16
_chemical_formula_sum   'Be1 Sb16'
_cell_volume   510.27028669
_cell_formula_units_Z   1
loop_
 _symmetry_equiv_pos_site_id
 _symmetry_equiv_pos_as_xyz
  1  'x, y, z'
loop_
 _atom_site_type_symbol
 _atom_site_label
 _atom_site_symmetry_multiplicity
 _atom_site_fract_x
 _atom_site_fract_y
 _atom_site_fract_z
 _atom_site_occupancy
  Be  Be0  1  0.800175  0.800175  0.515736  1
  Sb  Sb1  1  0.865225  0.865225  0.857320  1
  Sb  Sb2  1  0.339889  0.339889  0.892829  1
  Sb  Sb3  1  0.679619  0.163027  0.120156  1
  Sb  Sb4  1  0.163027  0.679619  0.120156  1
  Sb  Sb5  1  0.047510  0.047510  0.307389  1
  Sb  Sb6  1  0.446369  0.446369  0.416839  1
  Sb  Sb7  1  0.530503  0.029503  0.631006  1
  Sb  Sb8  1  0.029503  0.530503  0.631006  1
  Sb  Sb9  1  0.212820  0.212820  0.386281  1
  Sb  Sb10  1  0.699979  0.699979  0.401843  1
  Sb  Sb11  1  0.260768  0.781398  0.620030  1
  Sb  Sb12  1  0.781398  0.260768  0.620030  1
  Sb  Sb13  1  0.070835  0.070835  0.888799  1
  Sb  Sb14  1  0.556774  0.556774  0.913825  1
  Sb  Sb15  1  0.423191  0.903710  0.105576  1
  Sb  Sb16  1  0.903710  0.423191  0.105576  1
