# generated using pymatgen
data_Sr4Li2Sc2Si3Ge
_symmetry_space_group_name_H-M   'P 1'
_cell_length_a   8.63078531
_cell_length_b   8.62876235
_cell_length_c   8.62876260
_cell_angle_alpha   135.01694622
_cell_angle_beta   135.27898358
_cell_angle_gamma   65.29628928
_symmetry_Int_Tables_number   1
_chemical_formula_structural   Sr4Li2Sc2Si3Ge
_chemical_formula_sum   'Sr4 Li2 Sc2 Si3 Ge1'
_cell_volume   314.97921395
_cell_formula_units_Z   1
loop_
 _symmetry_equiv_pos_site_id
 _symmetry_equiv_pos_as_xyz
  1  'x, y, z'
loop_
 _atom_site_type_symbol
 _atom_site_label
 _atom_site_symmetry_multiplicity
 _atom_site_fract_x
 _atom_site_fract_y
 _atom_site_fract_z
 _atom_site_occupancy
  Sr  Sr0  1  0.110191  0.828684  0.281507  1
  Sr  Sr1  1  0.890652  0.171462  0.719191  1
  Sr  Sr2  1  0.451785  0.670915  0.780872  1
  Sr  Sr3  1  0.547755  0.328573  0.219181  1
  Li  Li4  1  0.499530  0.251804  0.750560  1
  Li  Li5  1  0.499530  0.748970  0.247726  1
  Sc  Sc6  1  0.000953  0.250777  0.251166  1
  Sc  Sc7  1  0.000953  0.749788  0.750177  1
  Si  Si8  1  0.135207  0.396192  0.739014  1
  Si  Si9  1  0.865297  0.604026  0.261272  1
  Si  Si10  1  0.343006  0.103920  0.239087  1
  Ge  Ge11  1  0.655139  0.894890  0.760249  1
