# generated using pymatgen
data_Tb8Dy2TcIr3
_symmetry_space_group_name_H-M   'P 1'
_cell_length_a   6.46895090
_cell_length_b   7.30040895
_cell_length_c   8.60117853
_cell_angle_alpha   96.58472701
_cell_angle_beta   112.67986405
_cell_angle_gamma   90.01798576
_symmetry_Int_Tables_number   1
_chemical_formula_structural   Tb8Dy2TcIr3
_chemical_formula_sum   'Tb8 Dy2 Tc1 Ir3'
_cell_volume   371.87727409
_cell_formula_units_Z   1
loop_
 _symmetry_equiv_pos_site_id
 _symmetry_equiv_pos_as_xyz
  1  'x, y, z'
loop_
 _atom_site_type_symbol
 _atom_site_label
 _atom_site_symmetry_multiplicity
 _atom_site_fract_x
 _atom_site_fract_y
 _atom_site_fract_z
 _atom_site_occupancy
  Tb  Tb0  1  0.789570  0.083496  0.813374  1
  Tb  Tb1  1  0.973180  0.416454  0.178835  1
  Tb  Tb2  1  0.207159  0.915688  0.184114  1
  Tb  Tb3  1  0.024235  0.581901  0.813412  1
  Tb  Tb4  1  0.212944  0.184781  0.562651  1
  Tb  Tb5  1  0.647306  0.316261  0.438888  1
  Tb  Tb6  1  0.788334  0.815941  0.437935  1
  Tb  Tb7  1  0.352023  0.683313  0.563839  1
  Dy  Dy8  1  0.426369  0.249067  0.000446  1
  Dy  Dy9  1  0.573714  0.749799  0.999625  1
  Tc  Tc10  1  0.610154  0.428182  0.785841  1
  Ir  Ir11  1  0.824373  0.073470  0.223729  1
  Ir  Ir12  1  0.396335  0.576088  0.219868  1
  Ir  Ir13  1  0.174305  0.925557  0.777441  1
