# generated using pymatgen
data_Tb2YMg3Ge2Pd
_symmetry_space_group_name_H-M   'P 1'
_cell_length_a   7.31088600
_cell_length_b   7.28418977
_cell_length_c   4.29557800
_cell_angle_alpha   90.00000000
_cell_angle_beta   90.00000000
_cell_angle_gamma   120.12130997
_symmetry_Int_Tables_number   1
_chemical_formula_structural   Tb2YMg3Ge2Pd
_chemical_formula_sum   'Tb2 Y1 Mg3 Ge2 Pd1'
_cell_volume   197.86606844
_cell_formula_units_Z   1
loop_
 _symmetry_equiv_pos_site_id
 _symmetry_equiv_pos_as_xyz
  1  'x, y, z'
loop_
 _atom_site_type_symbol
 _atom_site_label
 _atom_site_symmetry_multiplicity
 _atom_site_fract_x
 _atom_site_fract_y
 _atom_site_fract_z
 _atom_site_occupancy
  Tb  Tb0  1  0.416068  0.416572  0.500000  1
  Tb  Tb1  1  0.999496  0.583428  0.500000  1
  Y  Y2  1  0.582817  0.000000  0.500000  1
  Mg  Mg3  1  0.758474  0.758751  0.000000  1
  Mg  Mg4  1  0.241887  0.000000  0.000000  1
  Mg  Mg5  1  0.999723  0.241249  0.000000  1
  Ge  Ge6  1  0.667065  0.333555  0.000000  1
  Ge  Ge7  1  0.333509  0.666445  0.000000  1
  Pd  Pd8  1  0.000963  0.000000  0.500000  1
