# generated using pymatgen
data_Y3Ag3C
_symmetry_space_group_name_H-M   'P 1'
_cell_length_a   9.38515775
_cell_length_b   9.38513007
_cell_length_c   9.38514500
_cell_angle_alpha   59.99995092
_cell_angle_beta   60.00004847
_cell_angle_gamma   59.99991645
_symmetry_Int_Tables_number   1
_chemical_formula_structural   Y3Ag3C
_chemical_formula_sum   'Y12 Ag12 C4'
_cell_volume   584.53105017
_cell_formula_units_Z   4
loop_
 _symmetry_equiv_pos_site_id
 _symmetry_equiv_pos_as_xyz
  1  'x, y, z'
loop_
 _atom_site_type_symbol
 _atom_site_label
 _atom_site_symmetry_multiplicity
 _atom_site_fract_x
 _atom_site_fract_y
 _atom_site_fract_z
 _atom_site_occupancy
  Y  Y0  1  0.441547  0.441547  0.058453  1
  Y  Y1  1  0.058453  0.441547  0.058453  1
  Y  Y2  1  0.441547  0.058453  0.058454  1
  Y  Y3  1  0.058454  0.058453  0.441547  1
  Y  Y4  1  0.441547  0.058453  0.441547  1
  Y  Y5  1  0.058453  0.441547  0.441547  1
  Y  Y6  1  0.808453  0.808453  0.191547  1
  Y  Y7  1  0.191547  0.808453  0.191547  1
  Y  Y8  1  0.808453  0.191547  0.191546  1
  Y  Y9  1  0.191546  0.191547  0.808453  1
  Y  Y10  1  0.808453  0.191547  0.808453  1
  Y  Y11  1  0.191547  0.808453  0.808453  1
  Ag  Ag12  1  0.831814  0.831813  0.504559  1
  Ag  Ag13  1  0.831813  0.504559  0.831814  1
  Ag  Ag14  1  0.504559  0.831813  0.831814  1
  Ag  Ag15  1  0.831814  0.831813  0.831813  1
  Ag  Ag16  1  0.418186  0.418187  0.745441  1
  Ag  Ag17  1  0.418187  0.745441  0.418186  1
  Ag  Ag18  1  0.745441  0.418187  0.418186  1
  Ag  Ag19  1  0.418186  0.418187  0.418187  1
  Ag  Ag20  1  0.625000  0.625000  0.125000  1
  Ag  Ag21  1  0.625000  0.125000  0.625000  1
  Ag  Ag22  1  0.125000  0.625000  0.625000  1
  Ag  Ag23  1  0.625000  0.625000  0.625000  1
  C  C24  1  0.125000  0.125000  0.625000  1
  C  C25  1  0.125000  0.625000  0.125000  1
  C  C26  1  0.625000  0.125000  0.125000  1
  C  C27  1  0.125000  0.125000  0.125000  1
