# generated using pymatgen
data_Tm12TlFe2AgIr
_symmetry_space_group_name_H-M   'P 1'
_cell_length_a   8.22843355
_cell_length_b   8.22843399
_cell_length_c   8.22843502
_cell_angle_alpha   110.00622826
_cell_angle_beta   106.94087696
_cell_angle_gamma   111.49949296
_symmetry_Int_Tables_number   1
_chemical_formula_structural   Tm12TlFe2AgIr
_chemical_formula_sum   'Tm12 Tl1 Fe2 Ag1 Ir1'
_cell_volume   428.17385325
_cell_formula_units_Z   1
loop_
 _symmetry_equiv_pos_site_id
 _symmetry_equiv_pos_as_xyz
  1  'x, y, z'
loop_
 _atom_site_type_symbol
 _atom_site_label
 _atom_site_symmetry_multiplicity
 _atom_site_fract_x
 _atom_site_fract_y
 _atom_site_fract_z
 _atom_site_occupancy
  Tm  Tm0  1  0.192044  0.438746  0.246702  1
  Tm  Tm1  1  0.807956  0.561254  0.753298  1
  Tm  Tm2  1  0.192044  0.945341  0.753298  1
  Tm  Tm3  1  0.957756  0.192622  0.765133  1
  Tm  Tm4  1  0.807956  0.054659  0.246702  1
  Tm  Tm5  1  0.042244  0.807378  0.234867  1
  Tm  Tm6  1  0.427489  0.192622  0.234867  1
  Tm  Tm7  1  0.572511  0.807378  0.765133  1
  Tm  Tm8  1  0.309737  0.309159  0.618898  1
  Tm  Tm9  1  0.690263  0.690841  0.381102  1
  Tm  Tm10  1  0.690263  0.309159  0.999422  1
  Tm  Tm11  1  0.309737  0.690841  0.000578  1
  Tl  Tl12  1  0.500000  0.000000  0.500000  1
  Fe  Fe13  1  0.383368  0.383368  0.000000  1
  Fe  Fe14  1  0.616632  0.616632  0.000000  1
  Ag  Ag15  1  0.000000  0.500000  0.500000  1
  Ir  Ir16  1  0.000000  0.000000  0.000000  1
