# generated using pymatgen
data_Ce3Y(Tc3Ge4)2
_symmetry_space_group_name_H-M   'P 1'
_cell_length_a   8.33298588
_cell_length_b   5.78915321
_cell_length_c   7.03426017
_cell_angle_alpha   76.13108789
_cell_angle_beta   90.08266378
_cell_angle_gamma   90.13722453
_symmetry_Int_Tables_number   1
_chemical_formula_structural   Ce3Y(Tc3Ge4)2
_chemical_formula_sum   'Ce3 Y1 Tc6 Ge8'
_cell_volume   329.44532417
_cell_formula_units_Z   1
loop_
 _symmetry_equiv_pos_site_id
 _symmetry_equiv_pos_as_xyz
  1  'x, y, z'
loop_
 _atom_site_type_symbol
 _atom_site_label
 _atom_site_symmetry_multiplicity
 _atom_site_fract_x
 _atom_site_fract_y
 _atom_site_fract_z
 _atom_site_occupancy
  Ce  Ce0  1  0.554501  0.077268  0.248530  1
  Ce  Ce1  1  0.055828  0.421495  0.755954  1
  Ce  Ce2  1  0.442918  0.923323  0.751904  1
  Y  Y3  1  0.941513  0.572607  0.247139  1
  Tc  Tc4  1  0.209387  0.116385  0.111430  1
  Tc  Tc5  1  0.709381  0.383144  0.892681  1
  Tc  Tc6  1  0.792023  0.891845  0.884749  1
  Tc  Tc7  1  0.297872  0.617102  0.106926  1
  Tc  Tc8  1  0.000477  0.998833  0.498884  1
  Tc  Tc9  1  0.499347  0.502349  0.500148  1
  Ge  Ge10  1  0.903615  0.113371  0.131939  1
  Ge  Ge11  1  0.404790  0.381207  0.870167  1
  Ge  Ge12  1  0.094564  0.876020  0.876572  1
  Ge  Ge13  1  0.600122  0.621968  0.127177  1
  Ge  Ge14  1  0.748135  0.225653  0.580517  1
  Ge  Ge15  1  0.245666  0.282882  0.415821  1
  Ge  Ge16  1  0.247736  0.772749  0.416410  1
  Ge  Ge17  1  0.752125  0.721800  0.583050  1
