# generated using pymatgen
data_Y17Lu3Sn7Pb9
_symmetry_space_group_name_H-M   'P 1'
_cell_length_a   8.09740347
_cell_length_b   8.22971028
_cell_length_c   15.58206200
_cell_angle_alpha   90.00000000
_cell_angle_beta   90.00000000
_cell_angle_gamma   90.00441383
_symmetry_Int_Tables_number   1
_chemical_formula_structural   Y17Lu3Sn7Pb9
_chemical_formula_sum   'Y17 Lu3 Sn7 Pb9'
_cell_volume   1038.37746117
_cell_formula_units_Z   1
loop_
 _symmetry_equiv_pos_site_id
 _symmetry_equiv_pos_as_xyz
  1  'x, y, z'
loop_
 _atom_site_type_symbol
 _atom_site_label
 _atom_site_symmetry_multiplicity
 _atom_site_fract_x
 _atom_site_fract_y
 _atom_site_fract_z
 _atom_site_occupancy
  Y  Y0  1  0.366039  0.842097  0.876715  1
  Y  Y1  1  0.870227  0.660755  0.623886  1
  Y  Y2  1  0.632582  0.160893  0.376072  1
  Y  Y3  1  0.130818  0.339757  0.124194  1
  Y  Y4  1  0.632582  0.160893  0.123928  1
  Y  Y5  1  0.130818  0.339757  0.375806  1
  Y  Y6  1  0.366039  0.842097  0.623285  1
  Y  Y7  1  0.870227  0.660755  0.876114  1
  Y  Y8  1  0.525422  0.319713  0.900422  1
  Y  Y9  1  0.026031  0.177151  0.600818  1
  Y  Y10  1  0.475412  0.677129  0.399432  1
  Y  Y11  1  0.973922  0.822132  0.100783  1
  Y  Y12  1  0.475412  0.677129  0.100568  1
  Y  Y13  1  0.973922  0.822132  0.399217  1
  Y  Y14  1  0.525422  0.319713  0.599578  1
  Y  Y15  1  0.026031  0.177151  0.899182  1
  Y  Y16  1  0.300689  0.002603  0.250000  1
  Lu  Lu17  1  0.196877  0.502193  0.750000  1
  Lu  Lu18  1  0.700178  0.999146  0.750000  1
  Lu  Lu19  1  0.799981  0.496781  0.250000  1
  Sn  Sn20  1  0.062999  0.879663  0.750000  1
  Sn  Sn21  1  0.437099  0.380569  0.250000  1
  Sn  Sn22  1  0.934737  0.120833  0.250000  1
  Sn  Sn23  1  0.334738  0.151934  0.750000  1
  Sn  Sn24  1  0.835408  0.347510  0.750000  1
  Sn  Sn25  1  0.667650  0.848509  0.250000  1
  Sn  Sn26  1  0.165570  0.648414  0.250000  1
  Pb  Pb27  1  0.289570  0.037411  0.041882  1
  Pb  Pb28  1  0.790115  0.464006  0.457735  1
  Pb  Pb29  1  0.710372  0.963241  0.542485  1
  Pb  Pb30  1  0.210845  0.536091  0.957475  1
  Pb  Pb31  1  0.710372  0.963241  0.957515  1
  Pb  Pb32  1  0.210845  0.536091  0.542525  1
  Pb  Pb33  1  0.289570  0.037411  0.458118  1
  Pb  Pb34  1  0.790115  0.464006  0.042265  1
  Pb  Pb35  1  0.561367  0.621095  0.750000  1
