# generated using pymatgen
data_NpCr3(AgSe4)2
_symmetry_space_group_name_H-M   'P 1'
_cell_length_a   7.80668540
_cell_length_b   7.80668572
_cell_length_c   7.80668521
_cell_angle_alpha   58.93559459
_cell_angle_beta   58.93559349
_cell_angle_gamma   58.93558344
_symmetry_Int_Tables_number   1
_chemical_formula_structural   NpCr3(AgSe4)2
_chemical_formula_sum   'Np1 Cr3 Ag2 Se8'
_cell_volume   328.25121239
_cell_formula_units_Z   1
loop_
 _symmetry_equiv_pos_site_id
 _symmetry_equiv_pos_as_xyz
  1  'x, y, z'
loop_
 _atom_site_type_symbol
 _atom_site_label
 _atom_site_symmetry_multiplicity
 _atom_site_fract_x
 _atom_site_fract_y
 _atom_site_fract_z
 _atom_site_occupancy
  Np  Np0  1  0.500000  0.500000  0.500000  1
  Cr  Cr1  1  0.500000  0.000000  0.500000  1
  Cr  Cr2  1  0.500000  0.500000  0.000000  1
  Cr  Cr3  1  0.000000  0.500000  0.500000  1
  Ag  Ag4  1  0.131863  0.131863  0.131863  1
  Ag  Ag5  1  0.868137  0.868137  0.868137  1
  Se  Se6  1  0.247430  0.716829  0.247430  1
  Se  Se7  1  0.752570  0.752570  0.283171  1
  Se  Se8  1  0.283171  0.752570  0.752570  1
  Se  Se9  1  0.733919  0.733919  0.733919  1
  Se  Se10  1  0.716829  0.247430  0.247430  1
  Se  Se11  1  0.266081  0.266081  0.266081  1
  Se  Se12  1  0.752570  0.283171  0.752570  1
  Se  Se13  1  0.247430  0.247430  0.716829  1
