# generated using pymatgen
data_Tm6Ni20P13
_symmetry_space_group_name_H-M   'P 1'
_cell_length_a   12.60723944
_cell_length_b   12.60062704
_cell_length_c   3.71587700
_cell_angle_alpha   90.00000000
_cell_angle_beta   90.00000000
_cell_angle_gamma   119.99367111
_symmetry_Int_Tables_number   1
_chemical_formula_structural   Tm6Ni20P13
_chemical_formula_sum   'Tm6 Ni20 P13'
_cell_volume   511.24822492
_cell_formula_units_Z   1
loop_
 _symmetry_equiv_pos_site_id
 _symmetry_equiv_pos_as_xyz
  1  'x, y, z'
loop_
 _atom_site_type_symbol
 _atom_site_label
 _atom_site_symmetry_multiplicity
 _atom_site_fract_x
 _atom_site_fract_y
 _atom_site_fract_z
 _atom_site_occupancy
  Tm  Tm0  1  0.717950  0.529022  0.000000  1
  Tm  Tm1  1  0.811123  0.282084  0.000000  1
  Tm  Tm2  1  0.471299  0.189267  0.000000  1
  Tm  Tm3  1  0.529261  0.811063  0.500000  1
  Tm  Tm4  1  0.281691  0.470392  0.500000  1
  Tm  Tm5  1  0.188653  0.717958  0.500000  1
  Ni  Ni6  1  0.333323  0.666562  0.000000  1
  Ni  Ni7  1  0.666716  0.333406  0.500000  1
  Ni  Ni8  1  0.196988  0.092364  0.000000  1
  Ni  Ni9  1  0.895589  0.803330  0.000000  1
  Ni  Ni10  1  0.907504  0.104408  0.000000  1
  Ni  Ni11  1  0.848799  0.926925  0.500000  1
  Ni  Ni12  1  0.078434  0.151689  0.500000  1
  Ni  Ni13  1  0.073680  0.922012  0.500000  1
  Ni  Ni14  1  0.437764  0.417345  0.000000  1
  Ni  Ni15  1  0.979566  0.562022  0.000000  1
  Ni  Ni16  1  0.582112  0.020382  0.000000  1
  Ni  Ni17  1  0.565327  0.586474  0.500000  1
  Ni  Ni18  1  0.021154  0.434644  0.500000  1
  Ni  Ni19  1  0.413392  0.978812  0.500000  1
  Ni  Ni20  1  0.078664  0.321166  0.000000  1
  Ni  Ni21  1  0.242588  0.921091  0.000000  1
  Ni  Ni22  1  0.678723  0.757631  0.000000  1
  Ni  Ni23  1  0.929401  0.681392  0.500000  1
  Ni  Ni24  1  0.751667  0.070544  0.500000  1
  Ni  Ni25  1  0.318705  0.247948  0.500000  1
  P  P26  1  0.234441  0.284397  0.000000  1
  P  P27  1  0.050077  0.765568  0.000000  1
  P  P28  1  0.715272  0.950111  0.000000  1
  P  P29  1  0.767503  0.718959  0.500000  1
  P  P30  1  0.951222  0.232296  0.500000  1
  P  P31  1  0.281160  0.048661  0.500000  1
  P  P32  1  0.475776  0.614591  0.000000  1
  P  P33  1  0.138999  0.524245  0.000000  1
  P  P34  1  0.385192  0.860995  0.000000  1
  P  P35  1  0.525139  0.386844  0.500000  1
  P  P36  1  0.861602  0.474853  0.500000  1
  P  P37  1  0.613266  0.138410  0.500000  1
  P  P38  1  0.000277  0.000140  0.000000  1
