# generated using pymatgen
data_Nd16Dy(YIr4)3
_symmetry_space_group_name_H-M   'P 1'
_cell_length_a   11.19765800
_cell_length_b   11.19765800
_cell_length_c   6.52955000
_cell_angle_alpha   90.00000000
_cell_angle_beta   90.00000000
_cell_angle_gamma   90.00000000
_symmetry_Int_Tables_number   1
_chemical_formula_structural   Nd16Dy(YIr4)3
_chemical_formula_sum   'Nd16 Dy1 Y3 Ir12'
_cell_volume   818.72424240
_cell_formula_units_Z   1
loop_
 _symmetry_equiv_pos_site_id
 _symmetry_equiv_pos_as_xyz
  1  'x, y, z'
loop_
 _atom_site_type_symbol
 _atom_site_label
 _atom_site_symmetry_multiplicity
 _atom_site_fract_x
 _atom_site_fract_y
 _atom_site_fract_z
 _atom_site_occupancy
  Nd  Nd0  1  0.289494  0.087727  0.381274  1
  Nd  Nd1  1  0.289563  0.912038  0.881339  1
  Nd  Nd2  1  0.710437  0.087962  0.881339  1
  Nd  Nd3  1  0.710506  0.912273  0.381274  1
  Nd  Nd4  1  0.588006  0.789560  0.881247  1
  Nd  Nd5  1  0.587824  0.210411  0.381336  1
  Nd  Nd6  1  0.412176  0.789589  0.381336  1
  Nd  Nd7  1  0.411994  0.210440  0.881247  1
  Nd  Nd8  1  0.210411  0.412176  0.618664  1
  Nd  Nd9  1  0.210440  0.588006  0.118753  1
  Nd  Nd10  1  0.789560  0.411994  0.118753  1
  Nd  Nd11  1  0.789589  0.587824  0.618664  1
  Nd  Nd12  1  0.912038  0.710437  0.118661  1
  Nd  Nd13  1  0.912273  0.289494  0.618726  1
  Nd  Nd14  1  0.087727  0.710506  0.618726  1
  Nd  Nd15  1  0.087962  0.289563  0.118661  1
  Dy  Dy16  1  0.000000  0.000000  0.500000  1
  Y  Y17  1  0.000000  0.000000  0.000000  1
  Y  Y18  1  0.500000  0.500000  0.000000  1
  Y  Y19  1  0.500000  0.500000  0.500000  1
  Ir  Ir20  1  0.850252  0.149583  0.251105  1
  Ir  Ir21  1  0.850417  0.850252  0.748895  1
  Ir  Ir22  1  0.149583  0.149748  0.748895  1
  Ir  Ir23  1  0.149748  0.850417  0.251105  1
  Ir  Ir24  1  0.650234  0.349771  0.749968  1
  Ir  Ir25  1  0.650229  0.650234  0.250032  1
  Ir  Ir26  1  0.349771  0.349766  0.250032  1
  Ir  Ir27  1  0.349766  0.650229  0.749968  1
  Ir  Ir28  1  0.500000  0.000000  0.120512  1
  Ir  Ir29  1  0.500000  0.000000  0.620584  1
  Ir  Ir30  1  0.000000  0.500000  0.879488  1
  Ir  Ir31  1  0.000000  0.500000  0.379416  1
