# generated using pymatgen
data_DyErB5
_symmetry_space_group_name_H-M   'P 1'
_cell_length_a   7.07824400
_cell_length_b   7.07149890
_cell_length_c   7.10010001
_cell_angle_alpha   76.31194762
_cell_angle_beta   90.00000000
_cell_angle_gamma   90.00000000
_symmetry_Int_Tables_number   1
_chemical_formula_structural   DyErB5
_chemical_formula_sum   'Dy4 Er4 B20'
_cell_volume   345.29342042
_cell_formula_units_Z   4
loop_
 _symmetry_equiv_pos_site_id
 _symmetry_equiv_pos_as_xyz
  1  'x, y, z'
loop_
 _atom_site_type_symbol
 _atom_site_label
 _atom_site_symmetry_multiplicity
 _atom_site_fract_x
 _atom_site_fract_y
 _atom_site_fract_z
 _atom_site_occupancy
  Dy  Dy0  1  0.692497  0.771266  0.624607  1
  Dy  Dy1  1  0.192497  0.228734  0.875393  1
  Dy  Dy2  1  0.307503  0.228734  0.375393  1
  Dy  Dy3  1  0.807503  0.771266  0.124607  1
  Er  Er4  1  0.315042  0.754259  0.252021  1
  Er  Er5  1  0.815042  0.245741  0.247979  1
  Er  Er6  1  0.684958  0.245741  0.747979  1
  Er  Er7  1  0.184958  0.754259  0.752021  1
  B  B8  1  0.503004  0.313054  0.042392  1
  B  B9  1  0.003004  0.686946  0.457608  1
  B  B10  1  0.496996  0.686946  0.957608  1
  B  B11  1  0.996996  0.313054  0.542392  1
  B  B12  1  0.487042  0.927685  0.923036  1
  B  B13  1  0.987042  0.072315  0.576964  1
  B  B14  1  0.512958  0.072315  0.076964  1
  B  B15  1  0.012958  0.927685  0.423036  1
  B  B16  1  0.325923  0.495638  0.040029  1
  B  B17  1  0.825923  0.504362  0.459971  1
  B  B18  1  0.674077  0.504362  0.959971  1
  B  B19  1  0.174077  0.495638  0.540029  1
  B  B20  1  0.910998  0.499172  0.911009  1
  B  B21  1  0.410998  0.500828  0.588991  1
  B  B22  1  0.089002  0.500828  0.088991  1
  B  B23  1  0.589002  0.499172  0.411009  1
  B  B24  1  0.961669  0.496477  0.674635  1
  B  B25  1  0.461669  0.503523  0.825365  1
  B  B26  1  0.038331  0.503523  0.325365  1
  B  B27  1  0.538331  0.496477  0.174635  1
