# generated using pymatgen
data_Tm11LuCo4HgOs
_symmetry_space_group_name_H-M   'P 1'
_cell_length_a   8.15643839
_cell_length_b   8.16105090
_cell_length_c   8.16113285
_cell_angle_alpha   111.47727676
_cell_angle_beta   110.74105445
_cell_angle_gamma   106.26600487
_symmetry_Int_Tables_number   1
_chemical_formula_structural   Tm11LuCo4HgOs
_chemical_formula_sum   'Tm11 Lu1 Co4 Hg1 Os1'
_cell_volume   417.07660079
_cell_formula_units_Z   1
loop_
 _symmetry_equiv_pos_site_id
 _symmetry_equiv_pos_as_xyz
  1  'x, y, z'
loop_
 _atom_site_type_symbol
 _atom_site_label
 _atom_site_symmetry_multiplicity
 _atom_site_fract_x
 _atom_site_fract_y
 _atom_site_fract_z
 _atom_site_occupancy
  Tm  Tm0  1  0.180904  0.224204  0.404643  1
  Tm  Tm1  1  0.180930  0.776276  0.956708  1
  Tm  Tm2  1  0.684079  0.491363  0.806494  1
  Tm  Tm3  1  0.684035  0.877568  0.192671  1
  Tm  Tm4  1  0.967235  0.274274  0.692937  1
  Tm  Tm5  1  0.032159  0.725610  0.306574  1
  Tm  Tm6  1  0.316080  0.122972  0.807805  1
  Tm  Tm7  1  0.316033  0.508262  0.193070  1
  Tm  Tm8  1  0.819413  0.224343  0.044434  1
  Tm  Tm9  1  0.819431  0.774987  0.595066  1
  Tm  Tm10  1  0.418943  0.725656  0.693248  1
  Lu  Lu11  1  0.581292  0.274843  0.306478  1
  Co  Co12  1  0.887262  0.887216  0.000053  1
  Co  Co13  1  0.372041  0.500190  0.871873  1
  Co  Co14  1  0.628043  0.499747  0.128290  1
  Co  Co15  1  0.113516  0.112633  0.000870  1
  Hg  Hg16  1  0.499636  0.000369  0.499284  1
  Os  Os17  1  0.998970  0.499484  0.499501  1
