# generated using pymatgen
data_SrCa5B(AsO4)5
_symmetry_space_group_name_H-M   'P 1'
_cell_length_a   7.18858899
_cell_length_b   7.10186941
_cell_length_c   9.29158787
_cell_angle_alpha   90.82167849
_cell_angle_beta   90.49265355
_cell_angle_gamma   90.42485366
_symmetry_Int_Tables_number   1
_chemical_formula_structural   SrCa5B(AsO4)5
_chemical_formula_sum   'Sr1 Ca5 B1 As5 O20'
_cell_volume   474.27825719
_cell_formula_units_Z   1
loop_
 _symmetry_equiv_pos_site_id
 _symmetry_equiv_pos_as_xyz
  1  'x, y, z'
loop_
 _atom_site_type_symbol
 _atom_site_label
 _atom_site_symmetry_multiplicity
 _atom_site_fract_x
 _atom_site_fract_y
 _atom_site_fract_z
 _atom_site_occupancy
  Sr  Sr0  1  0.810276  0.201406  0.168671  1
  Ca  Ca1  1  0.991987  0.515565  0.465408  1
  Ca  Ca2  1  0.224436  0.155551  0.848202  1
  Ca  Ca3  1  0.808918  0.787112  0.823268  1
  Ca  Ca4  1  0.508213  0.007482  0.535262  1
  Ca  Ca5  1  0.159773  0.776785  0.144273  1
  B  B6  1  0.488783  0.489160  0.007610  1
  As  As7  1  0.680034  0.731235  0.201927  1
  As  As8  1  0.289485  0.275454  0.216183  1
  As  As9  1  0.295817  0.678964  0.782634  1
  As  As10  1  0.010799  0.997060  0.502292  1
  As  As11  1  0.733264  0.323626  0.796930  1
  O  O12  1  0.756314  0.534932  0.284321  1
  O  O13  1  0.674041  0.486200  0.939746  1
  O  O14  1  0.074418  0.825120  0.380451  1
  O  O15  1  0.538400  0.207234  0.740629  1
  O  O16  1  0.602017  0.914231  0.302068  1
  O  O17  1  0.169162  0.104441  0.117662  1
  O  O18  1  0.939257  0.195799  0.415273  1
  O  O19  1  0.194623  0.044702  0.616812  1
  O  O20  1  0.829998  0.482817  0.685359  1
  O  O21  1  0.144975  0.465609  0.225629  1
  O  O22  1  0.475381  0.313582  0.090632  1
  O  O23  1  0.478289  0.664410  0.096896  1
  O  O24  1  0.888793  0.176367  0.880140  1
  O  O25  1  0.390794  0.223815  0.372676  1
  O  O26  1  0.214124  0.573248  0.633518  1
  O  O27  1  0.837000  0.826942  0.082727  1
  O  O28  1  0.141699  0.815879  0.881232  1
  O  O29  1  0.329650  0.487951  0.905828  1
  O  O30  1  0.495093  0.804966  0.758334  1
  O  O31  1  0.824189  0.912355  0.597409  1
