# generated using pymatgen
data_Pa5SiSe4
_symmetry_space_group_name_H-M   'P 1'
_cell_length_a   7.05249908
_cell_length_b   7.05249935
_cell_length_c   7.05249917
_cell_angle_alpha   99.61091860
_cell_angle_beta   99.61091688
_cell_angle_gamma   131.76574948
_symmetry_Int_Tables_number   1
_chemical_formula_structural   Pa5SiSe4
_chemical_formula_sum   'Pa5 Si1 Se4'
_cell_volume   238.79685150
_cell_formula_units_Z   1
loop_
 _symmetry_equiv_pos_site_id
 _symmetry_equiv_pos_as_xyz
  1  'x, y, z'
loop_
 _atom_site_type_symbol
 _atom_site_label
 _atom_site_symmetry_multiplicity
 _atom_site_fract_x
 _atom_site_fract_y
 _atom_site_fract_z
 _atom_site_occupancy
  Pa  Pa0  1  0.402288  0.796737  0.199025  1
  Pa  Pa1  1  0.000000  0.000000  0.000000  1
  Pa  Pa2  1  0.597712  0.203263  0.800975  1
  Pa  Pa3  1  0.203263  0.402288  0.605551  1
  Pa  Pa4  1  0.796737  0.597712  0.394449  1
  Si  Si5  1  0.500000  0.500000  0.000000  1
  Se  Se6  1  0.100181  0.700731  0.800912  1
  Se  Se7  1  0.700731  0.899819  0.600550  1
  Se  Se8  1  0.299269  0.100181  0.399450  1
  Se  Se9  1  0.899819  0.299269  0.199088  1
