# generated using pymatgen
data_Pr3Nd5(CdOs)2
_symmetry_space_group_name_H-M   'P 1'
_cell_length_a   9.97510533
_cell_length_b   9.97510442
_cell_length_c   9.97510500
_cell_angle_alpha   60.00000140
_cell_angle_beta   60.00000440
_cell_angle_gamma   60.00000568
_symmetry_Int_Tables_number   1
_chemical_formula_structural   Pr3Nd5(CdOs)2
_chemical_formula_sum   'Pr6 Nd10 Cd4 Os4'
_cell_volume   701.83893346
_cell_formula_units_Z   2
loop_
 _symmetry_equiv_pos_site_id
 _symmetry_equiv_pos_as_xyz
  1  'x, y, z'
loop_
 _atom_site_type_symbol
 _atom_site_label
 _atom_site_symmetry_multiplicity
 _atom_site_fract_x
 _atom_site_fract_y
 _atom_site_fract_z
 _atom_site_occupancy
  Pr  Pr0  1  0.941249  0.558751  0.558751  1
  Pr  Pr1  1  0.558751  0.941249  0.941249  1
  Pr  Pr2  1  0.558751  0.941249  0.558751  1
  Pr  Pr3  1  0.941249  0.558751  0.941249  1
  Pr  Pr4  1  0.558751  0.558751  0.941249  1
  Pr  Pr5  1  0.941249  0.941249  0.558751  1
  Nd  Nd6  1  0.345514  0.345514  0.345514  1
  Nd  Nd7  1  0.345514  0.345514  0.963458  1
  Nd  Nd8  1  0.345514  0.963458  0.345514  1
  Nd  Nd9  1  0.963458  0.345514  0.345514  1
  Nd  Nd10  1  0.809535  0.190465  0.190465  1
  Nd  Nd11  1  0.190465  0.809535  0.809535  1
  Nd  Nd12  1  0.190465  0.809535  0.190465  1
  Nd  Nd13  1  0.809535  0.190465  0.809535  1
  Nd  Nd14  1  0.190465  0.190465  0.809535  1
  Nd  Nd15  1  0.809535  0.809535  0.190465  1
  Cd  Cd16  1  0.578989  0.578989  0.578989  1
  Cd  Cd17  1  0.578989  0.578989  0.263032  1
  Cd  Cd18  1  0.578989  0.263032  0.578989  1
  Cd  Cd19  1  0.263032  0.578989  0.578989  1
  Os  Os20  1  0.138369  0.138369  0.138369  1
  Os  Os21  1  0.138369  0.138369  0.584895  1
  Os  Os22  1  0.138369  0.584895  0.138369  1
  Os  Os23  1  0.584895  0.138369  0.138369  1
