# generated using pymatgen
data_Ca12AgPd3
_symmetry_space_group_name_H-M   'P 1'
_cell_length_a   6.66457545
_cell_length_b   7.89465855
_cell_length_c   9.79774000
_cell_angle_alpha   90.00000000
_cell_angle_beta   90.00000000
_cell_angle_gamma   90.40334845
_symmetry_Int_Tables_number   1
_chemical_formula_structural   Ca12AgPd3
_chemical_formula_sum   'Ca12 Ag1 Pd3'
_cell_volume   515.49088323
_cell_formula_units_Z   1
loop_
 _symmetry_equiv_pos_site_id
 _symmetry_equiv_pos_as_xyz
  1  'x, y, z'
loop_
 _atom_site_type_symbol
 _atom_site_label
 _atom_site_symmetry_multiplicity
 _atom_site_fract_x
 _atom_site_fract_y
 _atom_site_fract_z
 _atom_site_occupancy
  Ca  Ca0  1  0.345583  0.665288  0.060573  1
  Ca  Ca1  1  0.162415  0.180304  0.441152  1
  Ca  Ca2  1  0.664156  0.327163  0.567099  1
  Ca  Ca3  1  0.836956  0.829456  0.932593  1
  Ca  Ca4  1  0.664156  0.327163  0.932901  1
  Ca  Ca5  1  0.836956  0.829456  0.567407  1
  Ca  Ca6  1  0.345583  0.665288  0.439427  1
  Ca  Ca7  1  0.162415  0.180304  0.058848  1
  Ca  Ca8  1  0.855278  0.529783  0.250000  1
  Ca  Ca9  1  0.628893  0.044132  0.250000  1
  Ca  Ca10  1  0.140755  0.460677  0.750000  1
  Ca  Ca11  1  0.357143  0.958320  0.750000  1
  Ag  Ag12  1  0.053459  0.879178  0.250000  1
  Pd  Pd13  1  0.446220  0.377209  0.250000  1
  Pd  Pd14  1  0.952890  0.124180  0.750000  1
  Pd  Pd15  1  0.547142  0.622098  0.750000  1
