# generated using pymatgen
data_Tb2Mn3P4Rh3
_symmetry_space_group_name_H-M   'P 1'
_cell_length_a   3.81202300
_cell_length_b   10.97339479
_cell_length_c   12.96384212
_cell_angle_alpha   89.77044096
_cell_angle_beta   90.00000000
_cell_angle_gamma   90.00000000
_symmetry_Int_Tables_number   1
_chemical_formula_structural   Tb2Mn3P4Rh3
_chemical_formula_sum   'Tb6 Mn9 P12 Rh9'
_cell_volume   542.28396635
_cell_formula_units_Z   3
loop_
 _symmetry_equiv_pos_site_id
 _symmetry_equiv_pos_as_xyz
  1  'x, y, z'
loop_
 _atom_site_type_symbol
 _atom_site_label
 _atom_site_symmetry_multiplicity
 _atom_site_fract_x
 _atom_site_fract_y
 _atom_site_fract_z
 _atom_site_occupancy
  Tb  Tb0  1  0.000000  0.502431  0.519067  1
  Tb  Tb1  1  0.500000  0.999608  0.480850  1
  Tb  Tb2  1  0.500000  0.819014  0.203724  1
  Tb  Tb3  1  0.500000  0.179346  0.205613  1
  Tb  Tb4  1  0.000000  0.679763  0.797091  1
  Tb  Tb5  1  0.000000  0.319497  0.793134  1
  Mn  Mn6  1  0.500000  0.500153  0.159934  1
  Mn  Mn7  1  0.000000  0.001495  0.840117  1
  Mn  Mn8  1  0.000000  0.499639  0.990073  1
  Mn  Mn9  1  0.500000  0.000433  0.010688  1
  Mn  Mn10  1  0.500000  0.333887  0.997841  1
  Mn  Mn11  1  0.500000  0.665185  0.998113  1
  Mn  Mn12  1  0.000000  0.165653  0.001615  1
  Mn  Mn13  1  0.000000  0.835462  0.002085  1
  Mn  Mn14  1  0.500000  0.297802  0.431863  1
  P  P15  1  0.500000  0.499407  0.886121  1
  P  P16  1  0.000000  0.000303  0.114462  1
  P  P17  1  0.500000  0.495865  0.350771  1
  P  P18  1  0.000000  0.001007  0.652839  1
  P  P19  1  0.500000  0.316797  0.611967  1
  P  P20  1  0.500000  0.685549  0.619338  1
  P  P21  1  0.000000  0.186608  0.382106  1
  P  P22  1  0.000000  0.813733  0.381077  1
  P  P23  1  0.500000  0.842699  0.895689  1
  P  P24  1  0.500000  0.157657  0.893921  1
  P  P25  1  0.000000  0.657653  0.104977  1
  P  P26  1  0.000000  0.341928  0.105682  1
  Rh  Rh27  1  0.500000  0.499439  0.703746  1
  Rh  Rh28  1  0.000000  0.999225  0.296605  1
  Rh  Rh29  1  0.500000  0.705247  0.431510  1
  Rh  Rh30  1  0.000000  0.205883  0.565750  1
  Rh  Rh31  1  0.000000  0.795037  0.569482  1
  Rh  Rh32  1  0.500000  0.874012  0.714388  1
  Rh  Rh33  1  0.500000  0.124709  0.711319  1
  Rh  Rh34  1  0.000000  0.624055  0.286811  1
  Rh  Rh35  1  0.000000  0.373818  0.289630  1
