# generated using pymatgen
data_MgTi(BeRu)4
_symmetry_space_group_name_H-M   'P 1'
_cell_length_a   6.18099200
_cell_length_b   6.18099200
_cell_length_c   2.95327200
_cell_angle_alpha   90.00000000
_cell_angle_beta   90.00000000
_cell_angle_gamma   90.00000000
_symmetry_Int_Tables_number   1
_chemical_formula_structural   MgTi(BeRu)4
_chemical_formula_sum   'Mg1 Ti1 Be4 Ru4'
_cell_volume   112.82875886
_cell_formula_units_Z   1
loop_
 _symmetry_equiv_pos_site_id
 _symmetry_equiv_pos_as_xyz
  1  'x, y, z'
loop_
 _atom_site_type_symbol
 _atom_site_label
 _atom_site_symmetry_multiplicity
 _atom_site_fract_x
 _atom_site_fract_y
 _atom_site_fract_z
 _atom_site_occupancy
  Mg  Mg0  1  0.000000  0.000000  0.000000  1
  Ti  Ti1  1  0.500000  0.500000  0.000000  1
  Be  Be2  1  0.886268  0.375469  0.000000  1
  Be  Be3  1  0.375469  0.113732  0.000000  1
  Be  Be4  1  0.624531  0.886268  0.000000  1
  Be  Be5  1  0.113732  0.624531  0.000000  1
  Ru  Ru6  1  0.660065  0.183253  0.500000  1
  Ru  Ru7  1  0.183253  0.339935  0.500000  1
  Ru  Ru8  1  0.816747  0.660065  0.500000  1
  Ru  Ru9  1  0.339935  0.816747  0.500000  1
