# generated using pymatgen
data_Ho2Lu2InIr
_symmetry_space_group_name_H-M   'P 1'
_cell_length_a   9.55054342
_cell_length_b   9.55054369
_cell_length_c   9.56859400
_cell_angle_alpha   59.93746035
_cell_angle_beta   59.93745942
_cell_angle_gamma   59.84652841
_symmetry_Int_Tables_number   1
_chemical_formula_structural   Ho2Lu2InIr
_chemical_formula_sum   'Ho8 Lu8 In4 Ir4'
_cell_volume   615.84699062
_cell_formula_units_Z   4
loop_
 _symmetry_equiv_pos_site_id
 _symmetry_equiv_pos_as_xyz
  1  'x, y, z'
loop_
 _atom_site_type_symbol
 _atom_site_label
 _atom_site_symmetry_multiplicity
 _atom_site_fract_x
 _atom_site_fract_y
 _atom_site_fract_z
 _atom_site_occupancy
  Ho  Ho0  1  0.952756  0.350542  0.348351  1
  Ho  Ho1  1  0.350542  0.952756  0.348351  1
  Ho  Ho2  1  0.940483  0.560332  0.559351  1
  Ho  Ho3  1  0.560332  0.940483  0.939834  1
  Ho  Ho4  1  0.560332  0.940483  0.559351  1
  Ho  Ho5  1  0.559190  0.559190  0.940810  1
  Ho  Ho6  1  0.940483  0.560332  0.939834  1
  Ho  Ho7  1  0.940629  0.940629  0.559371  1
  Lu  Lu8  1  0.808699  0.189359  0.191448  1
  Lu  Lu9  1  0.189358  0.808701  0.810494  1
  Lu  Lu10  1  0.189359  0.808699  0.191448  1
  Lu  Lu11  1  0.190587  0.190587  0.809412  1
  Lu  Lu12  1  0.808701  0.189358  0.810494  1
  Lu  Lu13  1  0.810294  0.810294  0.189706  1
  Lu  Lu14  1  0.348417  0.348417  0.347850  1
  Lu  Lu15  1  0.348417  0.348417  0.955314  1
  In  In16  1  0.582546  0.582546  0.584038  1
  In  In17  1  0.582546  0.582546  0.250870  1
  In  In18  1  0.251035  0.582610  0.583178  1
  In  In19  1  0.582610  0.251035  0.583178  1
  Ir  Ir20  1  0.140839  0.140839  0.138561  1
  Ir  Ir21  1  0.140839  0.140839  0.579762  1
  Ir  Ir22  1  0.577884  0.143122  0.139497  1
  Ir  Ir23  1  0.143122  0.577884  0.139497  1
