# generated using pymatgen
data_Tm3Lu3Al17Si7Os8
_symmetry_space_group_name_H-M   'P 1'
_cell_length_a   8.67020701
_cell_length_b   8.66097572
_cell_length_c   9.44188800
_cell_angle_alpha   90.00000000
_cell_angle_beta   90.00000000
_cell_angle_gamma   120.09557222
_symmetry_Int_Tables_number   1
_chemical_formula_structural   Tm3Lu3Al17Si7Os8
_chemical_formula_sum   'Tm3 Lu3 Al17 Si7 Os8'
_cell_volume   613.43240107
_cell_formula_units_Z   1
loop_
 _symmetry_equiv_pos_site_id
 _symmetry_equiv_pos_as_xyz
  1  'x, y, z'
loop_
 _atom_site_type_symbol
 _atom_site_label
 _atom_site_symmetry_multiplicity
 _atom_site_fract_x
 _atom_site_fract_y
 _atom_site_fract_z
 _atom_site_occupancy
  Tm  Tm0  1  0.389780  0.192036  0.750000  1
  Tm  Tm1  1  0.196746  0.804384  0.250000  1
  Tm  Tm2  1  0.801679  0.192495  0.750000  1
  Lu  Lu3  1  0.194192  0.391112  0.250000  1
  Lu  Lu4  1  0.805617  0.611531  0.750000  1
  Lu  Lu5  1  0.608036  0.805855  0.250000  1
  Al  Al6  1  0.164208  0.329318  0.578787  1
  Al  Al7  1  0.834177  0.671346  0.420549  1
  Al  Al8  1  0.671638  0.835051  0.578441  1
  Al  Al9  1  0.834177  0.671346  0.079451  1
  Al  Al10  1  0.329567  0.166054  0.421584  1
  Al  Al11  1  0.164208  0.329318  0.921213  1
  Al  Al12  1  0.163420  0.834285  0.577582  1
  Al  Al13  1  0.329567  0.166054  0.078416  1
  Al  Al14  1  0.835636  0.164066  0.420634  1
  Al  Al15  1  0.671638  0.835051  0.921559  1
  Al  Al16  1  0.835636  0.164066  0.079366  1
  Al  Al17  1  0.163420  0.834285  0.922418  1
  Al  Al18  1  0.124985  0.565143  0.750000  1
  Al  Al19  1  0.564138  0.435546  0.250000  1
  Al  Al20  1  0.439044  0.566016  0.750000  1
  Al  Al21  1  0.999382  0.999570  0.250000  1
  Al  Al22  1  0.999792  0.000538  0.750000  1
  Si  Si23  1  0.333623  0.664624  0.040506  1
  Si  Si24  1  0.666742  0.335931  0.958794  1
  Si  Si25  1  0.666742  0.335931  0.541206  1
  Si  Si26  1  0.333623  0.664624  0.459494  1
  Si  Si27  1  0.564454  0.123893  0.250000  1
  Si  Si28  1  0.436633  0.873443  0.750000  1
  Si  Si29  1  0.875199  0.435078  0.250000  1
  Os  Os30  1  0.501062  0.000858  0.001222  1
  Os  Os31  1  0.998692  0.499469  0.006665  1
  Os  Os32  1  0.501062  0.000858  0.498778  1
  Os  Os33  1  0.500765  0.500401  0.000531  1
  Os  Os34  1  0.998692  0.499469  0.493335  1
  Os  Os35  1  0.500765  0.500401  0.499469  1
  Os  Os36  1  0.000633  0.000276  0.000135  1
  Os  Os37  1  0.000633  0.000276  0.499865  1
