# generated using pymatgen
data_Li29ZnSi7Sn
_symmetry_space_group_name_H-M   'P 1'
_cell_length_a   9.23179912
_cell_length_b   9.24956272
_cell_length_c   9.20099395
_cell_angle_alpha   108.91846840
_cell_angle_beta   109.91448007
_cell_angle_gamma   109.88538834
_symmetry_Int_Tables_number   1
_chemical_formula_structural   Li29ZnSi7Sn
_chemical_formula_sum   'Li29 Zn1 Si7 Sn1'
_cell_volume   602.48306836
_cell_formula_units_Z   1
loop_
 _symmetry_equiv_pos_site_id
 _symmetry_equiv_pos_as_xyz
  1  'x, y, z'
loop_
 _atom_site_type_symbol
 _atom_site_label
 _atom_site_symmetry_multiplicity
 _atom_site_fract_x
 _atom_site_fract_y
 _atom_site_fract_z
 _atom_site_occupancy
  Li  Li0  1  0.121785  0.748772  0.874979  1
  Li  Li1  1  0.730395  0.352497  0.817436  1
  Li  Li2  1  0.621153  0.766561  0.587445  1
  Li  Li3  1  0.033976  0.916960  0.693042  1
  Li  Li4  1  0.087058  0.274971  0.115507  1
  Li  Li5  1  0.914953  0.691688  0.031002  1
  Li  Li6  1  0.273798  0.115772  0.084892  1
  Li  Li7  1  0.197223  0.419480  0.535067  1
  Li  Li8  1  0.779164  0.585374  0.620630  1
  Li  Li9  1  0.691586  0.025942  0.918256  1
  Li  Li10  1  0.527159  0.190580  0.406305  1
  Li  Li11  1  0.622905  0.377144  0.247591  1
  Li  Li12  1  0.471708  0.167850  0.890244  1
  Li  Li13  1  0.881918  0.127450  0.755239  1
  Li  Li14  1  0.968984  0.379399  0.658761  1
  Li  Li15  1  0.413267  0.531466  0.189066  1
  Li  Li16  1  0.117448  0.087253  0.276462  1
  Li  Li17  1  0.300957  0.832846  0.211296  1
  Li  Li18  1  0.753925  0.873956  0.125513  1
  Li  Li19  1  0.885073  0.471429  0.160774  1
  Li  Li20  1  0.584550  0.618908  0.776623  1
  Li  Li21  1  0.381462  0.656842  0.963100  1
  Li  Li22  1  0.807319  0.725480  0.339969  1
  Li  Li23  1  0.659468  0.960011  0.372410  1
  Li  Li24  1  0.145766  0.879869  0.462826  1
  Li  Li25  1  0.223061  0.309699  0.841405  1
  Li  Li26  1  0.372432  0.255568  0.628881  1
  Li  Li27  1  0.844354  0.222995  0.307823  1
  Li  Li28  1  0.249237  0.618968  0.375383  1
  Zn  Zn29  1  0.328690  0.814183  0.732162  1
  Si  Si30  1  0.586189  0.504236  0.004554  1
  Si  Si31  1  0.496294  0.996007  0.072444  1
  Si  Si32  1  0.001393  0.087597  0.501174  1
  Si  Si33  1  0.008087  0.588922  0.507254  1
  Si  Si34  1  0.083623  0.498644  0.999198  1
  Si  Si35  1  0.416928  0.411411  0.413132  1
  Si  Si36  1  0.917737  0.915273  0.916389  1
  Sn  Sn37  1  0.498978  0.997995  0.585765  1
