# generated using pymatgen
data_PtCl(OF3)2
_symmetry_space_group_name_H-M   'P 1'
_cell_length_a   5.88289300
_cell_length_b   7.31518700
_cell_length_c   7.76169400
_cell_angle_alpha   90.00000000
_cell_angle_beta   90.00000000
_cell_angle_gamma   90.00000000
_symmetry_Int_Tables_number   1
_chemical_formula_structural   PtCl(OF3)2
_chemical_formula_sum   'Pt2 Cl2 O4 F12'
_cell_volume   334.02032857
_cell_formula_units_Z   2
loop_
 _symmetry_equiv_pos_site_id
 _symmetry_equiv_pos_as_xyz
  1  'x, y, z'
loop_
 _atom_site_type_symbol
 _atom_site_label
 _atom_site_symmetry_multiplicity
 _atom_site_fract_x
 _atom_site_fract_y
 _atom_site_fract_z
 _atom_site_occupancy
  Pt  Pt0  1  0.023793  0.000000  0.500000  1
  Pt  Pt1  1  0.976207  0.500000  0.000000  1
  Cl  Cl2  1  0.664496  0.000000  0.000000  1
  Cl  Cl3  1  0.335504  0.500000  0.500000  1
  O  O4  1  0.461889  0.500000  0.657085  1
  O  O5  1  0.538111  0.000000  0.157085  1
  O  O6  1  0.538111  0.000000  0.842915  1
  O  O7  1  0.461889  0.500000  0.342915  1
  F  F8  1  0.794877  0.185933  0.500000  1
  F  F9  1  0.267425  0.182424  0.500000  1
  F  F10  1  0.973203  0.500000  0.753133  1
  F  F11  1  0.794877  0.814067  0.500000  1
  F  F12  1  0.026797  0.000000  0.253133  1
  F  F13  1  0.732575  0.317576  0.000000  1
  F  F14  1  0.026797  0.000000  0.746867  1
  F  F15  1  0.267425  0.817576  0.500000  1
  F  F16  1  0.973203  0.500000  0.246867  1
  F  F17  1  0.732575  0.682424  0.000000  1
  F  F18  1  0.205123  0.314067  0.000000  1
  F  F19  1  0.205123  0.685933  0.000000  1
