# generated using pymatgen
data_GdHoTmTaO7
_symmetry_space_group_name_H-M   'P 1'
_cell_length_a   6.45749558
_cell_length_b   6.45749540
_cell_length_c   7.49175562
_cell_angle_alpha   90.02886702
_cell_angle_beta   90.02887860
_cell_angle_gamma   108.82093829
_symmetry_Int_Tables_number   1
_chemical_formula_structural   GdHoTmTaO7
_chemical_formula_sum   'Gd2 Ho2 Tm2 Ta2 O14'
_cell_volume   295.69685152
_cell_formula_units_Z   2
loop_
 _symmetry_equiv_pos_site_id
 _symmetry_equiv_pos_as_xyz
  1  'x, y, z'
loop_
 _atom_site_type_symbol
 _atom_site_label
 _atom_site_symmetry_multiplicity
 _atom_site_fract_x
 _atom_site_fract_y
 _atom_site_fract_z
 _atom_site_occupancy
  Gd  Gd0  1  0.474859  0.475994  0.998780  1
  Gd  Gd1  1  0.524006  0.525141  0.501220  1
  Ho  Ho2  1  0.466605  0.999161  0.255242  1
  Ho  Ho3  1  0.000839  0.533395  0.244758  1
  Tm  Tm4  1  0.534864  0.000904  0.755842  1
  Tm  Tm5  1  0.999096  0.465136  0.744158  1
  Ta  Ta6  1  0.002769  0.002181  0.501630  1
  Ta  Ta7  1  0.997819  0.997231  0.998370  1
  O  O8  1  0.929232  0.070768  0.750000  1
  O  O9  1  0.643157  0.356843  0.750000  1
  O  O10  1  0.312937  0.054279  0.543497  1
  O  O11  1  0.945721  0.687063  0.956503  1
  O  O12  1  0.632591  0.367409  0.250000  1
  O  O13  1  0.923738  0.674028  0.530100  1
  O  O14  1  0.325972  0.076262  0.969900  1
  O  O15  1  0.078274  0.327452  0.025556  1
  O  O16  1  0.672548  0.921726  0.474444  1
  O  O17  1  0.366202  0.633798  0.750000  1
  O  O18  1  0.684312  0.940113  0.037627  1
  O  O19  1  0.059887  0.315688  0.462373  1
  O  O20  1  0.359016  0.640984  0.250000  1
  O  O21  1  0.065559  0.934441  0.250000  1
