# generated using pymatgen
data_Zr3Al3PdAu2
_symmetry_space_group_name_H-M   'P 1'
_cell_length_a   6.81333100
_cell_length_b   6.81333148
_cell_length_c   4.15834800
_cell_angle_alpha   90.00000000
_cell_angle_beta   90.00000000
_cell_angle_gamma   120.00000251
_symmetry_Int_Tables_number   1
_chemical_formula_structural   Zr3Al3PdAu2
_chemical_formula_sum   'Zr3 Al3 Pd1 Au2'
_cell_volume   167.17466397
_cell_formula_units_Z   1
loop_
 _symmetry_equiv_pos_site_id
 _symmetry_equiv_pos_as_xyz
  1  'x, y, z'
loop_
 _atom_site_type_symbol
 _atom_site_label
 _atom_site_symmetry_multiplicity
 _atom_site_fract_x
 _atom_site_fract_y
 _atom_site_fract_z
 _atom_site_occupancy
  Zr  Zr0  1  0.415463  0.415463  0.500000  1
  Zr  Zr1  1  0.584537  0.000000  0.500000  1
  Zr  Zr2  1  0.000000  0.584537  0.500000  1
  Al  Al3  1  0.757584  0.757584  0.000000  1
  Al  Al4  1  0.242416  0.000000  0.000000  1
  Al  Al5  1  0.000000  0.242416  0.000000  1
  Pd  Pd6  1  0.000000  0.000000  0.500000  1
  Au  Au7  1  0.666667  0.333333  0.000000  1
  Au  Au8  1  0.333333  0.666667  0.000000  1
