# generated using pymatgen
data_SmHoMgNi7B2
_symmetry_space_group_name_H-M   'P 1'
_cell_length_a   5.02099800
_cell_length_b   5.02099816
_cell_length_c   14.33152000
_cell_angle_alpha   90.00000000
_cell_angle_beta   90.00000000
_cell_angle_gamma   119.99999897
_symmetry_Int_Tables_number   1
_chemical_formula_structural   SmHoMgNi7B2
_chemical_formula_sum   'Sm2 Ho2 Mg2 Ni14 B4'
_cell_volume   312.89815366
_cell_formula_units_Z   2
loop_
 _symmetry_equiv_pos_site_id
 _symmetry_equiv_pos_as_xyz
  1  'x, y, z'
loop_
 _atom_site_type_symbol
 _atom_site_label
 _atom_site_symmetry_multiplicity
 _atom_site_fract_x
 _atom_site_fract_y
 _atom_site_fract_z
 _atom_site_occupancy
  Sm  Sm0  1  0.666667  0.333333  0.529897  1
  Sm  Sm1  1  0.333333  0.666667  0.029897  1
  Ho  Ho2  1  0.666667  0.333333  0.756103  1
  Ho  Ho3  1  0.333333  0.666667  0.256103  1
  Mg  Mg4  1  0.333333  0.666667  0.466092  1
  Mg  Mg5  1  0.666667  0.333333  0.966092  1
  Ni  Ni6  1  0.834823  0.165177  0.351489  1
  Ni  Ni7  1  0.834823  0.669647  0.351489  1
  Ni  Ni8  1  0.000000  0.000000  0.998576  1
  Ni  Ni9  1  0.000000  0.000000  0.498576  1
  Ni  Ni10  1  0.833893  0.667786  0.149019  1
  Ni  Ni11  1  0.166107  0.833893  0.649019  1
  Ni  Ni12  1  0.667786  0.833893  0.649019  1
  Ni  Ni13  1  0.332214  0.166107  0.149019  1
  Ni  Ni14  1  0.833893  0.166107  0.149019  1
  Ni  Ni15  1  0.165177  0.330353  0.851489  1
  Ni  Ni16  1  0.165177  0.834823  0.851489  1
  Ni  Ni17  1  0.166107  0.332214  0.649019  1
  Ni  Ni18  1  0.669647  0.834823  0.851489  1
  Ni  Ni19  1  0.330353  0.165177  0.351489  1
  B  B20  1  0.666667  0.333333  0.250160  1
  B  B21  1  0.333333  0.666667  0.750160  1
  B  B22  1  0.000000  0.000000  0.747651  1
  B  B23  1  0.000000  0.000000  0.247651  1
