# generated using pymatgen
data_Zr7Co16MoAs12
_symmetry_space_group_name_H-M   'P 1'
_cell_length_a   12.50108825
_cell_length_b   12.50108791
_cell_length_c   3.79260100
_cell_angle_alpha   90.00000000
_cell_angle_beta   90.00000000
_cell_angle_gamma   120.02290243
_symmetry_Int_Tables_number   1
_chemical_formula_structural   Zr7Co16MoAs12
_chemical_formula_sum   'Zr7 Co16 Mo1 As12'
_cell_volume   513.17222703
_cell_formula_units_Z   1
loop_
 _symmetry_equiv_pos_site_id
 _symmetry_equiv_pos_as_xyz
  1  'x, y, z'
loop_
 _atom_site_type_symbol
 _atom_site_label
 _atom_site_symmetry_multiplicity
 _atom_site_fract_x
 _atom_site_fract_y
 _atom_site_fract_z
 _atom_site_occupancy
  Zr  Zr0  1  0.819064  0.819064  0.500000  1
  Zr  Zr1  1  0.998930  0.174058  0.500000  1
  Zr  Zr2  1  0.557235  0.999894  0.000000  1
  Zr  Zr3  1  0.334564  0.665597  0.000000  1
  Zr  Zr4  1  0.665597  0.334564  0.000000  1
  Zr  Zr5  1  0.999894  0.557235  0.000000  1
  Zr  Zr6  1  0.174058  0.998930  0.500000  1
  Co  Co7  1  0.625979  0.818980  0.000000  1
  Co  Co8  1  0.375343  0.200198  0.000000  1
  Co  Co9  1  0.000839  0.720169  0.500000  1
  Co  Co10  1  0.281104  0.281104  0.500000  1
  Co  Co11  1  0.877719  0.355485  0.500000  1
  Co  Co12  1  0.720169  0.000839  0.500000  1
  Co  Co13  1  0.818980  0.625979  0.000000  1
  Co  Co14  1  0.178955  0.806066  0.000000  1
  Co  Co15  1  0.355485  0.877719  0.500000  1
  Co  Co16  1  0.127388  0.479344  0.500000  1
  Co  Co17  1  0.641774  0.518364  0.500000  1
  Co  Co18  1  0.000644  0.000644  0.000000  1
  Co  Co19  1  0.518364  0.641774  0.500000  1
  Co  Co20  1  0.479344  0.127388  0.500000  1
  Co  Co21  1  0.200198  0.375343  0.000000  1
  Co  Co22  1  0.806066  0.178955  0.000000  1
  Mo  Mo23  1  0.446140  0.446140  0.000000  1
  As  As24  1  0.003807  0.347155  0.000000  1
  As  As25  1  0.824567  0.514939  0.500000  1
  As  As26  1  0.689936  0.175801  0.500000  1
  As  As27  1  0.177180  0.177180  0.000000  1
  As  As28  1  0.643265  0.643265  0.000000  1
  As  As29  1  0.822913  0.997963  0.000000  1
  As  As30  1  0.514939  0.824567  0.500000  1
  As  As31  1  0.175801  0.689936  0.500000  1
  As  As32  1  0.347155  0.003807  0.000000  1
  As  As33  1  0.482591  0.316051  0.500000  1
  As  As34  1  0.997963  0.822913  0.000000  1
  As  As35  1  0.316051  0.482591  0.500000  1
