# generated using pymatgen
data_Ce2ThPt2Rh3
_symmetry_space_group_name_H-M   'P 1'
_cell_length_a   7.05356152
_cell_length_b   7.05356013
_cell_length_c   3.89980400
_cell_angle_alpha   90.00000000
_cell_angle_beta   90.00000000
_cell_angle_gamma   120.35331220
_symmetry_Int_Tables_number   1
_chemical_formula_structural   Ce2ThPt2Rh3
_chemical_formula_sum   'Ce2 Th1 Pt2 Rh3'
_cell_volume   167.42990440
_cell_formula_units_Z   1
loop_
 _symmetry_equiv_pos_site_id
 _symmetry_equiv_pos_as_xyz
  1  'x, y, z'
loop_
 _atom_site_type_symbol
 _atom_site_label
 _atom_site_symmetry_multiplicity
 _atom_site_fract_x
 _atom_site_fract_y
 _atom_site_fract_z
 _atom_site_occupancy
  Ce  Ce0  1  0.663524  0.000542  0.500000  1
  Ce  Ce1  1  0.000542  0.663524  0.500000  1
  Th  Th2  1  0.342764  0.342764  0.500000  1
  Pt  Pt3  1  0.333428  0.667653  0.000000  1
  Pt  Pt4  1  0.667653  0.333428  0.000000  1
  Rh  Rh5  1  0.223368  0.995518  0.000000  1
  Rh  Rh6  1  0.995518  0.223368  0.000000  1
  Rh  Rh7  1  0.773203  0.773203  0.000000  1
