# generated using pymatgen
data_HoTmReB6
_symmetry_space_group_name_H-M   'P 1'
_cell_length_a   3.65527100
_cell_length_b   9.12494900
_cell_length_c   11.50565800
_cell_angle_alpha   90.00000000
_cell_angle_beta   90.00000000
_cell_angle_gamma   90.00000000
_symmetry_Int_Tables_number   1
_chemical_formula_structural   HoTmReB6
_chemical_formula_sum   'Ho4 Tm4 Re4 B24'
_cell_volume   383.76157459
_cell_formula_units_Z   4
loop_
 _symmetry_equiv_pos_site_id
 _symmetry_equiv_pos_as_xyz
  1  'x, y, z'
loop_
 _atom_site_type_symbol
 _atom_site_label
 _atom_site_symmetry_multiplicity
 _atom_site_fract_x
 _atom_site_fract_y
 _atom_site_fract_z
 _atom_site_occupancy
  Ho  Ho0  1  0.000000  0.323437  0.413895  1
  Ho  Ho1  1  0.000000  0.676563  0.586105  1
  Ho  Ho2  1  0.000000  0.823437  0.086105  1
  Ho  Ho3  1  0.000000  0.176563  0.913895  1
  Tm  Tm4  1  0.000000  0.943666  0.370540  1
  Tm  Tm5  1  0.000000  0.056334  0.629460  1
  Tm  Tm6  1  0.000000  0.443666  0.129460  1
  Tm  Tm7  1  0.000000  0.556334  0.870540  1
  Re  Re8  1  0.000000  0.639163  0.320431  1
  Re  Re9  1  0.000000  0.360837  0.679569  1
  Re  Re10  1  0.000000  0.139163  0.179569  1
  Re  Re11  1  0.000000  0.860837  0.820431  1
  B  B12  1  0.500000  0.553494  0.432880  1
  B  B13  1  0.500000  0.446506  0.567120  1
  B  B14  1  0.500000  0.053494  0.067120  1
  B  B15  1  0.500000  0.946506  0.932880  1
  B  B16  1  0.500000  0.750001  0.418739  1
  B  B17  1  0.500000  0.249999  0.581261  1
  B  B18  1  0.500000  0.250001  0.081261  1
  B  B19  1  0.500000  0.749999  0.918739  1
  B  B20  1  0.500000  0.792976  0.265607  1
  B  B21  1  0.500000  0.207024  0.734393  1
  B  B22  1  0.500000  0.292976  0.234393  1
  B  B23  1  0.500000  0.707024  0.765607  1
  B  B24  1  0.500000  0.630617  0.185229  1
  B  B25  1  0.500000  0.369383  0.814771  1
  B  B26  1  0.500000  0.130617  0.314771  1
  B  B27  1  0.500000  0.869383  0.685229  1
  B  B28  1  0.500000  0.981959  0.212326  1
  B  B29  1  0.500000  0.018041  0.787674  1
  B  B30  1  0.500000  0.481959  0.287674  1
  B  B31  1  0.500000  0.518041  0.712326  1
  B  B32  1  0.500000  0.599353  0.027700  1
  B  B33  1  0.500000  0.400647  0.972300  1
  B  B34  1  0.500000  0.099353  0.472300  1
  B  B35  1  0.500000  0.900647  0.527700  1
