# generated using pymatgen
data_TbDy2In3HgRh2
_symmetry_space_group_name_H-M   'P 1'
_cell_length_a   7.86379215
_cell_length_b   7.86171590
_cell_length_c   3.79973100
_cell_angle_alpha   90.00000000
_cell_angle_beta   90.00000000
_cell_angle_gamma   119.98663218
_symmetry_Int_Tables_number   1
_chemical_formula_structural   TbDy2In3HgRh2
_chemical_formula_sum   'Tb1 Dy2 In3 Hg1 Rh2'
_cell_volume   203.46576246
_cell_formula_units_Z   1
loop_
 _symmetry_equiv_pos_site_id
 _symmetry_equiv_pos_as_xyz
  1  'x, y, z'
loop_
 _atom_site_type_symbol
 _atom_site_label
 _atom_site_symmetry_multiplicity
 _atom_site_fract_x
 _atom_site_fract_y
 _atom_site_fract_z
 _atom_site_occupancy
  Tb  Tb0  1  0.028013  0.611293  0.500000  1
  Dy  Dy1  1  0.583273  0.971699  0.500000  1
  Dy  Dy2  1  0.388508  0.416768  0.500000  1
  In  In3  1  0.003072  0.257617  0.000000  1
  In  In4  1  0.254956  0.997277  0.000000  1
  In  In5  1  0.742049  0.745264  0.000000  1
  Hg  Hg6  1  0.666320  0.333091  0.000000  1
  Rh  Rh7  1  0.999990  0.000188  0.500000  1
  Rh  Rh8  1  0.333819  0.666803  0.000000  1
