# generated using pymatgen
data_Na5TcN4
_symmetry_space_group_name_H-M   'P 1'
_cell_length_a   5.66580500
_cell_length_b   7.28213100
_cell_length_c   7.64506600
_cell_angle_alpha   90.00000000
_cell_angle_beta   90.00000000
_cell_angle_gamma   90.00000000
_symmetry_Int_Tables_number   1
_chemical_formula_structural   Na5TcN4
_chemical_formula_sum   'Na10 Tc2 N8'
_cell_volume   315.42880429
_cell_formula_units_Z   2
loop_
 _symmetry_equiv_pos_site_id
 _symmetry_equiv_pos_as_xyz
  1  'x, y, z'
loop_
 _atom_site_type_symbol
 _atom_site_label
 _atom_site_symmetry_multiplicity
 _atom_site_fract_x
 _atom_site_fract_y
 _atom_site_fract_z
 _atom_site_occupancy
  Na  Na0  1  0.761836  0.236712  0.309947  1
  Na  Na1  1  0.761836  0.236712  0.690053  1
  Na  Na2  1  0.761836  0.763288  0.309947  1
  Na  Na3  1  0.761836  0.763288  0.690053  1
  Na  Na4  1  0.238164  0.263288  0.190053  1
  Na  Na5  1  0.238164  0.263288  0.809947  1
  Na  Na6  1  0.238164  0.736712  0.190053  1
  Na  Na7  1  0.238164  0.736712  0.809947  1
  Na  Na8  1  0.331281  0.500000  0.500000  1
  Na  Na9  1  0.668719  0.000000  0.000000  1
  Tc  Tc10  1  0.284793  0.000000  0.500000  1
  Tc  Tc11  1  0.715207  0.500000  0.000000  1
  N  N12  1  0.103317  0.789949  0.500000  1
  N  N13  1  0.103317  0.210051  0.500000  1
  N  N14  1  0.896683  0.710051  0.000000  1
  N  N15  1  0.896683  0.289949  0.000000  1
  N  N16  1  0.534376  0.500000  0.201017  1
  N  N17  1  0.534376  0.500000  0.798983  1
  N  N18  1  0.465624  0.000000  0.298983  1
  N  N19  1  0.465624  0.000000  0.701017  1
