# generated using pymatgen
data_La5Yb6PrRu4
_symmetry_space_group_name_H-M   'P 1'
_cell_length_a   6.58181486
_cell_length_b   7.48613789
_cell_length_c   9.70045648
_cell_angle_alpha   89.84102611
_cell_angle_beta   89.93548400
_cell_angle_gamma   90.16155133
_symmetry_Int_Tables_number   1
_chemical_formula_structural   La5Yb6PrRu4
_chemical_formula_sum   'La5 Yb6 Pr1 Ru4'
_cell_volume   477.96046887
_cell_formula_units_Z   1
loop_
 _symmetry_equiv_pos_site_id
 _symmetry_equiv_pos_as_xyz
  1  'x, y, z'
loop_
 _atom_site_type_symbol
 _atom_site_label
 _atom_site_symmetry_multiplicity
 _atom_site_fract_x
 _atom_site_fract_y
 _atom_site_fract_z
 _atom_site_occupancy
  La  La0  1  0.165511  0.166361  0.069240  1
  La  La1  1  0.855152  0.557161  0.252484  1
  La  La2  1  0.642614  0.054309  0.252645  1
  La  La3  1  0.130757  0.441990  0.747696  1
  La  La4  1  0.369747  0.941180  0.747758  1
  Yb  Yb5  1  0.162905  0.171570  0.432619  1
  Yb  Yb6  1  0.660638  0.330428  0.572045  1
  Yb  Yb7  1  0.834613  0.825755  0.932337  1
  Yb  Yb8  1  0.665155  0.326780  0.931453  1
  Yb  Yb9  1  0.840304  0.830706  0.572950  1
  Yb  Yb10  1  0.336860  0.670593  0.429412  1
  Pr  Pr11  1  0.335236  0.666586  0.065627  1
  Ru  Ru12  1  0.016279  0.875595  0.243955  1
  Ru  Ru13  1  0.483471  0.367382  0.244083  1
  Ru  Ru14  1  0.990055  0.137021  0.754114  1
  Ru  Ru15  1  0.510703  0.636584  0.751580  1
