# generated using pymatgen
data_Y3TmCd2(Ni7B2)2
_symmetry_space_group_name_H-M   'P 1'
_cell_length_a   5.02272959
_cell_length_b   5.01883190
_cell_length_c   14.23676866
_cell_angle_alpha   89.91890420
_cell_angle_beta   90.05458608
_cell_angle_gamma   120.03016547
_symmetry_Int_Tables_number   1
_chemical_formula_structural   Y3TmCd2(Ni7B2)2
_chemical_formula_sum   'Y3 Tm1 Cd2 Ni14 B4'
_cell_volume   310.70766213
_cell_formula_units_Z   1
loop_
 _symmetry_equiv_pos_site_id
 _symmetry_equiv_pos_as_xyz
  1  'x, y, z'
loop_
 _atom_site_type_symbol
 _atom_site_label
 _atom_site_symmetry_multiplicity
 _atom_site_fract_x
 _atom_site_fract_y
 _atom_site_fract_z
 _atom_site_occupancy
  Y  Y0  1  0.666453  0.332842  0.470461  1
  Y  Y1  1  0.333513  0.666964  0.971519  1
  Y  Y2  1  0.333197  0.666930  0.743590  1
  Tm  Tm3  1  0.666676  0.333307  0.243790  1
  Cd  Cd4  1  0.333448  0.666652  0.531377  1
  Cd  Cd5  1  0.666659  0.333103  0.033181  1
  Ni  Ni6  1  0.000339  0.999880  0.000352  1
  Ni  Ni7  1  0.000131  0.999393  0.499830  1
  Ni  Ni8  1  0.165321  0.329892  0.149226  1
  Ni  Ni9  1  0.834527  0.669999  0.648552  1
  Ni  Ni10  1  0.670078  0.834861  0.149397  1
  Ni  Ni11  1  0.164847  0.834788  0.149273  1
  Ni  Ni12  1  0.834982  0.165343  0.648536  1
  Ni  Ni13  1  0.329915  0.165227  0.648550  1
  Ni  Ni14  1  0.834144  0.668490  0.851771  1
  Ni  Ni15  1  0.834218  0.166186  0.851754  1
  Ni  Ni16  1  0.331953  0.166152  0.851713  1
  Ni  Ni17  1  0.668278  0.834276  0.350590  1
  Ni  Ni18  1  0.165741  0.833974  0.350672  1
  Ni  Ni19  1  0.165563  0.331553  0.350752  1
  B  B20  1  0.333014  0.666134  0.249731  1
  B  B21  1  0.666850  0.333816  0.749859  1
  B  B22  1  0.000360  0.000400  0.252583  1
  B  B23  1  0.999791  0.999841  0.752942  1
