# generated using pymatgen
data_Zr5Fe17(CoP6)2
_symmetry_space_group_name_H-M   'P 1'
_cell_length_a   11.75895352
_cell_length_b   11.78091741
_cell_length_c   3.63021300
_cell_angle_alpha   90.00000000
_cell_angle_beta   90.00000000
_cell_angle_gamma   120.03721144
_symmetry_Int_Tables_number   1
_chemical_formula_structural   Zr5Fe17(CoP6)2
_chemical_formula_sum   'Zr5 Fe17 Co2 P12'
_cell_volume   435.35902966
_cell_formula_units_Z   1
loop_
 _symmetry_equiv_pos_site_id
 _symmetry_equiv_pos_as_xyz
  1  'x, y, z'
loop_
 _atom_site_type_symbol
 _atom_site_label
 _atom_site_symmetry_multiplicity
 _atom_site_fract_x
 _atom_site_fract_y
 _atom_site_fract_z
 _atom_site_occupancy
  Zr  Zr0  1  0.332494  0.665147  0.500000  1
  Zr  Zr1  1  0.667227  0.334621  0.500000  1
  Zr  Zr2  1  0.811519  0.000183  0.000000  1
  Zr  Zr3  1  0.000636  0.811463  0.000000  1
  Zr  Zr4  1  0.188400  0.188570  0.000000  1
  Fe  Fe5  1  0.623068  0.802828  0.500000  1
  Fe  Fe6  1  0.197734  0.820157  0.500000  1
  Fe  Fe7  1  0.179607  0.376165  0.500000  1
  Fe  Fe8  1  0.377199  0.180387  0.500000  1
  Fe  Fe9  1  0.803853  0.623548  0.500000  1
  Fe  Fe10  1  0.817535  0.196145  0.500000  1
  Fe  Fe11  1  0.283273  0.999880  0.000000  1
  Fe  Fe12  1  0.998819  0.281627  0.000000  1
  Fe  Fe13  1  0.717874  0.717928  0.000000  1
  Fe  Fe14  1  0.445149  0.002488  0.500000  1
  Fe  Fe15  1  0.999830  0.442589  0.500000  1
  Fe  Fe16  1  0.557253  0.557205  0.500000  1
  Fe  Fe17  1  0.514464  0.875404  0.000000  1
  Fe  Fe18  1  0.123606  0.638113  0.000000  1
  Fe  Fe19  1  0.361003  0.484722  0.000000  1
  Fe  Fe20  1  0.485330  0.361629  0.000000  1
  Fe  Fe21  1  0.875914  0.514962  0.000000  1
  Co  Co22  1  0.637984  0.124919  0.000000  1
  Co  Co23  1  0.000621  0.000401  0.500000  1
  P  P24  1  0.180668  0.000000  0.500000  1
  P  P25  1  0.999050  0.179989  0.500000  1
  P  P26  1  0.820426  0.820267  0.500000  1
  P  P27  1  0.519398  0.686831  0.000000  1
  P  P28  1  0.312401  0.831588  0.000000  1
  P  P29  1  0.166977  0.479220  0.000000  1
  P  P30  1  0.479546  0.168672  0.000000  1
  P  P31  1  0.687360  0.520408  0.000000  1
  P  P32  1  0.833337  0.313770  0.000000  1
  P  P33  1  0.631599  0.998030  0.500000  1
  P  P34  1  0.000473  0.631410  0.500000  1
  P  P35  1  0.368374  0.368737  0.500000  1
