# generated using pymatgen
data_PrS27
_symmetry_space_group_name_H-M   'P 1'
_cell_length_a   14.55866633
_cell_length_b   14.55866676
_cell_length_c   14.55866742
_cell_angle_alpha   118.82759148
_cell_angle_beta   118.82759572
_cell_angle_gamma   118.82759094
_symmetry_Int_Tables_number   1
_chemical_formula_structural   PrS27
_chemical_formula_sum   'Pr1 S27'
_cell_volume   863.54812444
_cell_formula_units_Z   1
loop_
 _symmetry_equiv_pos_site_id
 _symmetry_equiv_pos_as_xyz
  1  'x, y, z'
loop_
 _atom_site_type_symbol
 _atom_site_label
 _atom_site_symmetry_multiplicity
 _atom_site_fract_x
 _atom_site_fract_y
 _atom_site_fract_z
 _atom_site_occupancy
  Pr  Pr0  1  0.444188  0.444188  0.444188  1
  S  S1  1  0.021149  0.623250  0.623250  1
  S  S2  1  0.623250  0.623250  0.021149  1
  S  S3  1  0.623250  0.021149  0.623250  1
  S  S4  1  0.249096  0.862928  0.729958  1
  S  S5  1  0.862928  0.729958  0.249096  1
  S  S6  1  0.729958  0.249096  0.862928  1
  S  S7  1  0.862928  0.249096  0.729958  1
  S  S8  1  0.249096  0.729958  0.862928  1
  S  S9  1  0.729958  0.862928  0.249096  1
  S  S10  1  0.094438  0.623328  0.436536  1
  S  S11  1  0.623328  0.436536  0.094438  1
  S  S12  1  0.436536  0.094438  0.623328  1
  S  S13  1  0.623328  0.094438  0.436536  1
  S  S14  1  0.094438  0.436536  0.623328  1
  S  S15  1  0.436536  0.623328  0.094438  1
  S  S16  1  0.361206  0.743586  0.609018  1
  S  S17  1  0.743586  0.609018  0.361206  1
  S  S18  1  0.609018  0.361206  0.743586  1
  S  S19  1  0.743586  0.361206  0.609018  1
  S  S20  1  0.361206  0.609018  0.743586  1
  S  S21  1  0.609018  0.743586  0.361206  1
  S  S22  1  0.181585  0.450470  0.450470  1
  S  S23  1  0.450470  0.450470  0.181585  1
  S  S24  1  0.450470  0.181585  0.450470  1
  S  S25  1  0.019262  0.906645  0.906645  1
  S  S26  1  0.906645  0.906645  0.019262  1
  S  S27  1  0.906645  0.019262  0.906645  1
