# generated using pymatgen
data_La4Y6Ga3Sn5
_symmetry_space_group_name_H-M   'P 1'
_cell_length_a   7.94411900
_cell_length_b   8.30050300
_cell_length_c   15.62734400
_cell_angle_alpha   90.00000000
_cell_angle_beta   90.00000000
_cell_angle_gamma   90.00000000
_symmetry_Int_Tables_number   1
_chemical_formula_structural   La4Y6Ga3Sn5
_chemical_formula_sum   'La8 Y12 Ga6 Sn10'
_cell_volume   1030.46993241
_cell_formula_units_Z   2
loop_
 _symmetry_equiv_pos_site_id
 _symmetry_equiv_pos_as_xyz
  1  'x, y, z'
loop_
 _atom_site_type_symbol
 _atom_site_label
 _atom_site_symmetry_multiplicity
 _atom_site_fract_x
 _atom_site_fract_y
 _atom_site_fract_z
 _atom_site_occupancy
  La  La0  1  0.501523  0.319126  0.899538  1
  La  La1  1  0.001523  0.180874  0.600462  1
  La  La2  1  0.498512  0.676123  0.405509  1
  La  La3  1  0.998512  0.823877  0.094491  1
  La  La4  1  0.498512  0.676123  0.094491  1
  La  La5  1  0.998512  0.823877  0.405509  1
  La  La6  1  0.501523  0.319126  0.600462  1
  La  La7  1  0.001523  0.180874  0.899538  1
  Y  Y8  1  0.339233  0.831884  0.868313  1
  Y  Y9  1  0.839233  0.668116  0.631687  1
  Y  Y10  1  0.660887  0.171869  0.372208  1
  Y  Y11  1  0.160887  0.328131  0.127792  1
  Y  Y12  1  0.660887  0.171869  0.127792  1
  Y  Y13  1  0.160887  0.328131  0.372208  1
  Y  Y14  1  0.339233  0.831884  0.631687  1
  Y  Y15  1  0.839233  0.668116  0.868313  1
  Y  Y16  1  0.186004  0.490401  0.750000  1
  Y  Y17  1  0.686004  0.009599  0.750000  1
  Y  Y18  1  0.812157  0.497318  0.250000  1
  Y  Y19  1  0.312157  0.002682  0.250000  1
  Ga  Ga20  1  0.544773  0.613717  0.750000  1
  Ga  Ga21  1  0.044773  0.886283  0.750000  1
  Ga  Ga22  1  0.457587  0.376524  0.250000  1
  Ga  Ga23  1  0.957587  0.123476  0.250000  1
  Ga  Ga24  1  0.295867  0.126625  0.750000  1
  Ga  Ga25  1  0.795867  0.373375  0.750000  1
  Sn  Sn26  1  0.325730  0.039298  0.037588  1
  Sn  Sn27  1  0.825730  0.460702  0.462412  1
  Sn  Sn28  1  0.676658  0.959162  0.539967  1
  Sn  Sn29  1  0.176658  0.540838  0.960033  1
  Sn  Sn30  1  0.676658  0.959162  0.960033  1
  Sn  Sn31  1  0.176658  0.540838  0.539967  1
  Sn  Sn32  1  0.325730  0.039298  0.462412  1
  Sn  Sn33  1  0.825730  0.460702  0.037588  1
  Sn  Sn34  1  0.698524  0.867109  0.250000  1
  Sn  Sn35  1  0.198524  0.632891  0.250000  1
