# generated using pymatgen
data_Sb12IrOs2Ru
_symmetry_space_group_name_H-M   'P 1'
_cell_length_a   8.12249621
_cell_length_b   8.13426241
_cell_length_c   8.18820089
_cell_angle_alpha   109.47090038
_cell_angle_beta   109.61762000
_cell_angle_gamma   109.12878440
_symmetry_Int_Tables_number   1
_chemical_formula_structural   Sb12IrOs2Ru
_chemical_formula_sum   'Sb12 Ir1 Os2 Ru1'
_cell_volume   417.46112153
_cell_formula_units_Z   1
loop_
 _symmetry_equiv_pos_site_id
 _symmetry_equiv_pos_as_xyz
  1  'x, y, z'
loop_
 _atom_site_type_symbol
 _atom_site_label
 _atom_site_symmetry_multiplicity
 _atom_site_fract_x
 _atom_site_fract_y
 _atom_site_fract_z
 _atom_site_occupancy
  Sb  Sb0  1  0.846477  0.661036  0.504409  1
  Sb  Sb1  1  0.845015  0.335053  0.179550  1
  Sb  Sb2  1  0.154985  0.664947  0.820450  1
  Sb  Sb3  1  0.334947  0.488487  0.153631  1
  Sb  Sb4  1  0.153523  0.338964  0.495591  1
  Sb  Sb5  1  0.667714  0.820980  0.155818  1
  Sb  Sb6  1  0.181134  0.844210  0.336042  1
  Sb  Sb7  1  0.665053  0.511513  0.846369  1
  Sb  Sb8  1  0.818866  0.155790  0.663958  1
  Sb  Sb9  1  0.332286  0.179020  0.844182  1
  Sb  Sb10  1  0.507799  0.847000  0.664720  1
  Sb  Sb11  1  0.492201  0.153000  0.335280  1
  Ir  Ir12  1  0.500000  0.500000  0.500000  1
  Os  Os13  1  0.000000  0.500000  0.000000  1
  Os  Os14  1  0.500000  0.000000  0.000000  1
  Ru  Ru15  1  0.000000  0.000000  0.500000  1
