# generated using pymatgen
data_Pr3Ag(Ir2O7)2
_symmetry_space_group_name_H-M   'P 1'
_cell_length_a   7.48618441
_cell_length_b   7.48618453
_cell_length_c   7.28186782
_cell_angle_alpha   59.06741390
_cell_angle_beta   59.06741569
_cell_angle_gamma   59.99999664
_symmetry_Int_Tables_number   1
_chemical_formula_structural   Pr3Ag(Ir2O7)2
_chemical_formula_sum   'Pr3 Ag1 Ir4 O14'
_cell_volume   284.43364728
_cell_formula_units_Z   1
loop_
 _symmetry_equiv_pos_site_id
 _symmetry_equiv_pos_as_xyz
  1  'x, y, z'
loop_
 _atom_site_type_symbol
 _atom_site_label
 _atom_site_symmetry_multiplicity
 _atom_site_fract_x
 _atom_site_fract_y
 _atom_site_fract_z
 _atom_site_occupancy
  Pr  Pr0  1  0.125000  0.125000  0.125000  1
  Pr  Pr1  1  0.625000  0.125000  0.125000  1
  Pr  Pr2  1  0.125000  0.625000  0.125000  1
  Ag  Ag3  1  0.125000  0.125000  0.625000  1
  Ir  Ir4  1  0.625000  0.625000  0.625000  1
  Ir  Ir5  1  0.125000  0.625000  0.625000  1
  Ir  Ir6  1  0.625000  0.125000  0.625000  1
  Ir  Ir7  1  0.625000  0.625000  0.125000  1
  O  O8  1  0.945703  0.558214  0.550379  1
  O  O9  1  0.304297  0.304297  0.699621  1
  O  O10  1  0.954850  0.542468  0.960214  1
  O  O11  1  0.707532  0.295150  0.289786  1
  O  O12  1  0.542468  0.542468  0.960214  1
  O  O13  1  0.558214  0.945703  0.550379  1
  O  O14  1  0.542468  0.954850  0.960214  1
  O  O15  1  0.245927  0.245927  0.262218  1
  O  O16  1  0.304297  0.691786  0.699621  1
  O  O17  1  0.691786  0.304297  0.699621  1
  O  O18  1  0.004073  0.004073  0.987782  1
  O  O19  1  0.945703  0.945703  0.550379  1
  O  O20  1  0.295150  0.707532  0.289786  1
  O  O21  1  0.707532  0.707532  0.289786  1
