# generated using pymatgen
data_DyY7(LuSb)12
_symmetry_space_group_name_H-M   'P 1'
_cell_length_a   8.04314906
_cell_length_b   9.11321100
_cell_length_c   11.67616400
_cell_angle_alpha   90.00000000
_cell_angle_beta   90.02939177
_cell_angle_gamma   90.00000000
_symmetry_Int_Tables_number   1
_chemical_formula_structural   DyY7(LuSb)12
_chemical_formula_sum   'Dy1 Y7 Lu12 Sb12'
_cell_volume   855.85003379
_cell_formula_units_Z   1
loop_
 _symmetry_equiv_pos_site_id
 _symmetry_equiv_pos_as_xyz
  1  'x, y, z'
loop_
 _atom_site_type_symbol
 _atom_site_label
 _atom_site_symmetry_multiplicity
 _atom_site_fract_x
 _atom_site_fract_y
 _atom_site_fract_z
 _atom_site_occupancy
  Dy  Dy0  1  0.175887  0.750000  0.229110  1
  Y  Y1  1  0.675364  0.250000  0.270967  1
  Y  Y2  1  0.824291  0.250000  0.770804  1
  Y  Y3  1  0.324180  0.750000  0.729357  1
  Y  Y4  1  0.658739  0.750000  0.290808  1
  Y  Y5  1  0.158131  0.250000  0.209409  1
  Y  Y6  1  0.341811  0.250000  0.709454  1
  Y  Y7  1  0.841712  0.750000  0.790396  1
  Lu  Lu8  1  0.809879  0.938819  0.065856  1
  Lu  Lu9  1  0.309654  0.061136  0.434177  1
  Lu  Lu10  1  0.190350  0.438882  0.934097  1
  Lu  Lu11  1  0.690214  0.561015  0.565857  1
  Lu  Lu12  1  0.190350  0.061118  0.934097  1
  Lu  Lu13  1  0.690214  0.938985  0.565857  1
  Lu  Lu14  1  0.809879  0.561181  0.065856  1
  Lu  Lu15  1  0.309654  0.438864  0.434177  1
  Lu  Lu16  1  0.524665  0.250000  0.995515  1
  Lu  Lu17  1  0.024525  0.750000  0.504238  1
  Lu  Lu18  1  0.475502  0.750000  0.004488  1
  Lu  Lu19  1  0.975334  0.250000  0.495700  1
  Sb  Sb20  1  0.937482  0.991231  0.327348  1
  Sb  Sb21  1  0.437315  0.008521  0.172613  1
  Sb  Sb22  1  0.062540  0.491310  0.672624  1
  Sb  Sb23  1  0.562579  0.508682  0.827349  1
  Sb  Sb24  1  0.062540  0.008690  0.672624  1
  Sb  Sb25  1  0.562579  0.991318  0.827349  1
  Sb  Sb26  1  0.937482  0.508769  0.327348  1
  Sb  Sb27  1  0.437315  0.491479  0.172613  1
  Sb  Sb28  1  0.901371  0.250000  0.025078  1
  Sb  Sb29  1  0.401190  0.750000  0.474779  1
  Sb  Sb30  1  0.098757  0.750000  0.974805  1
  Sb  Sb31  1  0.598515  0.250000  0.525251  1
