# generated using pymatgen
data_La4NdGeSe4
_symmetry_space_group_name_H-M   'P 1'
_cell_length_a   7.50459501
_cell_length_b   7.50459597
_cell_length_c   7.50459600
_cell_angle_alpha   99.43743895
_cell_angle_beta   99.43744018
_cell_angle_gamma   132.22615287
_symmetry_Int_Tables_number   1
_chemical_formula_structural   La4NdGeSe4
_chemical_formula_sum   'La4 Nd1 Ge1 Se4'
_cell_volume   286.16500638
_cell_formula_units_Z   1
loop_
 _symmetry_equiv_pos_site_id
 _symmetry_equiv_pos_as_xyz
  1  'x, y, z'
loop_
 _atom_site_type_symbol
 _atom_site_label
 _atom_site_symmetry_multiplicity
 _atom_site_fract_x
 _atom_site_fract_y
 _atom_site_fract_z
 _atom_site_occupancy
  La  La0  1  0.402181  0.794141  0.196309  1
  La  La1  1  0.597819  0.205859  0.803691  1
  La  La2  1  0.205888  0.402214  0.608096  1
  La  La3  1  0.794112  0.597786  0.391904  1
  Nd  Nd4  1  0.000000  0.000000  0.000000  1
  Ge  Ge5  1  0.500000  0.500000  0.000000  1
  Se  Se6  1  0.098539  0.700178  0.798625  1
  Se  Se7  1  0.700143  0.901635  0.601808  1
  Se  Se8  1  0.299857  0.098365  0.398192  1
  Se  Se9  1  0.901461  0.299822  0.201375  1
