# generated using pymatgen
data_Rb12Na8Ti4As11P
_symmetry_space_group_name_H-M   'P 1'
_cell_length_a   10.86259717
_cell_length_b   10.86259750
_cell_length_c   15.78847006
_cell_angle_alpha   90.00331512
_cell_angle_beta   90.00331515
_cell_angle_gamma   142.73408216
_symmetry_Int_Tables_number   1
_chemical_formula_structural   Rb12Na8Ti4As11P
_chemical_formula_sum   'Rb12 Na8 Ti4 As11 P1'
_cell_volume   1128.06048684
_cell_formula_units_Z   1
loop_
 _symmetry_equiv_pos_site_id
 _symmetry_equiv_pos_as_xyz
  1  'x, y, z'
loop_
 _atom_site_type_symbol
 _atom_site_label
 _atom_site_symmetry_multiplicity
 _atom_site_fract_x
 _atom_site_fract_y
 _atom_site_fract_z
 _atom_site_occupancy
  Rb  Rb0  1  0.942724  0.606454  0.824900  1
  Rb  Rb1  1  0.557399  0.893388  0.325325  1
  Rb  Rb2  1  0.393627  0.057233  0.174967  1
  Rb  Rb3  1  0.057233  0.393627  0.174967  1
  Rb  Rb4  1  0.893388  0.557399  0.325325  1
  Rb  Rb5  1  0.442123  0.106325  0.674296  1
  Rb  Rb6  1  0.606454  0.942724  0.824900  1
  Rb  Rb7  1  0.271778  0.271778  0.317021  1
  Rb  Rb8  1  0.774096  0.774096  0.184470  1
  Rb  Rb9  1  0.226031  0.226031  0.816504  1
  Rb  Rb10  1  0.726202  0.726202  0.683256  1
  Rb  Rb11  1  0.106325  0.442123  0.674296  1
  Na  Na12  1  0.920492  0.079553  0.000006  1
  Na  Na13  1  0.580497  0.422567  0.499470  1
  Na  Na14  1  0.079553  0.920492  0.000006  1
  Na  Na15  1  0.422567  0.580497  0.499470  1
  Na  Na16  1  0.754904  0.245175  0.000008  1
  Na  Na17  1  0.745258  0.254754  0.499968  1
  Na  Na18  1  0.245175  0.754904  0.000008  1
  Na  Na19  1  0.254754  0.745258  0.499968  1
  Ti  Ti20  1  0.584473  0.415608  0.000052  1
  Ti  Ti21  1  0.914303  0.080317  0.498705  1
  Ti  Ti22  1  0.415608  0.584473  0.000052  1
  Ti  Ti23  1  0.080317  0.914303  0.498705  1
  As  As24  1  0.861683  0.554709  0.094311  1
  As  As25  1  0.445575  0.138399  0.905882  1
  As  As26  1  0.638806  0.944585  0.593394  1
  As  As27  1  0.944585  0.638806  0.593394  1
  As  As28  1  0.138399  0.445575  0.905882  1
  As  As29  1  0.554709  0.861683  0.094311  1
  As  As30  1  0.359828  0.054156  0.405292  1
  As  As31  1  0.191749  0.191749  0.584304  1
  As  As32  1  0.691638  0.691638  0.915234  1
  As  As33  1  0.308447  0.308447  0.085062  1
  As  As34  1  0.054156  0.359828  0.405292  1
  P  P35  1  0.815145  0.815145  0.420999  1
