# generated using pymatgen
data_Tb3DyFe4(WO6)4
_symmetry_space_group_name_H-M   'P 1'
_cell_length_a   5.24840210
_cell_length_b   7.45029213
_cell_length_c   11.10320333
_cell_angle_alpha   89.98059937
_cell_angle_beta   90.02023839
_cell_angle_gamma   89.99028340
_symmetry_Int_Tables_number   1
_chemical_formula_structural   Tb3DyFe4(WO6)4
_chemical_formula_sum   'Tb3 Dy1 Fe4 W4 O24'
_cell_volume   434.15882951
_cell_formula_units_Z   1
loop_
 _symmetry_equiv_pos_site_id
 _symmetry_equiv_pos_as_xyz
  1  'x, y, z'
loop_
 _atom_site_type_symbol
 _atom_site_label
 _atom_site_symmetry_multiplicity
 _atom_site_fract_x
 _atom_site_fract_y
 _atom_site_fract_z
 _atom_site_occupancy
  Tb  Tb0  1  0.454757  0.753291  0.454744  1
  Tb  Tb1  1  0.545280  0.253256  0.545183  1
  Tb  Tb2  1  0.044860  0.753278  0.954868  1
  Dy  Dy3  1  0.954051  0.253316  0.045276  1
  Fe  Fe4  1  0.455591  0.507909  0.139180  1
  Fe  Fe5  1  0.955770  0.008242  0.360521  1
  Fe  Fe6  1  0.044059  0.508154  0.639323  1
  Fe  Fe7  1  0.544048  0.008684  0.861008  1
  W  W8  1  0.447645  0.997959  0.142216  1
  W  W9  1  0.947877  0.497375  0.357398  1
  W  W10  1  0.052146  0.997408  0.642400  1
  W  W11  1  0.552083  0.497311  0.857908  1
  O  O12  1  0.742712  0.542520  0.020443  1
  O  O13  1  0.736450  0.959437  0.029025  1
  O  O14  1  0.324779  0.755816  0.117319  1
  O  O15  1  0.565268  0.246005  0.143635  1
  O  O16  1  0.125285  0.070856  0.206934  1
  O  O17  1  0.108702  0.437018  0.212113  1
  O  O18  1  0.608929  0.937629  0.287442  1
  O  O19  1  0.625378  0.569994  0.292576  1
  O  O20  1  0.063308  0.745946  0.356010  1
  O  O21  1  0.824396  0.255553  0.382469  1
  O  O22  1  0.236425  0.458961  0.470765  1
  O  O23  1  0.242184  0.043061  0.479691  1
  O  O24  1  0.757838  0.543044  0.520145  1
  O  O25  1  0.763636  0.958954  0.529072  1
  O  O26  1  0.175813  0.755470  0.617570  1
  O  O27  1  0.936753  0.245930  0.643716  1
  O  O28  1  0.374534  0.069964  0.707452  1
  O  O29  1  0.390826  0.437146  0.712759  1
  O  O30  1  0.890530  0.937317  0.787442  1
  O  O31  1  0.874108  0.570023  0.792653  1
  O  O32  1  0.436705  0.745815  0.856850  1
  O  O33  1  0.677243  0.255584  0.883043  1
  O  O34  1  0.263108  0.458014  0.971042  1
  O  O35  1  0.256931  0.044172  0.979810  1
