# generated using pymatgen
data_Nd6Sm2Sc11Si16W
_symmetry_space_group_name_H-M   'P 1'
_cell_length_a   7.21370317
_cell_length_b   7.45294950
_cell_length_c   14.08862482
_cell_angle_alpha   90.12655330
_cell_angle_beta   89.70959940
_cell_angle_gamma   89.67418089
_symmetry_Int_Tables_number   1
_chemical_formula_structural   Nd6Sm2Sc11Si16W
_chemical_formula_sum   'Nd6 Sm2 Sc11 Si16 W1'
_cell_volume   757.42801224
_cell_formula_units_Z   1
loop_
 _symmetry_equiv_pos_site_id
 _symmetry_equiv_pos_as_xyz
  1  'x, y, z'
loop_
 _atom_site_type_symbol
 _atom_site_label
 _atom_site_symmetry_multiplicity
 _atom_site_fract_x
 _atom_site_fract_y
 _atom_site_fract_z
 _atom_site_occupancy
  Nd  Nd0  1  0.011744  0.171439  0.097565  1
  Nd  Nd1  1  0.989413  0.828181  0.898004  1
  Nd  Nd2  1  0.486841  0.673929  0.898145  1
  Nd  Nd3  1  0.992724  0.831039  0.595625  1
  Nd  Nd4  1  0.513574  0.326632  0.097067  1
  Nd  Nd5  1  0.011508  0.173345  0.403721  1
  Sm  Sm6  1  0.507253  0.326618  0.409087  1
  Sm  Sm7  1  0.487518  0.674234  0.597485  1
  Sc  Sc8  1  0.163284  0.490115  0.744112  1
  Sc  Sc9  1  0.838358  0.499995  0.252515  1
  Sc  Sc10  1  0.338462  0.000305  0.252045  1
  Sc  Sc11  1  0.656948  0.003775  0.747178  1
  Sc  Sc12  1  0.664773  0.825999  0.378993  1
  Sc  Sc13  1  0.168979  0.675806  0.378309  1
  Sc  Sc14  1  0.669360  0.824297  0.125065  1
  Sc  Sc15  1  0.832174  0.325630  0.623540  1
  Sc  Sc16  1  0.332602  0.176981  0.874843  1
  Sc  Sc17  1  0.828993  0.323684  0.870425  1
  Sc  Sc18  1  0.170471  0.675945  0.126137  1
  Si  Si19  1  0.044475  0.126286  0.744175  1
  Si  Si20  1  0.963182  0.877330  0.252118  1
  Si  Si21  1  0.466122  0.624139  0.251790  1
  Si  Si22  1  0.529779  0.368200  0.744475  1
  Si  Si23  1  0.289851  0.890222  0.745396  1
  Si  Si24  1  0.709363  0.119905  0.251678  1
  Si  Si25  1  0.214367  0.380229  0.251611  1
  Si  Si26  1  0.785720  0.618235  0.746025  1
  Si  Si27  1  0.174861  0.448990  0.542899  1
  Si  Si28  1  0.843711  0.533939  0.459681  1
  Si  Si29  1  0.339607  0.969205  0.471087  1
  Si  Si30  1  0.849032  0.537209  0.038831  1
  Si  Si31  1  0.640749  0.038420  0.546169  1
  Si  Si32  1  0.149142  0.464739  0.958633  1
  Si  Si33  1  0.655943  0.037416  0.957977  1
  Si  Si34  1  0.346667  0.961637  0.039042  1
  W  W35  1  0.332452  0.175951  0.628553  1
