# generated using pymatgen
data_LiAu(SO4)2
_symmetry_space_group_name_H-M   'P 1'
_cell_length_a   8.62694100
_cell_length_b   4.85082574
_cell_length_c   8.87180516
_cell_angle_alpha   61.75205823
_cell_angle_beta   90.00000000
_cell_angle_gamma   90.00000000
_symmetry_Int_Tables_number   1
_chemical_formula_structural   LiAu(SO4)2
_chemical_formula_sum   'Li2 Au2 S4 O16'
_cell_volume   327.05057963
_cell_formula_units_Z   2
loop_
 _symmetry_equiv_pos_site_id
 _symmetry_equiv_pos_as_xyz
  1  'x, y, z'
loop_
 _atom_site_type_symbol
 _atom_site_label
 _atom_site_symmetry_multiplicity
 _atom_site_fract_x
 _atom_site_fract_y
 _atom_site_fract_z
 _atom_site_occupancy
  Li  Li0  1  0.000000  0.000000  0.500000  1
  Li  Li1  1  0.500000  0.000000  0.000000  1
  Au  Au2  1  0.000000  0.000000  0.000000  1
  Au  Au3  1  0.500000  0.000000  0.500000  1
  S  S4  1  0.201861  0.620671  0.870445  1
  S  S5  1  0.298139  0.620671  0.370445  1
  S  S6  1  0.798139  0.379329  0.129555  1
  S  S7  1  0.701861  0.379329  0.629555  1
  O  O8  1  0.366603  0.635885  0.527527  1
  O  O9  1  0.633397  0.364115  0.472473  1
  O  O10  1  0.133397  0.635885  0.027527  1
  O  O11  1  0.200197  0.264068  0.930780  1
  O  O12  1  0.700197  0.735932  0.569220  1
  O  O13  1  0.604913  0.209002  0.778908  1
  O  O14  1  0.799803  0.735932  0.069220  1
  O  O15  1  0.866603  0.364115  0.972473  1
  O  O16  1  0.364591  0.705743  0.854339  1
  O  O17  1  0.395087  0.790998  0.221092  1
  O  O18  1  0.895087  0.209002  0.278908  1
  O  O19  1  0.135409  0.705743  0.354339  1
  O  O20  1  0.299803  0.264068  0.430780  1
  O  O21  1  0.635409  0.294257  0.145661  1
  O  O22  1  0.104913  0.790998  0.721092  1
  O  O23  1  0.864591  0.294257  0.645661  1
