# generated using pymatgen
data_CeIn(ReH9)2
_symmetry_space_group_name_H-M   'P 1'
_cell_length_a   4.94455000
_cell_length_b   4.94455008
_cell_length_c   9.66199000
_cell_angle_alpha   90.00000000
_cell_angle_beta   90.00000000
_cell_angle_gamma   119.99999948
_symmetry_Int_Tables_number   1
_chemical_formula_structural   CeIn(ReH9)2
_chemical_formula_sum   'Ce1 In1 Re2 H18'
_cell_volume   204.57415701
_cell_formula_units_Z   1
loop_
 _symmetry_equiv_pos_site_id
 _symmetry_equiv_pos_as_xyz
  1  'x, y, z'
loop_
 _atom_site_type_symbol
 _atom_site_label
 _atom_site_symmetry_multiplicity
 _atom_site_fract_x
 _atom_site_fract_y
 _atom_site_fract_z
 _atom_site_occupancy
  Ce  Ce0  1  0.000000  0.000000  0.500000  1
  In  In1  1  0.000000  0.000000  0.000000  1
  Re  Re2  1  0.333333  0.666667  0.279021  1
  Re  Re3  1  0.666667  0.333333  0.720979  1
  H  H4  1  0.483072  0.516928  0.400327  1
  H  H5  1  0.483072  0.966144  0.400327  1
  H  H6  1  0.033856  0.516928  0.400327  1
  H  H7  1  0.935978  0.467989  0.848433  1
  H  H8  1  0.137684  0.275369  0.266352  1
  H  H9  1  0.862316  0.137684  0.733648  1
  H  H10  1  0.275369  0.137684  0.733648  1
  H  H11  1  0.724631  0.862316  0.266352  1
  H  H12  1  0.137684  0.862316  0.266352  1
  H  H13  1  0.862316  0.724631  0.733648  1
  H  H14  1  0.467989  0.935978  0.151567  1
  H  H15  1  0.516928  0.483072  0.599673  1
  H  H16  1  0.966144  0.483072  0.599673  1
  H  H17  1  0.064022  0.532011  0.151567  1
  H  H18  1  0.467989  0.532011  0.151567  1
  H  H19  1  0.532011  0.064022  0.848433  1
  H  H20  1  0.532011  0.467989  0.848433  1
  H  H21  1  0.516928  0.033856  0.599673  1
