# generated using pymatgen
data_Ho6Er2Sc12Ga7Si9
_symmetry_space_group_name_H-M   'P 1'
_cell_length_a   7.14962081
_cell_length_b   7.40139631
_cell_length_c   14.23194907
_cell_angle_alpha   89.97948035
_cell_angle_beta   89.94152298
_cell_angle_gamma   90.04097485
_symmetry_Int_Tables_number   1
_chemical_formula_structural   Ho6Er2Sc12Ga7Si9
_chemical_formula_sum   'Ho6 Er2 Sc12 Ga7 Si9'
_cell_volume   753.11393537
_cell_formula_units_Z   1
loop_
 _symmetry_equiv_pos_site_id
 _symmetry_equiv_pos_as_xyz
  1  'x, y, z'
loop_
 _atom_site_type_symbol
 _atom_site_label
 _atom_site_symmetry_multiplicity
 _atom_site_fract_x
 _atom_site_fract_y
 _atom_site_fract_z
 _atom_site_occupancy
  Ho  Ho0  1  0.012473  0.174021  0.098723  1
  Ho  Ho1  1  0.989769  0.823533  0.901468  1
  Ho  Ho2  1  0.488355  0.676533  0.901622  1
  Ho  Ho3  1  0.989421  0.823769  0.599557  1
  Ho  Ho4  1  0.510399  0.322770  0.098826  1
  Ho  Ho5  1  0.010338  0.175833  0.400415  1
  Er  Er6  1  0.510652  0.323570  0.400296  1
  Er  Er7  1  0.489421  0.676212  0.599506  1
  Sc  Sc8  1  0.163866  0.503006  0.749916  1
  Sc  Sc9  1  0.836856  0.497870  0.249900  1
  Sc  Sc10  1  0.336156  0.002852  0.248994  1
  Sc  Sc11  1  0.663303  0.997422  0.749685  1
  Sc  Sc12  1  0.330267  0.173806  0.625824  1
  Sc  Sc13  1  0.669411  0.826482  0.373997  1
  Sc  Sc14  1  0.169763  0.673982  0.373819  1
  Sc  Sc15  1  0.668171  0.825107  0.126172  1
  Sc  Sc16  1  0.829807  0.326290  0.626088  1
  Sc  Sc17  1  0.329616  0.174278  0.874911  1
  Sc  Sc18  1  0.829123  0.326235  0.874317  1
  Sc  Sc19  1  0.172031  0.675925  0.125103  1
  Ga  Ga20  1  0.161214  0.463901  0.539702  1
  Ga  Ga21  1  0.838818  0.536052  0.460205  1
  Ga  Ga22  1  0.338802  0.963539  0.460375  1
  Ga  Ga23  1  0.839040  0.537498  0.040160  1
  Ga  Ga24  1  0.661137  0.036316  0.539516  1
  Ga  Ga25  1  0.160441  0.463000  0.960584  1
  Ga  Ga26  1  0.659660  0.037022  0.960931  1
  Si  Si27  1  0.032047  0.113296  0.750743  1
  Si  Si28  1  0.967579  0.885880  0.249589  1
  Si  Si29  1  0.467332  0.613058  0.249589  1
  Si  Si30  1  0.532228  0.386403  0.750148  1
  Si  Si31  1  0.284432  0.873921  0.750469  1
  Si  Si32  1  0.715917  0.126325  0.249336  1
  Si  Si33  1  0.215477  0.373307  0.249668  1
  Si  Si34  1  0.784092  0.626514  0.750340  1
  Si  Si35  1  0.342588  0.964469  0.039502  1
