# generated using pymatgen
data_GdY3Pd4F28
_symmetry_space_group_name_H-M   'P 1'
_cell_length_a   5.55127066
_cell_length_b   8.93740854
_cell_length_c   12.03543600
_cell_angle_alpha   62.30668483
_cell_angle_beta   89.89876961
_cell_angle_gamma   89.96476298
_symmetry_Int_Tables_number   1
_chemical_formula_structural   GdY3Pd4F28
_chemical_formula_sum   'Gd1 Y3 Pd4 F28'
_cell_volume   528.72292489
_cell_formula_units_Z   1
loop_
 _symmetry_equiv_pos_site_id
 _symmetry_equiv_pos_as_xyz
  1  'x, y, z'
loop_
 _atom_site_type_symbol
 _atom_site_label
 _atom_site_symmetry_multiplicity
 _atom_site_fract_x
 _atom_site_fract_y
 _atom_site_fract_z
 _atom_site_occupancy
  Gd  Gd0  1  0.262257  0.813864  0.263981  1
  Y  Y1  1  0.737100  0.186072  0.736293  1
  Y  Y2  1  0.763472  0.187805  0.236211  1
  Y  Y3  1  0.237369  0.814144  0.763800  1
  Pd  Pd4  1  0.758430  0.726391  0.041576  1
  Pd  Pd5  1  0.239913  0.274253  0.956263  1
  Pd  Pd6  1  0.259437  0.271520  0.457704  1
  Pd  Pd7  1  0.740838  0.726583  0.544506  1
  F  F8  1  0.931529  0.705123  0.416934  1
  F  F9  1  0.066877  0.294892  0.583965  1
  F  F10  1  0.432447  0.296367  0.082792  1
  F  F11  1  0.568040  0.704158  0.914518  1
  F  F12  1  0.465522  0.726278  0.130882  1
  F  F13  1  0.531327  0.273616  0.865745  1
  F  F14  1  0.967374  0.272699  0.367316  1
  F  F15  1  0.032960  0.726855  0.634149  1
  F  F16  1  0.944137  0.742460  0.173675  1
  F  F17  1  0.051470  0.257112  0.825094  1
  F  F18  1  0.448492  0.255191  0.326155  1
  F  F19  1  0.553835  0.742867  0.676352  1
  F  F20  1  0.771075  0.480029  0.139524  1
  F  F21  1  0.227435  0.520371  0.858556  1
  F  F22  1  0.272368  0.517405  0.360220  1
  F  F23  1  0.729389  0.480056  0.641782  1
  F  F24  1  0.942419  0.280879  0.041028  1
  F  F25  1  0.057793  0.719711  0.958119  1
  F  F26  1  0.443579  0.719063  0.460871  1
  F  F27  1  0.556836  0.279032  0.541851  1
  F  F28  1  0.742221  0.971801  0.451831  1
  F  F29  1  0.257206  0.026177  0.549491  1
  F  F30  1  0.242191  0.029107  0.048235  1
  F  F31  1  0.756259  0.971775  0.950476  1
  F  F32  1  0.592893  0.971470  0.231077  1
  F  F33  1  0.412390  0.029926  0.768352  1
  F  F34  1  0.090199  0.034426  0.268831  1
  F  F35  1  0.912920  0.970523  0.731842  1
