# generated using pymatgen
data_Dy3Zn3Hg2Ru
_symmetry_space_group_name_H-M   'P 1'
_cell_length_a   7.73445000
_cell_length_b   7.73445034
_cell_length_c   3.76124000
_cell_angle_alpha   90.00000000
_cell_angle_beta   90.00000000
_cell_angle_gamma   120.00001451
_symmetry_Int_Tables_number   1
_chemical_formula_structural   Dy3Zn3Hg2Ru
_chemical_formula_sum   'Dy3 Zn3 Hg2 Ru1'
_cell_volume   194.85901638
_cell_formula_units_Z   1
loop_
 _symmetry_equiv_pos_site_id
 _symmetry_equiv_pos_as_xyz
  1  'x, y, z'
loop_
 _atom_site_type_symbol
 _atom_site_label
 _atom_site_symmetry_multiplicity
 _atom_site_fract_x
 _atom_site_fract_y
 _atom_site_fract_z
 _atom_site_occupancy
  Dy  Dy0  1  0.580838  0.968726  0.000000  1
  Dy  Dy1  1  0.031274  0.612112  0.000000  1
  Dy  Dy2  1  0.387888  0.419162  0.000000  1
  Zn  Zn3  1  0.271423  0.985458  0.500000  1
  Zn  Zn4  1  0.014542  0.285965  0.500000  1
  Zn  Zn5  1  0.714035  0.728577  0.500000  1
  Hg  Hg6  1  0.666667  0.333333  0.500000  1
  Hg  Hg7  1  0.000000  0.000000  0.000000  1
  Ru  Ru8  1  0.333333  0.666667  0.500000  1
