# generated using pymatgen
data_Zr2Np6CdSb9
_symmetry_space_group_name_H-M   'P 1'
_cell_length_a   9.27951000
_cell_length_b   9.27950916
_cell_length_c   6.22022300
_cell_angle_alpha   90.00000000
_cell_angle_beta   90.00000000
_cell_angle_gamma   119.99999587
_symmetry_Int_Tables_number   1
_chemical_formula_structural   Zr2Np6CdSb9
_chemical_formula_sum   'Zr2 Np6 Cd1 Sb9'
_cell_volume   463.85971132
_cell_formula_units_Z   1
loop_
 _symmetry_equiv_pos_site_id
 _symmetry_equiv_pos_as_xyz
  1  'x, y, z'
loop_
 _atom_site_type_symbol
 _atom_site_label
 _atom_site_symmetry_multiplicity
 _atom_site_fract_x
 _atom_site_fract_y
 _atom_site_fract_z
 _atom_site_occupancy
  Zr  Zr0  1  0.000000  0.000000  0.000000  1
  Zr  Zr1  1  0.000000  0.000000  0.500000  1
  Np  Np2  1  0.622338  0.010371  0.261852  1
  Np  Np3  1  0.388032  0.010371  0.738148  1
  Np  Np4  1  0.989629  0.611968  0.261852  1
  Np  Np5  1  0.989629  0.377662  0.738148  1
  Np  Np6  1  0.388032  0.377662  0.261852  1
  Np  Np7  1  0.622338  0.611968  0.738148  1
  Cd  Cd8  1  0.333333  0.666667  0.000000  1
  Sb  Sb9  1  0.269236  0.990348  0.241692  1
  Sb  Sb10  1  0.721112  0.990348  0.758308  1
  Sb  Sb11  1  0.009652  0.278888  0.241692  1
  Sb  Sb12  1  0.009652  0.730764  0.758308  1
  Sb  Sb13  1  0.721112  0.730764  0.241692  1
  Sb  Sb14  1  0.269236  0.278888  0.758308  1
  Sb  Sb15  1  0.666667  0.333333  0.000000  1
  Sb  Sb16  1  0.666667  0.333333  0.500000  1
  Sb  Sb17  1  0.333333  0.666667  0.500000  1
