# generated using pymatgen
data_Zr2Sc(TcP)3
_symmetry_space_group_name_H-M   'P 1'
_cell_length_a   6.79391057
_cell_length_b   6.76355573
_cell_length_c   3.50850000
_cell_angle_alpha   90.00000000
_cell_angle_beta   90.00000000
_cell_angle_gamma   119.85230700
_symmetry_Int_Tables_number   1
_chemical_formula_structural   Zr2Sc(TcP)3
_chemical_formula_sum   'Zr2 Sc1 Tc3 P3'
_cell_volume   139.82712530
_cell_formula_units_Z   1
loop_
 _symmetry_equiv_pos_site_id
 _symmetry_equiv_pos_as_xyz
  1  'x, y, z'
loop_
 _atom_site_type_symbol
 _atom_site_label
 _atom_site_symmetry_multiplicity
 _atom_site_fract_x
 _atom_site_fract_y
 _atom_site_fract_z
 _atom_site_occupancy
  Zr  Zr0  1  0.406583  0.404889  0.500000  1
  Zr  Zr1  1  0.593417  0.998306  0.500000  1
  Sc  Sc2  1  0.000000  0.594959  0.500000  1
  Tc  Tc3  1  0.000000  0.246356  0.000000  1
  Tc  Tc4  1  0.246792  0.000312  0.000000  1
  Tc  Tc5  1  0.753208  0.753519  0.000000  1
  P  P6  1  0.670990  0.336754  0.000000  1
  P  P7  1  0.329010  0.665766  0.000000  1
  P  P8  1  0.000000  0.999139  0.500000  1
