# generated using pymatgen
data_Tl2Pt3Pb
_symmetry_space_group_name_H-M   'P 1'
_cell_length_a   7.49304040
_cell_length_b   7.49304136
_cell_length_c   5.58886900
_cell_angle_alpha   90.00000000
_cell_angle_beta   90.00000000
_cell_angle_gamma   60.25645447
_symmetry_Int_Tables_number   1
_chemical_formula_structural   Tl2Pt3Pb
_chemical_formula_sum   'Tl4 Pt6 Pb2'
_cell_volume   272.45029420
_cell_formula_units_Z   2
loop_
 _symmetry_equiv_pos_site_id
 _symmetry_equiv_pos_as_xyz
  1  'x, y, z'
loop_
 _atom_site_type_symbol
 _atom_site_label
 _atom_site_symmetry_multiplicity
 _atom_site_fract_x
 _atom_site_fract_y
 _atom_site_fract_z
 _atom_site_occupancy
  Tl  Tl0  1  0.499800  0.165484  0.250000  1
  Tl  Tl1  1  0.834516  0.500199  0.250000  1
  Tl  Tl2  1  0.165484  0.499800  0.750000  1
  Tl  Tl3  1  0.500199  0.834516  0.750000  1
  Pt  Pt4  1  0.164811  0.164811  0.000000  1
  Pt  Pt5  1  0.500000  0.500000  0.000000  1
  Pt  Pt6  1  0.835189  0.835189  0.000000  1
  Pt  Pt7  1  0.164811  0.164811  0.500000  1
  Pt  Pt8  1  0.500000  0.500000  0.500000  1
  Pt  Pt9  1  0.835189  0.835189  0.500000  1
  Pb  Pb10  1  0.168435  0.831565  0.250000  1
  Pb  Pb11  1  0.831565  0.168435  0.750000  1
