# generated using pymatgen
data_Pr3Tl4Cd
_symmetry_space_group_name_H-M   'P 1'
_cell_length_a   6.65362886
_cell_length_b   6.65362912
_cell_length_c   10.98236600
_cell_angle_alpha   90.00000000
_cell_angle_beta   90.00000000
_cell_angle_gamma   104.39076807
_symmetry_Int_Tables_number   1
_chemical_formula_structural   Pr3Tl4Cd
_chemical_formula_sum   'Pr6 Tl8 Cd2'
_cell_volume   470.94257043
_cell_formula_units_Z   2
loop_
 _symmetry_equiv_pos_site_id
 _symmetry_equiv_pos_as_xyz
  1  'x, y, z'
loop_
 _atom_site_type_symbol
 _atom_site_label
 _atom_site_symmetry_multiplicity
 _atom_site_fract_x
 _atom_site_fract_y
 _atom_site_fract_z
 _atom_site_occupancy
  Pr  Pr0  1  0.614872  0.614872  0.250000  1
  Pr  Pr1  1  0.385128  0.385128  0.750000  1
  Pr  Pr2  1  0.204555  0.795445  0.500000  1
  Pr  Pr3  1  0.204555  0.795445  0.000000  1
  Pr  Pr4  1  0.795445  0.204555  0.500000  1
  Pr  Pr5  1  0.795445  0.204555  0.000000  1
  Tl  Tl6  1  0.303295  0.303295  0.038067  1
  Tl  Tl7  1  0.696705  0.696705  0.961933  1
  Tl  Tl8  1  0.303295  0.303295  0.461933  1
  Tl  Tl9  1  0.696705  0.696705  0.538067  1
  Tl  Tl10  1  0.513380  0.072298  0.250000  1
  Tl  Tl11  1  0.927702  0.486620  0.750000  1
  Tl  Tl12  1  0.486620  0.927702  0.750000  1
  Tl  Tl13  1  0.072298  0.513380  0.250000  1
  Cd  Cd14  1  0.017294  0.017294  0.250000  1
  Cd  Cd15  1  0.982706  0.982706  0.750000  1
