# generated using pymatgen
data_Ca8Cu5(Si2Ir)3
_symmetry_space_group_name_H-M   'P 1'
_cell_length_a   10.52934355
_cell_length_b   10.50453035
_cell_length_c   7.79135165
_cell_angle_alpha   72.79017969
_cell_angle_beta   72.72282516
_cell_angle_gamma   31.50427486
_symmetry_Int_Tables_number   1
_chemical_formula_structural   Ca8Cu5(Si2Ir)3
_chemical_formula_sum   'Ca8 Cu5 Si6 Ir3'
_cell_volume   428.43466500
_cell_formula_units_Z   1
loop_
 _symmetry_equiv_pos_site_id
 _symmetry_equiv_pos_as_xyz
  1  'x, y, z'
loop_
 _atom_site_type_symbol
 _atom_site_label
 _atom_site_symmetry_multiplicity
 _atom_site_fract_x
 _atom_site_fract_y
 _atom_site_fract_z
 _atom_site_occupancy
  Ca  Ca0  1  0.943860  0.191468  0.321301  1
  Ca  Ca1  1  0.063331  0.798110  0.669761  1
  Ca  Ca2  1  0.798497  0.063329  0.169609  1
  Ca  Ca3  1  0.449746  0.209243  0.899903  1
  Ca  Ca4  1  0.792839  0.547680  0.603316  1
  Ca  Ca5  1  0.209790  0.452612  0.398939  1
  Ca  Ca6  1  0.197843  0.938631  0.835239  1
  Ca  Ca7  1  0.548488  0.794634  0.096120  1
  Cu  Cu8  1  0.426861  0.696928  0.472513  1
  Cu  Cu9  1  0.650015  0.901579  0.305749  1
  Cu  Cu10  1  0.904974  0.650371  0.799461  1
  Cu  Cu11  1  0.349677  0.097030  0.696392  1
  Cu  Cu12  1  0.092776  0.350796  0.201004  1
  Si  Si13  1  0.310923  0.032999  0.445130  1
  Si  Si14  1  0.409084  0.588025  0.245261  1
  Si  Si15  1  0.033016  0.314090  0.941826  1
  Si  Si16  1  0.685020  0.972623  0.556785  1
  Si  Si17  1  0.963923  0.687259  0.059196  1
  Si  Si18  1  0.596590  0.399567  0.759631  1
  Ir  Ir19  1  0.579592  0.307091  0.527231  1
  Ir  Ir20  1  0.699337  0.426365  0.972826  1
  Ir  Ir21  1  0.293818  0.579570  0.022807  1
