# generated using pymatgen
data_Dy6Lu4InSb5
_symmetry_space_group_name_H-M   'P 1'
_cell_length_a   6.32365600
_cell_length_b   8.88657991
_cell_length_c   8.90272639
_cell_angle_alpha   119.75902170
_cell_angle_beta   90.00057878
_cell_angle_gamma   89.99897072
_symmetry_Int_Tables_number   1
_chemical_formula_structural   Dy6Lu4InSb5
_chemical_formula_sum   'Dy6 Lu4 In1 Sb5'
_cell_volume   434.31618174
_cell_formula_units_Z   1
loop_
 _symmetry_equiv_pos_site_id
 _symmetry_equiv_pos_as_xyz
  1  'x, y, z'
loop_
 _atom_site_type_symbol
 _atom_site_label
 _atom_site_symmetry_multiplicity
 _atom_site_fract_x
 _atom_site_fract_y
 _atom_site_fract_z
 _atom_site_occupancy
  Dy  Dy0  1  0.750029  0.242426  0.999255  1
  Dy  Dy1  1  0.750036  0.751561  0.756179  1
  Dy  Dy2  1  0.750018  0.995275  0.241358  1
  Dy  Dy3  1  0.249996  0.758098  0.000706  1
  Dy  Dy4  1  0.250021  0.247257  0.244690  1
  Dy  Dy5  1  0.250042  0.002935  0.756412  1
  Lu  Lu6  1  0.499309  0.334911  0.669448  1
  Lu  Lu7  1  0.499678  0.667057  0.331152  1
  Lu  Lu8  1  0.000362  0.667039  0.331076  1
  Lu  Lu9  1  0.000689  0.334947  0.669466  1
  In  In10  1  0.749814  0.603245  0.000539  1
  Sb  Sb11  1  0.750016  0.389204  0.390128  1
  Sb  Sb12  1  0.750019  0.999309  0.607788  1
  Sb  Sb13  1  0.249979  0.394760  0.000493  1
  Sb  Sb14  1  0.249997  0.609791  0.608921  1
  Sb  Sb15  1  0.249998  0.002183  0.392388  1
