# generated using pymatgen
data_Pr2Si3(PPd7)3
_symmetry_space_group_name_H-M   'P 1'
_cell_length_a   8.70725969
_cell_length_b   8.70725933
_cell_length_c   8.69464858
_cell_angle_alpha   59.95200683
_cell_angle_beta   59.95200470
_cell_angle_gamma   59.99999344
_symmetry_Int_Tables_number   1
_chemical_formula_structural   Pr2Si3(PPd7)3
_chemical_formula_sum   'Pr2 Si3 P3 Pd21'
_cell_volume   465.78399099
_cell_formula_units_Z   1
loop_
 _symmetry_equiv_pos_site_id
 _symmetry_equiv_pos_as_xyz
  1  'x, y, z'
loop_
 _atom_site_type_symbol
 _atom_site_label
 _atom_site_symmetry_multiplicity
 _atom_site_fract_x
 _atom_site_fract_y
 _atom_site_fract_z
 _atom_site_occupancy
  Pr  Pr0  1  0.749348  0.749348  0.751957  1
  Pr  Pr1  1  0.249498  0.249498  0.251507  1
  Si  Si2  1  0.260150  0.260150  0.741894  1
  Si  Si3  1  0.737805  0.260150  0.741894  1
  Si  Si4  1  0.260150  0.737805  0.741894  1
  P  P5  1  0.736761  0.736761  0.265596  1
  P  P6  1  0.260883  0.736761  0.265596  1
  P  P7  1  0.736761  0.260883  0.265596  1
  Pd  Pd8  1  0.003788  0.003788  0.988635  1
  Pd  Pd9  1  0.612286  0.612286  0.163143  1
  Pd  Pd10  1  0.614172  0.157650  0.614006  1
  Pd  Pd11  1  0.157650  0.614172  0.614006  1
  Pd  Pd12  1  0.614172  0.614172  0.614006  1
  Pd  Pd13  1  0.385382  0.385382  0.843853  1
  Pd  Pd14  1  0.386508  0.840074  0.386909  1
  Pd  Pd15  1  0.840074  0.386508  0.386909  1
  Pd  Pd16  1  0.386508  0.386508  0.386909  1
  Pd  Pd17  1  0.001748  0.001748  0.339118  1
  Pd  Pd18  1  0.657387  0.001748  0.339118  1
  Pd  Pd19  1  0.001748  0.657387  0.339118  1
  Pd  Pd20  1  0.657029  0.346565  0.001238  1
  Pd  Pd21  1  0.995168  0.346565  0.001238  1
  Pd  Pd22  1  0.001590  0.346517  0.650302  1
  Pd  Pd23  1  0.346565  0.657029  0.001238  1
  Pd  Pd24  1  0.346517  0.001590  0.650302  1
  Pd  Pd25  1  0.346565  0.995168  0.001238  1
  Pd  Pd26  1  0.001590  0.001590  0.650302  1
  Pd  Pd27  1  0.995168  0.657029  0.001238  1
  Pd  Pd28  1  0.657029  0.995168  0.001238  1
