# generated using pymatgen
data_Ce3Er9MnRu3
_symmetry_space_group_name_H-M   'P 1'
_cell_length_a   6.34105800
_cell_length_b   7.07207214
_cell_length_c   9.50145300
_cell_angle_alpha   90.00000000
_cell_angle_beta   90.00000000
_cell_angle_gamma   91.44473412
_symmetry_Int_Tables_number   1
_chemical_formula_structural   Ce3Er9MnRu3
_chemical_formula_sum   'Ce3 Er9 Mn1 Ru3'
_cell_volume   425.95169655
_cell_formula_units_Z   1
loop_
 _symmetry_equiv_pos_site_id
 _symmetry_equiv_pos_as_xyz
  1  'x, y, z'
loop_
 _atom_site_type_symbol
 _atom_site_label
 _atom_site_symmetry_multiplicity
 _atom_site_fract_x
 _atom_site_fract_y
 _atom_site_fract_z
 _atom_site_occupancy
  Ce  Ce0  1  0.132613  0.423635  0.750000  1
  Ce  Ce1  1  0.347242  0.951031  0.750000  1
  Ce  Ce2  1  0.849313  0.558031  0.250000  1
  Er  Er3  1  0.670535  0.323509  0.937166  1
  Er  Er4  1  0.635230  0.036526  0.250000  1
  Er  Er5  1  0.171339  0.174272  0.431701  1
  Er  Er6  1  0.829071  0.828868  0.568055  1
  Er  Er7  1  0.171339  0.174272  0.068299  1
  Er  Er8  1  0.829071  0.828868  0.931945  1
  Er  Er9  1  0.670535  0.323509  0.562834  1
  Er  Er10  1  0.328084  0.673354  0.062644  1
  Er  Er11  1  0.328084  0.673354  0.437356  1
  Mn  Mn12  1  0.004944  0.142335  0.750000  1
  Ru  Ru13  1  0.514362  0.635557  0.750000  1
  Ru  Ru14  1  0.033736  0.862294  0.250000  1
  Ru  Ru15  1  0.484503  0.390590  0.250000  1
