# generated using pymatgen
data_Tb2Mn2Fe5(P2Ir)3
_symmetry_space_group_name_H-M   'P 1'
_cell_length_a   3.74284900
_cell_length_b   10.44005700
_cell_length_c   12.28842300
_cell_angle_alpha   90.00000000
_cell_angle_beta   90.00000000
_cell_angle_gamma   90.00000000
_symmetry_Int_Tables_number   1
_chemical_formula_structural   Tb2Mn2Fe5(P2Ir)3
_chemical_formula_sum   'Tb4 Mn4 Fe10 P12 Ir6'
_cell_volume   480.17697218
_cell_formula_units_Z   2
loop_
 _symmetry_equiv_pos_site_id
 _symmetry_equiv_pos_as_xyz
  1  'x, y, z'
loop_
 _atom_site_type_symbol
 _atom_site_label
 _atom_site_symmetry_multiplicity
 _atom_site_fract_x
 _atom_site_fract_y
 _atom_site_fract_z
 _atom_site_occupancy
  Tb  Tb0  1  0.250000  0.583188  0.713655  1
  Tb  Tb1  1  0.250000  0.916812  0.213655  1
  Tb  Tb2  1  0.750000  0.423053  0.287943  1
  Tb  Tb3  1  0.750000  0.076947  0.787943  1
  Mn  Mn4  1  0.250000  0.700646  0.989805  1
  Mn  Mn5  1  0.250000  0.799354  0.489805  1
  Mn  Mn6  1  0.750000  0.299503  0.010063  1
  Mn  Mn7  1  0.750000  0.200497  0.510063  1
  Fe  Fe8  1  0.750000  0.777613  0.828591  1
  Fe  Fe9  1  0.750000  0.722387  0.328591  1
  Fe  Fe10  1  0.250000  0.875025  0.694936  1
  Fe  Fe11  1  0.250000  0.624975  0.194936  1
  Fe  Fe12  1  0.750000  0.120175  0.306087  1
  Fe  Fe13  1  0.750000  0.379825  0.806087  1
  Fe  Fe14  1  0.250000  0.463078  0.936172  1
  Fe  Fe15  1  0.250000  0.036922  0.436172  1
  Fe  Fe16  1  0.750000  0.540116  0.062746  1
  Fe  Fe17  1  0.750000  0.959884  0.562746  1
  P  P18  1  0.250000  0.436261  0.110647  1
  P  P19  1  0.250000  0.063739  0.610647  1
  P  P20  1  0.750000  0.574583  0.887664  1
  P  P21  1  0.750000  0.925417  0.387664  1
  P  P22  1  0.250000  0.274662  0.863584  1
  P  P23  1  0.250000  0.225338  0.363584  1
  P  P24  1  0.750000  0.725494  0.144176  1
  P  P25  1  0.750000  0.774506  0.644176  1
  P  P26  1  0.250000  0.609510  0.376629  1
  P  P27  1  0.250000  0.890490  0.876629  1
  P  P28  1  0.750000  0.403526  0.619218  1
  P  P29  1  0.750000  0.096474  0.119218  1
  Ir  Ir30  1  0.250000  0.406073  0.476085  1
  Ir  Ir31  1  0.250000  0.093927  0.976085  1
  Ir  Ir32  1  0.750000  0.601249  0.519966  1
  Ir  Ir33  1  0.750000  0.898751  0.019966  1
  Ir  Ir34  1  0.250000  0.225097  0.172030  1
  Ir  Ir35  1  0.250000  0.274903  0.672030  1
