# generated using pymatgen
data_Dy16MgCd3(NiOs)2
_symmetry_space_group_name_H-M   'P 1'
_cell_length_a   9.61127470
_cell_length_b   9.61127429
_cell_length_c   9.68483805
_cell_angle_alpha   59.45756805
_cell_angle_beta   59.45757154
_cell_angle_gamma   59.25392594
_symmetry_Int_Tables_number   1
_chemical_formula_structural   Dy16MgCd3(NiOs)2
_chemical_formula_sum   'Dy16 Mg1 Cd3 Ni2 Os2'
_cell_volume   623.82280048
_cell_formula_units_Z   1
loop_
 _symmetry_equiv_pos_site_id
 _symmetry_equiv_pos_as_xyz
  1  'x, y, z'
loop_
 _atom_site_type_symbol
 _atom_site_label
 _atom_site_symmetry_multiplicity
 _atom_site_fract_x
 _atom_site_fract_y
 _atom_site_fract_z
 _atom_site_occupancy
  Dy  Dy0  1  0.600527  0.600527  0.593638  1
  Dy  Dy1  1  0.600547  0.600547  0.208806  1
  Dy  Dy2  1  0.600653  0.208036  0.595687  1
  Dy  Dy3  1  0.208036  0.600653  0.595687  1
  Dy  Dy4  1  0.060450  0.437309  0.439948  1
  Dy  Dy5  1  0.434650  0.061917  0.062953  1
  Dy  Dy6  1  0.437309  0.060450  0.439948  1
  Dy  Dy7  1  0.061917  0.434650  0.062953  1
  Dy  Dy8  1  0.438967  0.438967  0.060424  1
  Dy  Dy9  1  0.060687  0.060687  0.439396  1
  Dy  Dy10  1  0.189640  0.806168  0.817401  1
  Dy  Dy11  1  0.805837  0.189429  0.188845  1
  Dy  Dy12  1  0.806168  0.189640  0.817401  1
  Dy  Dy13  1  0.189429  0.805837  0.188845  1
  Dy  Dy14  1  0.817028  0.817028  0.186057  1
  Dy  Dy15  1  0.191218  0.191218  0.809435  1
  Mg  Mg16  1  0.823949  0.823949  0.827183  1
  Cd  Cd17  1  0.829378  0.829378  0.506408  1
  Cd  Cd18  1  0.830649  0.504761  0.830849  1
  Cd  Cd19  1  0.504761  0.830649  0.830849  1
  Ni  Ni20  1  0.391983  0.827140  0.392138  1
  Ni  Ni21  1  0.827140  0.391983  0.392138  1
  Os  Os22  1  0.394114  0.394114  0.388235  1
  Os  Os23  1  0.394962  0.394962  0.824781  1
