# generated using pymatgen
data_CaYbDyGa8Ag3
_symmetry_space_group_name_H-M   'P 1'
_cell_length_a   4.37497307
_cell_length_b   8.37313267
_cell_length_c   8.37313246
_cell_angle_alpha   70.95713311
_cell_angle_beta   74.85572351
_cell_angle_gamma   74.85571813
_symmetry_Int_Tables_number   1
_chemical_formula_structural   CaYbDyGa8Ag3
_chemical_formula_sum   'Ca1 Yb1 Dy1 Ga8 Ag3'
_cell_volume   274.61504436
_cell_formula_units_Z   1
loop_
 _symmetry_equiv_pos_site_id
 _symmetry_equiv_pos_as_xyz
  1  'x, y, z'
loop_
 _atom_site_type_symbol
 _atom_site_label
 _atom_site_symmetry_multiplicity
 _atom_site_fract_x
 _atom_site_fract_y
 _atom_site_fract_z
 _atom_site_occupancy
  Ca  Ca0  1  0.500664  0.499336  0.499336  1
  Yb  Yb1  1  0.800793  0.199207  0.199207  1
  Dy  Dy2  1  0.202656  0.797344  0.797344  1
  Ga  Ga3  1  0.641678  0.077382  0.639262  1
  Ga  Ga4  1  0.355526  0.924609  0.364338  1
  Ga  Ga5  1  0.641678  0.639262  0.077382  1
  Ga  Ga6  1  0.355526  0.364338  0.924609  1
  Ga  Ga7  1  0.839554  0.791849  0.529043  1
  Ga  Ga8  1  0.162192  0.204602  0.471013  1
  Ga  Ga9  1  0.839554  0.529043  0.791849  1
  Ga  Ga10  1  0.162192  0.471013  0.204602  1
  Ag  Ag11  1  0.499548  0.000452  0.000452  1
  Ag  Ag12  1  0.999220  0.807520  0.194040  1
  Ag  Ag13  1  0.999220  0.194040  0.807520  1
