# generated using pymatgen
data_Sc4Ga2HgRu
_symmetry_space_group_name_H-M   'P 1'
_cell_length_a   6.81001400
_cell_length_b   6.61732500
_cell_length_c   6.80968400
_cell_angle_alpha   90.00033255
_cell_angle_beta   89.99729080
_cell_angle_gamma   90.00069227
_symmetry_Int_Tables_number   1
_chemical_formula_structural   Sc4Ga2HgRu
_chemical_formula_sum   'Sc8 Ga4 Hg2 Ru2'
_cell_volume   306.87211640
_cell_formula_units_Z   2
loop_
 _symmetry_equiv_pos_site_id
 _symmetry_equiv_pos_as_xyz
  1  'x, y, z'
loop_
 _atom_site_type_symbol
 _atom_site_label
 _atom_site_symmetry_multiplicity
 _atom_site_fract_x
 _atom_site_fract_y
 _atom_site_fract_z
 _atom_site_occupancy
  Sc  Sc0  1  0.765749  0.500067  0.265741  1
  Sc  Sc1  1  0.765759  0.999952  0.265754  1
  Sc  Sc2  1  0.234169  0.499934  0.265832  1
  Sc  Sc3  1  0.234150  0.000052  0.265842  1
  Sc  Sc4  1  0.765830  0.500065  0.734168  1
  Sc  Sc5  1  0.765849  0.999948  0.734158  1
  Sc  Sc6  1  0.234252  0.499932  0.734258  1
  Sc  Sc7  1  0.234241  0.000048  0.734245  1
  Ga  Ga8  1  0.999911  0.249989  0.000002  1
  Ga  Ga9  1  0.000089  0.750011  0.999998  1
  Ga  Ga10  1  0.499890  0.750014  0.499999  1
  Ga  Ga11  1  0.500111  0.249986  0.500001  1
  Hg  Hg12  1  0.500080  0.249989  0.999998  1
  Hg  Hg13  1  0.499920  0.750011  0.000002  1
  Ru  Ru14  1  0.999938  0.249998  0.499999  1
  Ru  Ru15  1  0.000062  0.750002  0.500000  1
