# generated using pymatgen
data_LaSmP7Ru12
_symmetry_space_group_name_H-M   'P 1'
_cell_length_a   9.48766700
_cell_length_b   9.48766569
_cell_length_c   3.98111100
_cell_angle_alpha   90.00000000
_cell_angle_beta   90.00000000
_cell_angle_gamma   120.00000014
_symmetry_Int_Tables_number   1
_chemical_formula_structural   LaSmP7Ru12
_chemical_formula_sum   'La1 Sm1 P7 Ru12'
_cell_volume   310.35141117
_cell_formula_units_Z   1
loop_
 _symmetry_equiv_pos_site_id
 _symmetry_equiv_pos_as_xyz
  1  'x, y, z'
loop_
 _atom_site_type_symbol
 _atom_site_label
 _atom_site_symmetry_multiplicity
 _atom_site_fract_x
 _atom_site_fract_y
 _atom_site_fract_z
 _atom_site_occupancy
  La  La0  1  0.333333  0.666667  0.000000  1
  Sm  Sm1  1  0.666667  0.333333  0.500000  1
  P  P2  1  0.607058  0.718177  0.500000  1
  P  P3  1  0.000000  0.000000  0.000000  1
  P  P4  1  0.281823  0.888882  0.500000  1
  P  P5  1  0.111118  0.392942  0.500000  1
  P  P6  1  0.889443  0.573210  0.000000  1
  P  P7  1  0.426790  0.316232  0.000000  1
  P  P8  1  0.683768  0.110557  0.000000  1
  Ru  Ru9  1  0.559566  0.954360  0.500000  1
  Ru  Ru10  1  0.394795  0.440434  0.500000  1
  Ru  Ru11  1  0.914679  0.118759  0.500000  1
  Ru  Ru12  1  0.204081  0.085321  0.500000  1
  Ru  Ru13  1  0.881241  0.795919  0.500000  1
  Ru  Ru14  1  0.729660  0.893077  0.000000  1
  Ru  Ru15  1  0.106923  0.836582  0.000000  1
  Ru  Ru16  1  0.163418  0.270340  0.000000  1
  Ru  Ru17  1  0.420167  0.068106  0.000000  1
  Ru  Ru18  1  0.931894  0.352063  0.000000  1
  Ru  Ru19  1  0.647937  0.579833  0.000000  1
  Ru  Ru20  1  0.045640  0.605205  0.500000  1
