# generated using pymatgen
data_Zr3Sc5(NbGa5)4
_symmetry_space_group_name_H-M   'P 1'
_cell_length_a   5.67912041
_cell_length_b   9.09343812
_cell_length_c   10.84531104
_cell_angle_alpha   89.94421494
_cell_angle_beta   89.95730285
_cell_angle_gamma   89.98975706
_symmetry_Int_Tables_number   1
_chemical_formula_structural   Zr3Sc5(NbGa5)4
_chemical_formula_sum   'Zr3 Sc5 Nb4 Ga20'
_cell_volume   560.08104038
_cell_formula_units_Z   1
loop_
 _symmetry_equiv_pos_site_id
 _symmetry_equiv_pos_as_xyz
  1  'x, y, z'
loop_
 _atom_site_type_symbol
 _atom_site_label
 _atom_site_symmetry_multiplicity
 _atom_site_fract_x
 _atom_site_fract_y
 _atom_site_fract_z
 _atom_site_occupancy
  Zr  Zr0  1  0.883361  0.505669  0.354346  1
  Zr  Zr1  1  0.617823  0.994072  0.854127  1
  Zr  Zr2  1  0.116450  0.006018  0.645963  1
  Sc  Sc3  1  0.384515  0.494433  0.144869  1
  Sc  Sc4  1  0.114232  0.493396  0.645878  1
  Sc  Sc5  1  0.383855  0.005996  0.145531  1
  Sc  Sc6  1  0.885043  0.993281  0.354821  1
  Sc  Sc7  1  0.615226  0.506966  0.855159  1
  Nb  Nb8  1  0.858963  0.750404  0.066679  1
  Nb  Nb9  1  0.640215  0.749959  0.567461  1
  Nb  Nb10  1  0.140300  0.249939  0.932710  1
  Nb  Nb11  1  0.359844  0.249990  0.432926  1
  Ga  Ga12  1  0.875482  0.050672  0.092638  1
  Ga  Ga13  1  0.623293  0.449607  0.592404  1
  Ga  Ga14  1  0.124141  0.550511  0.908249  1
  Ga  Ga15  1  0.375777  0.949859  0.407233  1
  Ga  Ga16  1  0.123151  0.949395  0.908972  1
  Ga  Ga17  1  0.377263  0.550084  0.407525  1
  Ga  Ga18  1  0.877163  0.449500  0.091789  1
  Ga  Ga19  1  0.622132  0.050369  0.591230  1
  Ga  Ga20  1  0.155083  0.750687  0.251081  1
  Ga  Ga21  1  0.344963  0.748798  0.752442  1
  Ga  Ga22  1  0.846036  0.251322  0.747976  1
  Ga  Ga23  1  0.653772  0.249116  0.247798  1
  Ga  Ga24  1  0.396215  0.749791  0.004678  1
  Ga  Ga25  1  0.103202  0.749030  0.503618  1
  Ga  Ga26  1  0.602508  0.250875  0.996474  1
  Ga  Ga27  1  0.897170  0.249116  0.496917  1
  Ga  Ga28  1  0.620703  0.750825  0.285843  1
  Ga  Ga29  1  0.879315  0.748762  0.785544  1
  Ga  Ga30  1  0.378929  0.250823  0.714126  1
  Ga  Ga31  1  0.123876  0.250737  0.212992  1
