# generated using pymatgen
data_Pr4Zn10SnPb
_symmetry_space_group_name_H-M   'P 1'
_cell_length_a   8.66541648
_cell_length_b   8.66541716
_cell_length_c   9.15270400
_cell_angle_alpha   90.00000000
_cell_angle_beta   90.00000000
_cell_angle_gamma   149.67116927
_symmetry_Int_Tables_number   1
_chemical_formula_structural   Pr4Zn10SnPb
_chemical_formula_sum   'Pr4 Zn10 Sn1 Pb1'
_cell_volume   347.04599852
_cell_formula_units_Z   1
loop_
 _symmetry_equiv_pos_site_id
 _symmetry_equiv_pos_as_xyz
  1  'x, y, z'
loop_
 _atom_site_type_symbol
 _atom_site_label
 _atom_site_symmetry_multiplicity
 _atom_site_fract_x
 _atom_site_fract_y
 _atom_site_fract_z
 _atom_site_occupancy
  Pr  Pr0  1  0.206212  0.793788  0.250000  1
  Pr  Pr1  1  0.794670  0.205330  0.750000  1
  Pr  Pr2  1  0.999719  0.000281  0.503214  1
  Pr  Pr3  1  0.999719  0.000281  0.996786  1
  Zn  Zn4  1  0.814242  0.185758  0.391574  1
  Zn  Zn5  1  0.185789  0.814211  0.608881  1
  Zn  Zn6  1  0.814242  0.185758  0.108426  1
  Zn  Zn7  1  0.185789  0.814211  0.891119  1
  Zn  Zn8  1  0.658057  0.341943  0.486850  1
  Zn  Zn9  1  0.343678  0.656322  0.516223  1
  Zn  Zn10  1  0.658057  0.341943  0.013150  1
  Zn  Zn11  1  0.343678  0.656322  0.983777  1
  Zn  Zn12  1  0.393099  0.606901  0.250000  1
  Zn  Zn13  1  0.603965  0.396035  0.750000  1
  Sn  Sn14  1  0.444027  0.555973  0.750000  1
  Pb  Pb15  1  0.555057  0.444943  0.250000  1
