# generated using pymatgen
data_Lu3Zr(Ta3B10)2
_symmetry_space_group_name_H-M   'P 1'
_cell_length_a   6.22653927
_cell_length_b   7.10132803
_cell_length_c   7.54536600
_cell_angle_alpha   94.52815074
_cell_angle_beta   101.95501447
_cell_angle_gamma   115.94816133
_symmetry_Int_Tables_number   1
_chemical_formula_structural   Lu3Zr(Ta3B10)2
_chemical_formula_sum   'Lu3 Zr1 Ta6 B20'
_cell_volume   287.98580714
_cell_formula_units_Z   1
loop_
 _symmetry_equiv_pos_site_id
 _symmetry_equiv_pos_as_xyz
  1  'x, y, z'
loop_
 _atom_site_type_symbol
 _atom_site_label
 _atom_site_symmetry_multiplicity
 _atom_site_fract_x
 _atom_site_fract_y
 _atom_site_fract_z
 _atom_site_occupancy
  Lu  Lu0  1  0.499696  0.799316  0.399883  1
  Lu  Lu1  1  0.001168  0.402513  0.200105  1
  Lu  Lu2  1  0.498501  0.197283  0.600079  1
  Zr  Zr3  1  0.000961  0.001910  0.999787  1
  Ta  Ta4  1  0.499451  0.000444  0.998581  1
  Ta  Ta5  1  0.997709  0.798645  0.397792  1
  Ta  Ta6  1  0.499541  0.597511  0.799477  1
  Ta  Ta7  1  0.503172  0.403738  0.200487  1
  Ta  Ta8  1  0.000230  0.197765  0.601942  1
  Ta  Ta9  1  0.999660  0.600729  0.801559  1
  B  B10  1  0.334041  0.234395  0.867348  1
  B  B11  1  0.334227  0.634705  0.062250  1
  B  B12  1  0.168641  0.368689  0.931146  1
  B  B13  1  0.333657  0.034490  0.264400  1
  B  B14  1  0.166695  0.768692  0.129409  1
  B  B15  1  0.835033  0.234464  0.865564  1
  B  B16  1  0.166027  0.166574  0.333426  1
  B  B17  1  0.831126  0.633660  0.064144  1
  B  B18  1  0.332611  0.431990  0.470378  1
  B  B19  1  0.665672  0.368785  0.932753  1
  B  B20  1  0.834348  0.033523  0.266721  1
  B  B21  1  0.666372  0.767665  0.130528  1
  B  B22  1  0.330623  0.829751  0.670092  1
  B  B23  1  0.165396  0.565257  0.537493  1
  B  B24  1  0.666210  0.167786  0.331492  1
  B  B25  1  0.834330  0.433882  0.469156  1
  B  B26  1  0.165006  0.964363  0.733597  1
  B  B27  1  0.834395  0.830349  0.668459  1
  B  B28  1  0.669725  0.566656  0.535951  1
  B  B29  1  0.665776  0.964466  0.736000  1
