# generated using pymatgen
data_Tb5C2O3
_symmetry_space_group_name_H-M   'P 1'
_cell_length_a   5.96184173
_cell_length_b   5.95684580
_cell_length_c   7.64132300
_cell_angle_alpha   129.46338833
_cell_angle_beta   129.50529750
_cell_angle_gamma   48.56534711
_symmetry_Int_Tables_number   1
_chemical_formula_structural   Tb5C2O3
_chemical_formula_sum   'Tb5 C2 O3'
_cell_volume   145.77294640
_cell_formula_units_Z   1
loop_
 _symmetry_equiv_pos_site_id
 _symmetry_equiv_pos_as_xyz
  1  'x, y, z'
loop_
 _atom_site_type_symbol
 _atom_site_label
 _atom_site_symmetry_multiplicity
 _atom_site_fract_x
 _atom_site_fract_y
 _atom_site_fract_z
 _atom_site_occupancy
  Tb  Tb0  1  0.328364  0.974725  0.145786  1
  Tb  Tb1  1  0.720661  0.367152  0.340195  1
  Tb  Tb2  1  0.921762  0.568059  0.938768  1
  Tb  Tb3  1  0.127336  0.773780  0.547229  1
  Tb  Tb4  1  0.524568  0.170873  0.742980  1
  C  C5  1  0.427697  0.074002  0.947804  1
  C  C6  1  0.621351  0.267757  0.538124  1
  O  O7  1  0.024589  0.670929  0.743011  1
  O  O8  1  0.229824  0.876406  0.349393  1
  O  O9  1  0.819205  0.465447  0.136595  1
