# generated using pymatgen
data_La7PrSi12Ni3Pd
_symmetry_space_group_name_H-M   'P 1'
_cell_length_a   8.18000500
_cell_length_b   8.18000550
_cell_length_c   8.69958600
_cell_angle_alpha   90.00000000
_cell_angle_beta   90.00000000
_cell_angle_gamma   119.99999393
_symmetry_Int_Tables_number   1
_chemical_formula_structural   La7PrSi12Ni3Pd
_chemical_formula_sum   'La7 Pr1 Si12 Ni3 Pd1'
_cell_volume   504.12288016
_cell_formula_units_Z   1
loop_
 _symmetry_equiv_pos_site_id
 _symmetry_equiv_pos_as_xyz
  1  'x, y, z'
loop_
 _atom_site_type_symbol
 _atom_site_label
 _atom_site_symmetry_multiplicity
 _atom_site_fract_x
 _atom_site_fract_y
 _atom_site_fract_z
 _atom_site_occupancy
  La  La0  1  0.498994  0.501006  0.751193  1
  La  La1  1  0.498995  0.501005  0.248800  1
  La  La2  1  0.002012  0.501006  0.751193  1
  La  La3  1  0.002012  0.501005  0.248800  1
  La  La4  1  0.498994  0.997988  0.751193  1
  La  La5  1  0.498995  0.997988  0.248800  1
  La  La6  1  0.000000  0.000000  0.751309  1
  Pr  Pr7  1  0.000000  0.000000  0.249013  1
  Si  Si8  1  0.829695  0.170305  0.999881  1
  Si  Si9  1  0.169768  0.830232  0.000952  1
  Si  Si10  1  0.340609  0.170305  0.999881  1
  Si  Si11  1  0.170440  0.829560  0.499296  1
  Si  Si12  1  0.660465  0.830232  0.000952  1
  Si  Si13  1  0.836361  0.163639  0.499731  1
  Si  Si14  1  0.829695  0.659391  0.999881  1
  Si  Si15  1  0.659120  0.829560  0.499296  1
  Si  Si16  1  0.169768  0.339535  0.000952  1
  Si  Si17  1  0.327277  0.163639  0.499731  1
  Si  Si18  1  0.170440  0.340880  0.499296  1
  Si  Si19  1  0.836361  0.672723  0.499731  1
  Ni  Ni20  1  0.666667  0.333333  0.001291  1
  Ni  Ni21  1  0.333333  0.666667  0.000449  1
  Ni  Ni22  1  0.333333  0.666667  0.499367  1
  Pd  Pd23  1  0.666667  0.333333  0.499013  1
