# generated using pymatgen
data_Ba2ScInMo2(P2O7)4
_symmetry_space_group_name_H-M   'P 1'
_cell_length_a   7.71172174
_cell_length_b   7.74875889
_cell_length_c   10.07003400
_cell_angle_alpha   99.87169517
_cell_angle_beta   80.63879191
_cell_angle_gamma   90.75558915
_symmetry_Int_Tables_number   1
_chemical_formula_structural   Ba2ScInMo2(P2O7)4
_chemical_formula_sum   'Ba2 Sc1 In1 Mo2 P8 O28'
_cell_volume   584.87630672
_cell_formula_units_Z   1
loop_
 _symmetry_equiv_pos_site_id
 _symmetry_equiv_pos_as_xyz
  1  'x, y, z'
loop_
 _atom_site_type_symbol
 _atom_site_label
 _atom_site_symmetry_multiplicity
 _atom_site_fract_x
 _atom_site_fract_y
 _atom_site_fract_z
 _atom_site_occupancy
  Ba  Ba0  1  0.500338  0.999398  0.000006  1
  Ba  Ba1  1  0.999584  0.500748  0.500020  1
  Sc  Sc2  1  0.000339  0.999933  0.999867  1
  In  In3  1  0.451634  0.448365  0.748472  1
  Mo  Mo4  1  0.545620  0.548541  0.251222  1
  Mo  Mo5  1  0.999943  0.000514  0.500024  1
  P  P6  1  0.252538  0.367333  0.056841  1
  P  P7  1  0.176027  0.731121  0.200100  1
  P  P8  1  0.732187  0.180998  0.299721  1
  P  P9  1  0.367371  0.252430  0.439555  1
  P  P10  1  0.633371  0.747378  0.560279  1
  P  P11  1  0.267156  0.818804  0.700019  1
  P  P12  1  0.823845  0.268425  0.800216  1
  P  P13  1  0.747472  0.633552  0.943299  1
  O  O14  1  0.136900  0.831462  0.090852  1
  O  O15  1  0.739439  0.609178  0.090333  1
  O  O16  1  0.436482  0.362770  0.099238  1
  O  O17  1  0.159591  0.197520  0.083310  1
  O  O18  1  0.135287  0.522553  0.159449  1
  O  O19  1  0.786366  0.057375  0.163905  1
  O  O20  1  0.372737  0.743768  0.209094  1
  O  O21  1  0.742784  0.376870  0.291388  1
  O  O22  1  0.051825  0.776569  0.336796  1
  O  O23  1  0.522540  0.137781  0.334318  1
  O  O24  1  0.196837  0.161652  0.408979  1
  O  O25  1  0.361962  0.437353  0.401430  1
  O  O26  1  0.607065  0.743242  0.413802  1
  O  O27  1  0.826128  0.148498  0.414860  1
  O  O28  1  0.174125  0.852932  0.584809  1
  O  O29  1  0.396580  0.253005  0.585053  1
  O  O30  1  0.639646  0.563642  0.600075  1
  O  O31  1  0.802514  0.840843  0.591221  1
  O  O32  1  0.476625  0.860887  0.664490  1
  O  O33  1  0.948478  0.224305  0.663543  1
  O  O34  1  0.253121  0.623134  0.708869  1
  O  O35  1  0.627323  0.252439  0.790806  1
  O  O36  1  0.214574  0.943107  0.835817  1
  O  O37  1  0.863471  0.476741  0.841645  1
  O  O38  1  0.843381  0.801874  0.916509  1
  O  O39  1  0.564777  0.639177  0.899417  1
  O  O40  1  0.257411  0.394688  0.910737  1
  O  O41  1  0.864606  0.169093  0.909619  1
