# generated using pymatgen
data_HgRuF6
_symmetry_space_group_name_H-M   'P 1'
_cell_length_a   5.87729356
_cell_length_b   5.87729385
_cell_length_c   5.87729350
_cell_angle_alpha   54.81151079
_cell_angle_beta   54.81151336
_cell_angle_gamma   54.81151988
_symmetry_Int_Tables_number   1
_chemical_formula_structural   HgRuF6
_chemical_formula_sum   'Hg1 Ru1 F6'
_cell_volume   126.21139683
_cell_formula_units_Z   1
loop_
 _symmetry_equiv_pos_site_id
 _symmetry_equiv_pos_as_xyz
  1  'x, y, z'
loop_
 _atom_site_type_symbol
 _atom_site_label
 _atom_site_symmetry_multiplicity
 _atom_site_fract_x
 _atom_site_fract_y
 _atom_site_fract_z
 _atom_site_occupancy
  Hg  Hg0  1  0.500000  0.500000  0.500000  1
  Ru  Ru1  1  0.000000  0.000000  0.000000  1
  F  F2  1  0.927563  0.214289  0.629706  1
  F  F3  1  0.214289  0.629706  0.927563  1
  F  F4  1  0.370294  0.072437  0.785711  1
  F  F5  1  0.785711  0.370294  0.072437  1
  F  F6  1  0.072437  0.785711  0.370294  1
  F  F7  1  0.629706  0.927563  0.214289  1
