# generated using pymatgen
data_GdCl37
_symmetry_space_group_name_H-M   'P 1'
_cell_length_a   12.78763379
_cell_length_b   13.76759013
_cell_length_c   12.98174600
_cell_angle_alpha   103.00376751
_cell_angle_beta   48.80056927
_cell_angle_gamma   81.50743368
_symmetry_Int_Tables_number   1
_chemical_formula_structural   GdCl37
_chemical_formula_sum   'Gd1 Cl37'
_cell_volume   1533.02354663
_cell_formula_units_Z   1
loop_
 _symmetry_equiv_pos_site_id
 _symmetry_equiv_pos_as_xyz
  1  'x, y, z'
loop_
 _atom_site_type_symbol
 _atom_site_label
 _atom_site_symmetry_multiplicity
 _atom_site_fract_x
 _atom_site_fract_y
 _atom_site_fract_z
 _atom_site_occupancy
  Gd  Gd0  1  0.500000  0.000000  0.000000  1
  Cl  Cl1  1  0.775772  0.309613  0.160917  1
  Cl  Cl2  1  0.224228  0.690387  0.839083  1
  Cl  Cl3  1  0.722548  0.077965  0.363680  1
  Cl  Cl4  1  0.277452  0.922035  0.636320  1
  Cl  Cl5  1  0.107921  0.334491  0.155099  1
  Cl  Cl6  1  0.892079  0.665509  0.844901  1
  Cl  Cl7  1  0.863251  0.534476  0.248162  1
  Cl  Cl8  1  0.136749  0.465524  0.751838  1
  Cl  Cl9  1  0.682027  0.284301  0.532195  1
  Cl  Cl10  1  0.317973  0.715699  0.467805  1
  Cl  Cl11  1  0.047575  0.130075  0.482903  1
  Cl  Cl12  1  0.952425  0.869925  0.517097  1
  Cl  Cl13  1  0.987129  0.004724  0.279011  1
  Cl  Cl14  1  0.012871  0.995276  0.720989  1
  Cl  Cl15  1  0.945173  0.355255  0.618848  1
  Cl  Cl16  1  0.054827  0.644745  0.381152  1
  Cl  Cl17  1  0.586545  0.420087  0.239285  1
  Cl  Cl18  1  0.413455  0.579913  0.760715  1
  Cl  Cl19  1  0.173045  0.479481  0.276706  1
  Cl  Cl20  1  0.826955  0.520519  0.723294  1
  Cl  Cl21  1  0.000000  0.500000  0.000000  1
  Cl  Cl22  1  0.569949  0.961802  0.145529  1
  Cl  Cl23  1  0.430051  0.038198  0.854471  1
  Cl  Cl24  1  0.292118  0.047570  0.324753  1
  Cl  Cl25  1  0.707882  0.952430  0.675247  1
  Cl  Cl26  1  0.529165  0.124701  0.411295  1
  Cl  Cl27  1  0.470835  0.875299  0.588705  1
  Cl  Cl28  1  0.080563  0.212764  0.065827  1
  Cl  Cl29  1  0.919437  0.787236  0.934173  1
  Cl  Cl30  1  0.675003  0.685644  0.392485  1
  Cl  Cl31  1  0.324997  0.314356  0.607515  1
  Cl  Cl32  1  0.905077  0.133498  0.909184  1
  Cl  Cl33  1  0.094923  0.866502  0.090816  1
  Cl  Cl34  1  0.453879  0.200817  0.096059  1
  Cl  Cl35  1  0.546121  0.799183  0.903941  1
  Cl  Cl36  1  0.665226  0.422717  0.645605  1
  Cl  Cl37  1  0.334774  0.577283  0.354395  1
