# generated using pymatgen
data_AcDyZn5Sn
_symmetry_space_group_name_H-M   'P 1'
_cell_length_a   8.59279394
_cell_length_b   8.59279310
_cell_length_c   9.17143300
_cell_angle_alpha   90.00000000
_cell_angle_beta   90.00000000
_cell_angle_gamma   149.35566385
_symmetry_Int_Tables_number   1
_chemical_formula_structural   AcDyZn5Sn
_chemical_formula_sum   'Ac2 Dy2 Zn10 Sn2'
_cell_volume   345.16505181
_cell_formula_units_Z   2
loop_
 _symmetry_equiv_pos_site_id
 _symmetry_equiv_pos_as_xyz
  1  'x, y, z'
loop_
 _atom_site_type_symbol
 _atom_site_label
 _atom_site_symmetry_multiplicity
 _atom_site_fract_x
 _atom_site_fract_y
 _atom_site_fract_z
 _atom_site_occupancy
  Ac  Ac0  1  0.000000  0.000000  0.500000  1
  Ac  Ac1  1  0.000000  0.000000  0.000000  1
  Dy  Dy2  1  0.208147  0.791853  0.250000  1
  Dy  Dy3  1  0.791853  0.208147  0.750000  1
  Zn  Zn4  1  0.810798  0.189202  0.387957  1
  Zn  Zn5  1  0.189202  0.810798  0.612043  1
  Zn  Zn6  1  0.810798  0.189202  0.112043  1
  Zn  Zn7  1  0.189202  0.810798  0.887957  1
  Zn  Zn8  1  0.661964  0.338036  0.485864  1
  Zn  Zn9  1  0.338036  0.661964  0.514136  1
  Zn  Zn10  1  0.661964  0.338036  0.014136  1
  Zn  Zn11  1  0.338036  0.661964  0.985864  1
  Zn  Zn12  1  0.395570  0.604430  0.250000  1
  Zn  Zn13  1  0.604430  0.395570  0.750000  1
  Sn  Sn14  1  0.564101  0.435899  0.250000  1
  Sn  Sn15  1  0.435899  0.564101  0.750000  1
