# generated using pymatgen
data_Dy16TcHg4Pt3
_symmetry_space_group_name_H-M   'P 1'
_cell_length_a   9.65425753
_cell_length_b   9.65425737
_cell_length_c   9.65425696
_cell_angle_alpha   59.64111904
_cell_angle_beta   59.64111858
_cell_angle_gamma   59.64111639
_symmetry_Int_Tables_number   1
_chemical_formula_structural   Dy16TcHg4Pt3
_chemical_formula_sum   'Dy16 Tc1 Hg4 Pt3'
_cell_volume   631.08150442
_cell_formula_units_Z   1
loop_
 _symmetry_equiv_pos_site_id
 _symmetry_equiv_pos_as_xyz
  1  'x, y, z'
loop_
 _atom_site_type_symbol
 _atom_site_label
 _atom_site_symmetry_multiplicity
 _atom_site_fract_x
 _atom_site_fract_y
 _atom_site_fract_z
 _atom_site_occupancy
  Dy  Dy0  1  0.353247  0.353247  0.353247  1
  Dy  Dy1  1  0.352808  0.352808  0.941082  1
  Dy  Dy2  1  0.352808  0.941082  0.352808  1
  Dy  Dy3  1  0.941082  0.352808  0.352808  1
  Dy  Dy4  1  0.815280  0.188339  0.188339  1
  Dy  Dy5  1  0.189297  0.809800  0.809800  1
  Dy  Dy6  1  0.188339  0.815280  0.188339  1
  Dy  Dy7  1  0.809800  0.189297  0.809800  1
  Dy  Dy8  1  0.188339  0.188339  0.815280  1
  Dy  Dy9  1  0.809800  0.809800  0.189297  1
  Dy  Dy10  1  0.935940  0.564353  0.564353  1
  Dy  Dy11  1  0.556941  0.938100  0.938100  1
  Dy  Dy12  1  0.564353  0.935940  0.564353  1
  Dy  Dy13  1  0.938100  0.556940  0.938100  1
  Dy  Dy14  1  0.564353  0.564353  0.935940  1
  Dy  Dy15  1  0.938100  0.938100  0.556940  1
  Tc  Tc16  1  0.144380  0.144380  0.144380  1
  Hg  Hg17  1  0.584633  0.584633  0.584633  1
  Hg  Hg18  1  0.585890  0.585890  0.241195  1
  Hg  Hg19  1  0.585890  0.241195  0.585890  1
  Hg  Hg20  1  0.241195  0.585890  0.585890  1
  Pt  Pt21  1  0.144222  0.144222  0.570981  1
  Pt  Pt22  1  0.144222  0.570981  0.144222  1
  Pt  Pt23  1  0.570981  0.144222  0.144222  1
