# generated using pymatgen
data_Ce2BeIr3
_symmetry_space_group_name_H-M   'P 1'
_cell_length_a   5.57956249
_cell_length_b   5.01916851
_cell_length_c   5.57956300
_cell_angle_alpha   56.23241960
_cell_angle_beta   60.00000291
_cell_angle_gamma   56.23240659
_symmetry_Int_Tables_number   1
_chemical_formula_structural   Ce2BeIr3
_chemical_formula_sum   'Ce2 Be1 Ir3'
_cell_volume   103.77195902
_cell_formula_units_Z   1
loop_
 _symmetry_equiv_pos_site_id
 _symmetry_equiv_pos_as_xyz
  1  'x, y, z'
loop_
 _atom_site_type_symbol
 _atom_site_label
 _atom_site_symmetry_multiplicity
 _atom_site_fract_x
 _atom_site_fract_y
 _atom_site_fract_z
 _atom_site_occupancy
  Ce  Ce0  1  0.750399  0.748802  0.750399  1
  Ce  Ce1  1  0.499601  0.501198  0.499601  1
  Be  Be2  1  0.125000  0.625000  0.125000  1
  Ir  Ir3  1  0.125000  0.125000  0.625000  1
  Ir  Ir4  1  0.625000  0.125000  0.125000  1
  Ir  Ir5  1  0.125000  0.125000  0.125000  1
