# generated using pymatgen
data_Tm15Lu5Sb12
_symmetry_space_group_name_H-M   'P 1'
_cell_length_a   8.03420113
_cell_length_b   9.15875002
_cell_length_c   11.67796621
_cell_angle_alpha   89.99253669
_cell_angle_beta   89.97932673
_cell_angle_gamma   90.00253154
_symmetry_Int_Tables_number   1
_chemical_formula_structural   Tm15Lu5Sb12
_chemical_formula_sum   'Tm15 Lu5 Sb12'
_cell_volume   859.30252427
_cell_formula_units_Z   1
loop_
 _symmetry_equiv_pos_site_id
 _symmetry_equiv_pos_as_xyz
  1  'x, y, z'
loop_
 _atom_site_type_symbol
 _atom_site_label
 _atom_site_symmetry_multiplicity
 _atom_site_fract_x
 _atom_site_fract_y
 _atom_site_fract_z
 _atom_site_occupancy
  Tm  Tm0  1  0.308513  0.059836  0.433866  1
  Tm  Tm1  1  0.191389  0.440136  0.933927  1
  Tm  Tm2  1  0.691512  0.559862  0.566095  1
  Tm  Tm3  1  0.191563  0.059809  0.933904  1
  Tm  Tm4  1  0.691547  0.940146  0.566091  1
  Tm  Tm5  1  0.808523  0.559915  0.066083  1
  Tm  Tm6  1  0.308482  0.440175  0.433900  1
  Tm  Tm7  1  0.175216  0.750032  0.228910  1
  Tm  Tm8  1  0.675165  0.249948  0.271021  1
  Tm  Tm9  1  0.824864  0.250006  0.771000  1
  Tm  Tm10  1  0.324863  0.750032  0.728941  1
  Tm  Tm11  1  0.657461  0.750208  0.290700  1
  Tm  Tm12  1  0.157439  0.250081  0.209134  1
  Tm  Tm13  1  0.342548  0.250012  0.709131  1
  Tm  Tm14  1  0.842554  0.750117  0.790968  1
  Lu  Lu15  1  0.808595  0.939764  0.066203  1
  Lu  Lu16  1  0.525049  0.249953  0.995100  1
  Lu  Lu17  1  0.025015  0.750014  0.504876  1
  Lu  Lu18  1  0.475225  0.750151  0.004951  1
  Lu  Lu19  1  0.974991  0.250007  0.495084  1
  Sb  Sb20  1  0.936296  0.990767  0.325857  1
  Sb  Sb21  1  0.436548  0.009299  0.173916  1
  Sb  Sb22  1  0.063580  0.490766  0.674013  1
  Sb  Sb23  1  0.563626  0.509352  0.826065  1
  Sb  Sb24  1  0.063532  0.009258  0.674022  1
  Sb  Sb25  1  0.563522  0.990813  0.826042  1
  Sb  Sb26  1  0.936408  0.509314  0.325971  1
  Sb  Sb27  1  0.436482  0.490825  0.173979  1
  Sb  Sb28  1  0.902855  0.249157  0.024261  1
  Sb  Sb29  1  0.403222  0.749999  0.475873  1
  Sb  Sb30  1  0.096603  0.750245  0.976009  1
  Sb  Sb31  1  0.596811  0.250001  0.524108  1
