# generated using pymatgen
data_SrPa3F15
_symmetry_space_group_name_H-M   'P 1'
_cell_length_a   8.01698933
_cell_length_b   8.01698886
_cell_length_c   8.01699102
_cell_angle_alpha   112.84191423
_cell_angle_beta   112.84191941
_cell_angle_gamma   112.84193354
_symmetry_Int_Tables_number   1
_chemical_formula_structural   SrPa3F15
_chemical_formula_sum   'Sr1 Pa3 F15'
_cell_volume   338.25032626
_cell_formula_units_Z   1
loop_
 _symmetry_equiv_pos_site_id
 _symmetry_equiv_pos_as_xyz
  1  'x, y, z'
loop_
 _atom_site_type_symbol
 _atom_site_label
 _atom_site_symmetry_multiplicity
 _atom_site_fract_x
 _atom_site_fract_y
 _atom_site_fract_z
 _atom_site_occupancy
  Sr  Sr0  1  0.492227  0.492227  0.492227  1
  Pa  Pa1  1  0.854294  0.281090  0.854294  1
  Pa  Pa2  1  0.281090  0.854294  0.854294  1
  Pa  Pa3  1  0.854294  0.854294  0.281090  1
  F  F4  1  0.604977  0.935366  0.146974  1
  F  F5  1  0.935366  0.146974  0.604977  1
  F  F6  1  0.146974  0.604977  0.935366  1
  F  F7  1  0.935366  0.604977  0.146974  1
  F  F8  1  0.598707  0.598707  0.253968  1
  F  F9  1  0.253968  0.598707  0.598707  1
  F  F10  1  0.598707  0.253968  0.598707  1
  F  F11  1  0.135226  0.135226  0.355217  1
  F  F12  1  0.355217  0.135226  0.135226  1
  F  F13  1  0.135226  0.355217  0.135226  1
  F  F14  1  0.671651  0.671651  0.910274  1
  F  F15  1  0.910274  0.671651  0.671651  1
  F  F16  1  0.671651  0.910274  0.671651  1
  F  F17  1  0.146974  0.935366  0.604977  1
  F  F18  1  0.604977  0.146974  0.935366  1
