# generated using pymatgen
data_Nd3ErTmSn3
_symmetry_space_group_name_H-M   'P 1'
_cell_length_a   6.65458000
_cell_length_b   9.14411644
_cell_length_c   9.14438101
_cell_angle_alpha   119.99904279
_cell_angle_beta   90.00047919
_cell_angle_gamma   89.99904534
_symmetry_Int_Tables_number   1
_chemical_formula_structural   Nd3ErTmSn3
_chemical_formula_sum   'Nd6 Er2 Tm2 Sn6'
_cell_volume   481.89401399
_cell_formula_units_Z   2
loop_
 _symmetry_equiv_pos_site_id
 _symmetry_equiv_pos_as_xyz
  1  'x, y, z'
loop_
 _atom_site_type_symbol
 _atom_site_label
 _atom_site_symmetry_multiplicity
 _atom_site_fract_x
 _atom_site_fract_y
 _atom_site_fract_z
 _atom_site_occupancy
  Nd  Nd0  1  0.750054  0.241144  0.000000  1
  Nd  Nd1  1  0.750052  0.758755  0.758799  1
  Nd  Nd2  1  0.750052  0.999956  0.241201  1
  Nd  Nd3  1  0.249951  0.758851  0.000000  1
  Nd  Nd4  1  0.249945  0.241240  0.241202  1
  Nd  Nd5  1  0.249945  0.000038  0.758798  1
  Er  Er6  1  0.500003  0.333348  0.666684  1
  Er  Er7  1  0.500003  0.666664  0.333316  1
  Tm  Tm8  1  0.999997  0.666659  0.333304  1
  Tm  Tm9  1  0.999997  0.333356  0.666696  1
  Sn  Sn10  1  0.750135  0.600801  0.000000  1
  Sn  Sn11  1  0.750140  0.399143  0.399144  1
  Sn  Sn12  1  0.750140  0.000000  0.600856  1
  Sn  Sn13  1  0.249859  0.399194  0.000000  1
  Sn  Sn14  1  0.249864  0.600853  0.600858  1
  Sn  Sn15  1  0.249864  0.999995  0.399142  1
