# generated using pymatgen
data_Dy20Ir3PtRh8
_symmetry_space_group_name_H-M   'P 1'
_cell_length_a   10.93236988
_cell_length_b   10.93236909
_cell_length_c   6.36633419
_cell_angle_alpha   90.01865161
_cell_angle_beta   90.01864808
_cell_angle_gamma   89.69911132
_symmetry_Int_Tables_number   1
_chemical_formula_structural   Dy20Ir3PtRh8
_chemical_formula_sum   'Dy20 Ir3 Pt1 Rh8'
_cell_volume   760.87269786
_cell_formula_units_Z   1
loop_
 _symmetry_equiv_pos_site_id
 _symmetry_equiv_pos_as_xyz
  1  'x, y, z'
loop_
 _atom_site_type_symbol
 _atom_site_label
 _atom_site_symmetry_multiplicity
 _atom_site_fract_x
 _atom_site_fract_y
 _atom_site_fract_z
 _atom_site_occupancy
  Dy  Dy0  1  0.290853  0.090582  0.379379  1
  Dy  Dy1  1  0.292023  0.908741  0.878754  1
  Dy  Dy2  1  0.707471  0.087782  0.875934  1
  Dy  Dy3  1  0.707212  0.907915  0.379931  1
  Dy  Dy4  1  0.587995  0.789888  0.880575  1
  Dy  Dy5  1  0.585420  0.209331  0.379148  1
  Dy  Dy6  1  0.411989  0.790115  0.379913  1
  Dy  Dy7  1  0.409398  0.209239  0.880098  1
  Dy  Dy8  1  0.210112  0.412005  0.619425  1
  Dy  Dy9  1  0.209885  0.588011  0.120087  1
  Dy  Dy10  1  0.790669  0.414580  0.120852  1
  Dy  Dy11  1  0.790761  0.590602  0.619902  1
  Dy  Dy12  1  0.909418  0.709147  0.120621  1
  Dy  Dy13  1  0.912218  0.292529  0.624066  1
  Dy  Dy14  1  0.091259  0.707977  0.621246  1
  Dy  Dy15  1  0.092085  0.292788  0.120069  1
  Dy  Dy16  1  0.000865  0.998269  0.500122  1
  Dy  Dy17  1  0.001731  0.999135  0.999878  1
  Dy  Dy18  1  0.499696  0.499671  0.999690  1
  Dy  Dy19  1  0.500329  0.500304  0.500310  1
  Ir  Ir20  1  0.654721  0.653512  0.249514  1
  Ir  Ir21  1  0.346488  0.345279  0.250486  1
  Ir  Ir22  1  0.345412  0.654588  0.750000  1
  Pt  Pt23  1  0.845191  0.154809  0.250000  1
  Rh  Rh24  1  0.846134  0.847580  0.750148  1
  Rh  Rh25  1  0.152420  0.153866  0.749852  1
  Rh  Rh26  1  0.154005  0.845995  0.250000  1
  Rh  Rh27  1  0.655828  0.344172  0.750000  1
  Rh  Rh28  1  0.499816  0.000260  0.126067  1
  Rh  Rh29  1  0.499904  0.001051  0.625464  1
  Rh  Rh30  1  0.998949  0.500096  0.874536  1
  Rh  Rh31  1  0.999740  0.500184  0.373933  1
