# generated using pymatgen
data_Sr8CdHg3Pb4
_symmetry_space_group_name_H-M   'P 1'
_cell_length_a   8.11405900
_cell_length_b   5.80496800
_cell_length_c   11.60832200
_cell_angle_alpha   90.00000000
_cell_angle_beta   90.00040221
_cell_angle_gamma   90.00000000
_symmetry_Int_Tables_number   1
_chemical_formula_structural   Sr8CdHg3Pb4
_chemical_formula_sum   'Sr8 Cd1 Hg3 Pb4'
_cell_volume   546.77347462
_cell_formula_units_Z   1
loop_
 _symmetry_equiv_pos_site_id
 _symmetry_equiv_pos_as_xyz
  1  'x, y, z'
loop_
 _atom_site_type_symbol
 _atom_site_label
 _atom_site_symmetry_multiplicity
 _atom_site_fract_x
 _atom_site_fract_y
 _atom_site_fract_z
 _atom_site_occupancy
  Sr  Sr0  1  0.000502  0.750000  0.125224  1
  Sr  Sr1  1  0.499580  0.750000  0.125270  1
  Sr  Sr2  1  0.000241  0.250000  0.374921  1
  Sr  Sr3  1  0.499879  0.250000  0.374967  1
  Sr  Sr4  1  0.499818  0.750000  0.625221  1
  Sr  Sr5  1  0.000061  0.750000  0.625269  1
  Sr  Sr6  1  0.499783  0.250000  0.874534  1
  Sr  Sr7  1  0.000133  0.250000  0.874580  1
  Cd  Cd8  1  0.749955  0.250000  0.124666  1
  Hg  Hg9  1  0.249954  0.750000  0.375360  1
  Hg  Hg10  1  0.750047  0.250000  0.624643  1
  Hg  Hg11  1  0.250046  0.750000  0.875346  1
  Pb  Pb12  1  0.250051  0.250000  0.124688  1
  Pb  Pb13  1  0.750048  0.750000  0.375099  1
  Pb  Pb14  1  0.249951  0.250000  0.624691  1
  Pb  Pb15  1  0.749951  0.750000  0.875521  1
