# generated using pymatgen
data_Nb10Ga3SiGe2C
_symmetry_space_group_name_H-M   'P 1'
_cell_length_a   7.72368445
_cell_length_b   7.71334470
_cell_length_c   5.34732339
_cell_angle_alpha   89.95612043
_cell_angle_beta   90.02191485
_cell_angle_gamma   119.95572950
_symmetry_Int_Tables_number   1
_chemical_formula_structural   Nb10Ga3SiGe2C
_chemical_formula_sum   'Nb10 Ga3 Si1 Ge2 C1'
_cell_volume   276.01188403
_cell_formula_units_Z   1
loop_
 _symmetry_equiv_pos_site_id
 _symmetry_equiv_pos_as_xyz
  1  'x, y, z'
loop_
 _atom_site_type_symbol
 _atom_site_label
 _atom_site_symmetry_multiplicity
 _atom_site_fract_x
 _atom_site_fract_y
 _atom_site_fract_z
 _atom_site_occupancy
  Nb  Nb0  1  0.000000  0.761332  0.259170  1
  Nb  Nb1  1  0.236611  0.237117  0.259650  1
  Nb  Nb2  1  0.763389  0.000507  0.259650  1
  Nb  Nb3  1  0.000000  0.237276  0.741135  1
  Nb  Nb4  1  0.766784  0.763180  0.741032  1
  Nb  Nb5  1  0.233216  0.996397  0.741032  1
  Nb  Nb6  1  0.330389  0.666077  0.999460  1
  Nb  Nb7  1  0.669611  0.335686  0.999460  1
  Nb  Nb8  1  0.669267  0.335443  0.499271  1
  Nb  Nb9  1  0.330733  0.666176  0.499271  1
  Ga  Ga10  1  0.000000  0.400120  0.243991  1
  Ga  Ga11  1  0.599973  0.600820  0.244304  1
  Ga  Ga12  1  0.400027  0.000847  0.244304  1
  Si  Si13  1  0.000000  0.598947  0.756877  1
  Ge  Ge14  1  0.400692  0.400208  0.756740  1
  Ge  Ge15  1  0.599308  0.999516  0.756740  1
  C  C16  1  0.000000  0.000350  0.497909  1
