# generated using pymatgen
data_LaYb3Ir3RuO14
_symmetry_space_group_name_H-M   'P 1'
_cell_length_a   7.23676124
_cell_length_b   7.23676122
_cell_length_c   7.23676200
_cell_angle_alpha   59.78650766
_cell_angle_beta   59.78650776
_cell_angle_gamma   59.78651127
_symmetry_Int_Tables_number   1
_chemical_formula_structural   LaYb3Ir3RuO14
_chemical_formula_sum   'La1 Yb3 Ir3 Ru1 O14'
_cell_volume   266.69059963
_cell_formula_units_Z   1
loop_
 _symmetry_equiv_pos_site_id
 _symmetry_equiv_pos_as_xyz
  1  'x, y, z'
loop_
 _atom_site_type_symbol
 _atom_site_label
 _atom_site_symmetry_multiplicity
 _atom_site_fract_x
 _atom_site_fract_y
 _atom_site_fract_z
 _atom_site_occupancy
  La  La0  1  0.625000  0.625000  0.625000  1
  Yb  Yb1  1  0.625000  0.625000  0.125000  1
  Yb  Yb2  1  0.625000  0.125000  0.625000  1
  Yb  Yb3  1  0.125000  0.625000  0.625000  1
  Ir  Ir4  1  0.125000  0.125000  0.625000  1
  Ir  Ir5  1  0.125000  0.625000  0.125000  1
  Ir  Ir6  1  0.625000  0.125000  0.125000  1
  Ru  Ru7  1  0.125000  0.125000  0.125000  1
  O  O8  1  0.751338  0.751338  0.751338  1
  O  O9  1  0.498662  0.498662  0.498662  1
  O  O10  1  0.051462  0.447841  0.051462  1
  O  O11  1  0.796357  0.195743  0.796357  1
  O  O12  1  0.051462  0.051462  0.447841  1
  O  O13  1  0.447841  0.051462  0.051462  1
  O  O14  1  0.054257  0.453643  0.453643  1
  O  O15  1  0.453643  0.453643  0.054257  1
  O  O16  1  0.453643  0.054257  0.453643  1
  O  O17  1  0.195743  0.796357  0.796357  1
  O  O18  1  0.802159  0.198538  0.198538  1
  O  O19  1  0.198538  0.802159  0.198538  1
  O  O20  1  0.796357  0.796357  0.195743  1
  O  O21  1  0.198538  0.198538  0.802159  1
