# generated using pymatgen
data_DyNb8CdS16
_symmetry_space_group_name_H-M   'P 1'
_cell_length_a   6.75122700
_cell_length_b   6.75122631
_cell_length_c   13.68289900
_cell_angle_alpha   90.00000000
_cell_angle_beta   90.00000000
_cell_angle_gamma   120.00000829
_symmetry_Int_Tables_number   1
_chemical_formula_structural   DyNb8CdS16
_chemical_formula_sum   'Dy1 Nb8 Cd1 S16'
_cell_volume   540.09989587
_cell_formula_units_Z   1
loop_
 _symmetry_equiv_pos_site_id
 _symmetry_equiv_pos_as_xyz
  1  'x, y, z'
loop_
 _atom_site_type_symbol
 _atom_site_label
 _atom_site_symmetry_multiplicity
 _atom_site_fract_x
 _atom_site_fract_y
 _atom_site_fract_z
 _atom_site_occupancy
  Dy  Dy0  1  0.000000  0.000000  0.500000  1
  Nb  Nb1  1  0.505368  0.494632  0.754827  1
  Nb  Nb2  1  0.010734  0.505368  0.245173  1
  Nb  Nb3  1  0.494632  0.989266  0.245173  1
  Nb  Nb4  1  0.505368  0.010734  0.754827  1
  Nb  Nb5  1  0.989266  0.494632  0.754827  1
  Nb  Nb6  1  0.494632  0.505368  0.245173  1
  Nb  Nb7  1  0.000000  0.000000  0.753500  1
  Nb  Nb8  1  0.000000  0.000000  0.246500  1
  Cd  Cd9  1  0.000000  0.000000  0.000000  1
  S  S10  1  0.832113  0.167887  0.360005  1
  S  S11  1  0.832113  0.664226  0.360005  1
  S  S12  1  0.335774  0.167887  0.360005  1
  S  S13  1  0.661676  0.830838  0.867595  1
  S  S14  1  0.167887  0.335774  0.639995  1
  S  S15  1  0.169162  0.830838  0.867595  1
  S  S16  1  0.169162  0.338324  0.867595  1
  S  S17  1  0.830838  0.169162  0.132405  1
  S  S18  1  0.338324  0.169162  0.132405  1
  S  S19  1  0.664226  0.832113  0.639995  1
  S  S20  1  0.333333  0.666667  0.129008  1
  S  S21  1  0.666667  0.333333  0.637761  1
  S  S22  1  0.666667  0.333333  0.870992  1
  S  S23  1  0.333333  0.666667  0.362239  1
  S  S24  1  0.830838  0.661676  0.132405  1
  S  S25  1  0.167887  0.832113  0.639995  1
