# generated using pymatgen
data_Ho3Tm5(ReB6)4
_symmetry_space_group_name_H-M   'P 1'
_cell_length_a   3.65168600
_cell_length_b   9.11932700
_cell_length_c   11.49425600
_cell_angle_alpha   89.99844330
_cell_angle_beta   90.00000000
_cell_angle_gamma   90.00000000
_symmetry_Int_Tables_number   1
_chemical_formula_structural   Ho3Tm5(ReB6)4
_chemical_formula_sum   'Ho3 Tm5 Re4 B24'
_cell_volume   382.76928491
_cell_formula_units_Z   1
loop_
 _symmetry_equiv_pos_site_id
 _symmetry_equiv_pos_as_xyz
  1  'x, y, z'
loop_
 _atom_site_type_symbol
 _atom_site_label
 _atom_site_symmetry_multiplicity
 _atom_site_fract_x
 _atom_site_fract_y
 _atom_site_fract_z
 _atom_site_occupancy
  Ho  Ho0  1  0.000000  0.323362  0.413798  1
  Ho  Ho1  1  0.000000  0.676594  0.586242  1
  Ho  Ho2  1  0.000000  0.823412  0.086161  1
  Tm  Tm3  1  0.000000  0.176458  0.913833  1
  Tm  Tm4  1  0.000000  0.943575  0.370209  1
  Tm  Tm5  1  0.000000  0.056511  0.629831  1
  Tm  Tm6  1  0.000000  0.443440  0.129576  1
  Tm  Tm7  1  0.000000  0.556390  0.870341  1
  Re  Re8  1  0.000000  0.639267  0.320546  1
  Re  Re9  1  0.000000  0.360565  0.679677  1
  Re  Re10  1  0.000000  0.139260  0.179139  1
  Re  Re11  1  0.000000  0.861085  0.820663  1
  B  B12  1  0.500000  0.553428  0.433015  1
  B  B13  1  0.500000  0.446490  0.567065  1
  B  B14  1  0.500000  0.053581  0.066640  1
  B  B15  1  0.500000  0.946948  0.933057  1
  B  B16  1  0.500000  0.750266  0.418948  1
  B  B17  1  0.500000  0.249735  0.581181  1
  B  B18  1  0.500000  0.250168  0.080576  1
  B  B19  1  0.500000  0.749871  0.918924  1
  B  B20  1  0.500000  0.793037  0.265479  1
  B  B21  1  0.500000  0.206800  0.734855  1
  B  B22  1  0.500000  0.293001  0.234342  1
  B  B23  1  0.500000  0.707016  0.765551  1
  B  B24  1  0.500000  0.630769  0.185085  1
  B  B25  1  0.500000  0.368879  0.815180  1
  B  B26  1  0.500000  0.130837  0.314804  1
  B  B27  1  0.500000  0.869311  0.685221  1
  B  B28  1  0.500000  0.982110  0.212187  1
  B  B29  1  0.500000  0.018400  0.787944  1
  B  B30  1  0.500000  0.481988  0.287640  1
  B  B31  1  0.500000  0.517882  0.712401  1
  B  B32  1  0.500000  0.599296  0.027702  1
  B  B33  1  0.500000  0.400214  0.972148  1
  B  B34  1  0.500000  0.099286  0.472310  1
  B  B35  1  0.500000  0.900768  0.527728  1
