# generated using pymatgen
data_SmEu(SiPt2)2
_symmetry_space_group_name_H-M   'P 1'
_cell_length_a   4.14278097
_cell_length_b   4.21408000
_cell_length_c   9.26522641
_cell_angle_alpha   90.00000000
_cell_angle_beta   102.91856286
_cell_angle_gamma   90.00000000
_symmetry_Int_Tables_number   1
_chemical_formula_structural   SmEu(SiPt2)2
_chemical_formula_sum   'Sm1 Eu1 Si2 Pt4'
_cell_volume   157.65827361
_cell_formula_units_Z   1
loop_
 _symmetry_equiv_pos_site_id
 _symmetry_equiv_pos_as_xyz
  1  'x, y, z'
loop_
 _atom_site_type_symbol
 _atom_site_label
 _atom_site_symmetry_multiplicity
 _atom_site_fract_x
 _atom_site_fract_y
 _atom_site_fract_z
 _atom_site_occupancy
  Sm  Sm0  1  0.600232  0.250000  0.200463  1
  Eu  Eu1  1  0.400617  0.750000  0.801235  1
  Si  Si2  1  0.822046  0.250000  0.644092  1
  Si  Si3  1  0.177846  0.750000  0.355693  1
  Pt  Pt4  1  0.953238  0.250000  0.906477  1
  Pt  Pt5  1  0.048401  0.750000  0.096801  1
  Pt  Pt6  1  0.248999  0.250000  0.497997  1
  Pt  Pt7  1  0.748620  0.750000  0.497242  1
