# generated using pymatgen
data_Dy8Al3Si8Ge
_symmetry_space_group_name_H-M   'P 1'
_cell_length_a   5.60210764
_cell_length_b   5.60210789
_cell_length_c   19.50737642
_cell_angle_alpha   82.30498716
_cell_angle_beta   82.30498719
_cell_angle_gamma   42.49298863
_symmetry_Int_Tables_number   1
_chemical_formula_structural   Dy8Al3Si8Ge
_chemical_formula_sum   'Dy8 Al3 Si8 Ge1'
_cell_volume   409.25914967
_cell_formula_units_Z   1
loop_
 _symmetry_equiv_pos_site_id
 _symmetry_equiv_pos_as_xyz
  1  'x, y, z'
loop_
 _atom_site_type_symbol
 _atom_site_label
 _atom_site_symmetry_multiplicity
 _atom_site_fract_x
 _atom_site_fract_y
 _atom_site_fract_z
 _atom_site_occupancy
  Dy  Dy0  1  0.462666  0.462666  0.676558  1
  Dy  Dy1  1  0.703334  0.703334  0.928707  1
  Dy  Dy2  1  0.973760  0.973760  0.179209  1
  Dy  Dy3  1  0.216790  0.216790  0.428047  1
  Dy  Dy4  1  0.783210  0.783210  0.571953  1
  Dy  Dy5  1  0.026240  0.026240  0.820791  1
  Dy  Dy6  1  0.296666  0.296666  0.071293  1
  Dy  Dy7  1  0.537334  0.537334  0.323442  1
  Al  Al8  1  0.254666  0.254666  0.252335  1
  Al  Al9  1  0.500000  0.500000  0.500000  1
  Al  Al10  1  0.745334  0.745334  0.747665  1
  Si  Si11  1  0.172635  0.172635  0.676297  1
  Si  Si12  1  0.415736  0.415736  0.923102  1
  Si  Si13  1  0.687023  0.687023  0.180049  1
  Si  Si14  1  0.928070  0.928070  0.427880  1
  Si  Si15  1  0.071930  0.071930  0.572120  1
  Si  Si16  1  0.312977  0.312977  0.819951  1
  Si  Si17  1  0.584264  0.584264  0.076898  1
  Si  Si18  1  0.827365  0.827365  0.323703  1
  Ge  Ge19  1  0.000000  0.000000  0.000000  1
