# generated using pymatgen
data_Tl3Hg(SO4)6
_symmetry_space_group_name_H-M   'P 1'
_cell_length_a   8.67139033
_cell_length_b   8.67065480
_cell_length_c   9.36287300
_cell_angle_alpha   62.39810595
_cell_angle_beta   62.42953451
_cell_angle_gamma   60.04712107
_symmetry_Int_Tables_number   1
_chemical_formula_structural   Tl3Hg(SO4)6
_chemical_formula_sum   'Tl3 Hg1 S6 O24'
_cell_volume   515.36671138
_cell_formula_units_Z   1
loop_
 _symmetry_equiv_pos_site_id
 _symmetry_equiv_pos_as_xyz
  1  'x, y, z'
loop_
 _atom_site_type_symbol
 _atom_site_label
 _atom_site_symmetry_multiplicity
 _atom_site_fract_x
 _atom_site_fract_y
 _atom_site_fract_z
 _atom_site_occupancy
  Tl  Tl0  1  0.646759  0.645667  0.062581  1
  Tl  Tl1  1  0.354593  0.354760  0.935338  1
  Tl  Tl2  1  0.154673  0.154866  0.535852  1
  Hg  Hg3  1  0.844009  0.844268  0.467371  1
  S  S4  1  0.747714  0.448269  0.752396  1
  S  S5  1  0.050763  0.747239  0.753674  1
  S  S6  1  0.544770  0.956039  0.247549  1
  S  S7  1  0.956061  0.251444  0.247709  1
  S  S8  1  0.251962  0.545606  0.247334  1
  S  S9  1  0.448448  0.051043  0.752441  1
  O  O10  1  0.922096  0.694207  0.926649  1
  O  O11  1  0.460324  0.921352  0.924155  1
  O  O12  1  0.644694  0.001966  0.305076  1
  O  O13  1  0.351374  0.971828  0.364045  1
  O  O14  1  0.001536  0.952847  0.700542  1
  O  O15  1  0.692006  0.635267  0.628759  1
  O  O16  1  0.693321  0.460592  0.923977  1
  O  O17  1  0.646706  0.760780  0.237853  1
  O  O18  1  0.953085  0.343647  0.701554  1
  O  O19  1  0.246807  0.649024  0.762417  1
  O  O20  1  0.648886  0.341639  0.762002  1
  O  O21  1  0.040221  0.689738  0.633163  1
  O  O22  1  0.972076  0.313881  0.363132  1
  O  O23  1  0.355720  0.647775  0.236341  1
  O  O24  1  0.761135  0.354371  0.237122  1
  O  O25  1  0.048859  0.646400  0.304514  1
  O  O26  1  0.341597  0.246672  0.762039  1
  O  O27  1  0.299317  0.540105  0.074260  1
  O  O28  1  0.312449  0.352685  0.364745  1
  O  O29  1  0.001062  0.048019  0.307209  1
  O  O30  1  0.635546  0.043273  0.629431  1
  O  O31  1  0.344270  0.000971  0.701002  1
  O  O32  1  0.540302  0.086123  0.073768  1
  O  O33  1  0.086856  0.297633  0.074002  1
