# generated using pymatgen
data_Sn4B3Ir3Rh4
_symmetry_space_group_name_H-M   'P 1'
_cell_length_a   9.32698406
_cell_length_b   9.33474962
_cell_length_c   5.69158670
_cell_angle_alpha   90.02539948
_cell_angle_beta   90.06073333
_cell_angle_gamma   120.04254587
_symmetry_Int_Tables_number   1
_chemical_formula_structural   Sn4B3Ir3Rh4
_chemical_formula_sum   'Sn8 B6 Ir6 Rh8'
_cell_volume   428.96417712
_cell_formula_units_Z   2
loop_
 _symmetry_equiv_pos_site_id
 _symmetry_equiv_pos_as_xyz
  1  'x, y, z'
loop_
 _atom_site_type_symbol
 _atom_site_label
 _atom_site_symmetry_multiplicity
 _atom_site_fract_x
 _atom_site_fract_y
 _atom_site_fract_z
 _atom_site_occupancy
  Sn  Sn0  1  0.502926  0.091581  0.749996  1
  Sn  Sn1  1  0.091230  0.588143  0.249746  1
  Sn  Sn2  1  0.909273  0.410369  0.749278  1
  Sn  Sn3  1  0.588791  0.497766  0.749307  1
  Sn  Sn4  1  0.498738  0.909740  0.249678  1
  Sn  Sn5  1  0.332671  0.666502  0.752452  1
  Sn  Sn6  1  0.410037  0.501856  0.249054  1
  Sn  Sn7  1  0.666640  0.332604  0.252639  1
  B  B8  1  0.828330  0.791584  0.250268  1
  B  B9  1  0.963405  0.170647  0.250136  1
  B  B10  1  0.208759  0.037143  0.249082  1
  B  B11  1  0.792098  0.962926  0.750519  1
  B  B12  1  0.036889  0.828244  0.749759  1
  B  B13  1  0.171253  0.207746  0.749188  1
  Ir  Ir14  1  0.876578  0.647141  0.498753  1
  Ir  Ir15  1  0.352928  0.229434  0.498474  1
  Ir  Ir16  1  0.229355  0.876327  0.998839  1
  Ir  Ir17  1  0.999432  0.000283  0.500780  1
  Ir  Ir18  1  0.000069  0.000844  0.000743  1
  Ir  Ir19  1  0.647023  0.770613  0.999126  1
  Rh  Rh20  1  0.123835  0.354308  0.998665  1
  Rh  Rh21  1  0.769646  0.124173  0.499341  1
  Rh  Rh22  1  0.770066  0.124738  0.001094  1
  Rh  Rh23  1  0.644542  0.769642  0.501129  1
  Rh  Rh24  1  0.123971  0.354525  0.500418  1
  Rh  Rh25  1  0.875298  0.644069  0.000912  1
  Rh  Rh26  1  0.354818  0.231132  0.000073  1
  Rh  Rh27  1  0.231400  0.875921  0.500552  1
