# generated using pymatgen
data_Sr2Yb2As2O
_symmetry_space_group_name_H-M   'P 1'
_cell_length_a   8.74172172
_cell_length_b   8.74172170
_cell_length_c   8.74172163
_cell_angle_alpha   149.42672814
_cell_angle_beta   149.42672751
_cell_angle_gamma   43.78355930
_symmetry_Int_Tables_number   1
_chemical_formula_structural   Sr2Yb2As2O
_chemical_formula_sum   'Sr2 Yb2 As2 O1'
_cell_volume   172.34412206
_cell_formula_units_Z   1
loop_
 _symmetry_equiv_pos_site_id
 _symmetry_equiv_pos_as_xyz
  1  'x, y, z'
loop_
 _atom_site_type_symbol
 _atom_site_label
 _atom_site_symmetry_multiplicity
 _atom_site_fract_x
 _atom_site_fract_y
 _atom_site_fract_z
 _atom_site_occupancy
  Sr  Sr0  1  0.670649  0.670649  0.000000  1
  Sr  Sr1  1  0.329351  0.329351  0.000000  1
  Yb  Yb2  1  0.500000  0.000000  0.500000  1
  Yb  Yb3  1  0.000000  0.500000  0.500000  1
  As  As4  1  0.868784  0.868784  0.000000  1
  As  As5  1  0.131216  0.131216  0.000000  1
  O  O6  1  0.500000  0.500000  0.000000  1
