# generated using pymatgen
data_YHoMn2Co10P7
_symmetry_space_group_name_H-M   'P 1'
_cell_length_a   9.04566566
_cell_length_b   9.05343007
_cell_length_c   3.60187200
_cell_angle_alpha   90.00000000
_cell_angle_beta   90.00000000
_cell_angle_gamma   120.09166417
_symmetry_Int_Tables_number   1
_chemical_formula_structural   YHoMn2Co10P7
_chemical_formula_sum   'Y1 Ho1 Mn2 Co10 P7'
_cell_volume   255.21764915
_cell_formula_units_Z   1
loop_
 _symmetry_equiv_pos_site_id
 _symmetry_equiv_pos_as_xyz
  1  'x, y, z'
loop_
 _atom_site_type_symbol
 _atom_site_label
 _atom_site_symmetry_multiplicity
 _atom_site_fract_x
 _atom_site_fract_y
 _atom_site_fract_z
 _atom_site_occupancy
  Y  Y0  1  0.668790  0.334689  0.000000  1
  Ho  Ho1  1  0.333621  0.666562  0.500000  1
  Mn  Mn2  1  0.778227  0.879691  0.500000  1
  Mn  Mn3  1  0.121230  0.900697  0.500000  1
  Co  Co4  1  0.060885  0.428605  0.000000  1
  Co  Co5  1  0.568788  0.629898  0.000000  1
  Co  Co6  1  0.369493  0.938859  0.000000  1
  Co  Co7  1  0.274646  0.157765  0.000000  1
  Co  Co8  1  0.843519  0.118233  0.000000  1
  Co  Co9  1  0.884118  0.725836  0.000000  1
  Co  Co10  1  0.434131  0.385884  0.500000  1
  Co  Co11  1  0.614650  0.050968  0.500000  1
  Co  Co12  1  0.950846  0.563162  0.500000  1
  Co  Co13  1  0.093511  0.218464  0.500000  1
  P  P14  1  0.298133  0.410070  0.000000  1
  P  P15  1  0.588264  0.887982  0.000000  1
  P  P16  1  0.112360  0.698792  0.000000  1
  P  P17  1  0.407214  0.117248  0.500000  1
  P  P18  1  0.887166  0.288531  0.500000  1
  P  P19  1  0.710689  0.596770  0.500000  1
  P  P20  1  0.999716  0.001293  0.000000  1
