# generated using pymatgen
data_Th14CoRe3Ru2
_symmetry_space_group_name_H-M   'P 1'
_cell_length_a   9.89275349
_cell_length_b   9.93195806
_cell_length_c   6.32969363
_cell_angle_alpha   90.32948314
_cell_angle_beta   89.98726990
_cell_angle_gamma   119.04140366
_symmetry_Int_Tables_number   1
_chemical_formula_structural   Th14CoRe3Ru2
_chemical_formula_sum   'Th14 Co1 Re3 Ru2'
_cell_volume   543.71441509
_cell_formula_units_Z   1
loop_
 _symmetry_equiv_pos_site_id
 _symmetry_equiv_pos_as_xyz
  1  'x, y, z'
loop_
 _atom_site_type_symbol
 _atom_site_label
 _atom_site_symmetry_multiplicity
 _atom_site_fract_x
 _atom_site_fract_y
 _atom_site_fract_z
 _atom_site_occupancy
  Th  Th0  1  0.331840  0.670101  0.033547  1
  Th  Th1  1  0.667487  0.332105  0.536183  1
  Th  Th2  1  0.125356  0.874030  0.245691  1
  Th  Th3  1  0.248514  0.120950  0.757512  1
  Th  Th4  1  0.876816  0.747327  0.755241  1
  Th  Th5  1  0.125717  0.250445  0.258411  1
  Th  Th6  1  0.749761  0.873672  0.253803  1
  Th  Th7  1  0.874901  0.124886  0.753284  1
  Th  Th8  1  0.535796  0.456557  0.045637  1
  Th  Th9  1  0.082691  0.552280  0.546127  1
  Th  Th10  1  0.450713  0.918691  0.545079  1
  Th  Th11  1  0.544330  0.080027  0.046227  1
  Th  Th12  1  0.921944  0.453933  0.045165  1
  Th  Th13  1  0.462237  0.541510  0.547527  1
  Co  Co14  1  0.188139  0.817014  0.795174  1
  Re  Re15  1  0.184173  0.377055  0.803792  1
  Re  Re16  1  0.814927  0.626942  0.298170  1
  Re  Re17  1  0.372354  0.181921  0.303127  1
  Ru  Ru18  1  0.814877  0.180533  0.296174  1
  Ru  Ru19  1  0.627427  0.820021  0.794130  1
