# generated using pymatgen
data_Cs2CuS16
_symmetry_space_group_name_H-M   'P 1'
_cell_length_a   11.89296000
_cell_length_b   11.89296000
_cell_length_c   7.41230600
_cell_angle_alpha   90.00000000
_cell_angle_beta   90.00000000
_cell_angle_gamma   90.00000000
_symmetry_Int_Tables_number   1
_chemical_formula_structural   Cs2CuS16
_chemical_formula_sum   'Cs4 Cu2 S32'
_cell_volume   1048.41507333
_cell_formula_units_Z   2
loop_
 _symmetry_equiv_pos_site_id
 _symmetry_equiv_pos_as_xyz
  1  'x, y, z'
loop_
 _atom_site_type_symbol
 _atom_site_label
 _atom_site_symmetry_multiplicity
 _atom_site_fract_x
 _atom_site_fract_y
 _atom_site_fract_z
 _atom_site_occupancy
  Cs  Cs0  1  0.500000  0.000000  0.000000  1
  Cs  Cs1  1  0.000000  0.500000  0.000000  1
  Cs  Cs2  1  0.500000  0.500000  0.500000  1
  Cs  Cs3  1  0.000000  0.000000  0.500000  1
  Cu  Cu4  1  0.000000  0.000000  0.000000  1
  Cu  Cu5  1  0.500000  0.500000  0.000000  1
  S  S6  1  0.182816  0.424298  0.573076  1
  S  S7  1  0.817184  0.575702  0.573076  1
  S  S8  1  0.575702  0.182816  0.426924  1
  S  S9  1  0.424298  0.817184  0.426924  1
  S  S10  1  0.317184  0.924298  0.573076  1
  S  S11  1  0.075702  0.317184  0.426924  1
  S  S12  1  0.816713  0.950632  0.932312  1
  S  S13  1  0.049368  0.816713  0.067688  1
  S  S14  1  0.950632  0.183287  0.067688  1
  S  S15  1  0.183287  0.049368  0.932312  1
  S  S16  1  0.549368  0.683287  0.067688  1
  S  S17  1  0.450632  0.316713  0.067688  1
  S  S18  1  0.683287  0.450632  0.932312  1
  S  S19  1  0.316713  0.549368  0.932312  1
  S  S20  1  0.781448  0.205318  0.112163  1
  S  S21  1  0.794682  0.781448  0.887837  1
  S  S22  1  0.205318  0.218552  0.887837  1
  S  S23  1  0.218552  0.794682  0.112163  1
  S  S24  1  0.294682  0.718552  0.887837  1
  S  S25  1  0.705318  0.281448  0.887837  1
  S  S26  1  0.718552  0.705318  0.112163  1
  S  S27  1  0.281448  0.294682  0.112163  1
  S  S28  1  0.923885  0.314474  0.564166  1
  S  S29  1  0.685526  0.923885  0.435834  1
  S  S30  1  0.314474  0.076115  0.435834  1
  S  S31  1  0.076115  0.685526  0.564166  1
  S  S32  1  0.185526  0.576115  0.435834  1
  S  S33  1  0.814474  0.423885  0.435834  1
  S  S34  1  0.576115  0.814474  0.564166  1
  S  S35  1  0.423885  0.185526  0.564166  1
  S  S36  1  0.682816  0.075702  0.573076  1
  S  S37  1  0.924298  0.682816  0.426924  1
