# generated using pymatgen
data_Tb3Er8ThCo4
_symmetry_space_group_name_H-M   'P 1'
_cell_length_a   6.20887407
_cell_length_b   6.87991830
_cell_length_c   9.39903600
_cell_angle_alpha   90.00000000
_cell_angle_beta   90.00000000
_cell_angle_gamma   91.08791779
_symmetry_Int_Tables_number   1
_chemical_formula_structural   Tb3Er8ThCo4
_chemical_formula_sum   'Tb3 Er8 Th1 Co4'
_cell_volume   401.42198268
_cell_formula_units_Z   1
loop_
 _symmetry_equiv_pos_site_id
 _symmetry_equiv_pos_as_xyz
  1  'x, y, z'
loop_
 _atom_site_type_symbol
 _atom_site_label
 _atom_site_symmetry_multiplicity
 _atom_site_fract_x
 _atom_site_fract_y
 _atom_site_fract_z
 _atom_site_occupancy
  Tb  Tb0  1  0.638715  0.042143  0.250000  1
  Tb  Tb1  1  0.142812  0.456690  0.750000  1
  Tb  Tb2  1  0.358925  0.957249  0.750000  1
  Er  Er3  1  0.326999  0.674483  0.066959  1
  Er  Er4  1  0.173836  0.175194  0.431474  1
  Er  Er5  1  0.676430  0.324543  0.569011  1
  Er  Er6  1  0.823808  0.827664  0.930093  1
  Er  Er7  1  0.676430  0.324543  0.930989  1
  Er  Er8  1  0.823808  0.827664  0.569907  1
  Er  Er9  1  0.326999  0.674483  0.433041  1
  Er  Er10  1  0.173836  0.175194  0.068526  1
  Th  Th11  1  0.848839  0.553134  0.250000  1
  Co  Co12  1  0.044973  0.870773  0.250000  1
  Co  Co13  1  0.464054  0.389106  0.250000  1
  Co  Co14  1  0.951304  0.114322  0.750000  1
  Co  Co15  1  0.548232  0.612814  0.750000  1
