# generated using pymatgen
data_Ce4Ni3Sn2Au
_symmetry_space_group_name_H-M   'P 1'
_cell_length_a   7.56300500
_cell_length_b   7.56300587
_cell_length_c   3.67578100
_cell_angle_alpha   90.00000000
_cell_angle_beta   90.00000000
_cell_angle_gamma   90.52860857
_symmetry_Int_Tables_number   1
_chemical_formula_structural   Ce4Ni3Sn2Au
_chemical_formula_sum   'Ce4 Ni3 Sn2 Au1'
_cell_volume   210.24223769
_cell_formula_units_Z   1
loop_
 _symmetry_equiv_pos_site_id
 _symmetry_equiv_pos_as_xyz
  1  'x, y, z'
loop_
 _atom_site_type_symbol
 _atom_site_label
 _atom_site_symmetry_multiplicity
 _atom_site_fract_x
 _atom_site_fract_y
 _atom_site_fract_z
 _atom_site_occupancy
  Ce  Ce0  1  0.692180  0.177429  0.500000  1
  Ce  Ce1  1  0.322571  0.807820  0.500000  1
  Ce  Ce2  1  0.159263  0.340737  0.500000  1
  Ce  Ce3  1  0.821853  0.678147  0.500000  1
  Ni  Ni4  1  0.118860  0.627444  0.000000  1
  Ni  Ni5  1  0.872556  0.381140  0.000000  1
  Ni  Ni6  1  0.631135  0.868865  0.000000  1
  Sn  Sn7  1  0.998106  0.995612  0.000000  1
  Sn  Sn8  1  0.504388  0.501894  0.000000  1
  Au  Au9  1  0.379090  0.120910  0.000000  1
