# generated using pymatgen
data_K2Zn(IBr)2
_symmetry_space_group_name_H-M   'P 1'
_cell_length_a   7.14452703
_cell_length_b   7.14452781
_cell_length_c   11.54880500
_cell_angle_alpha   90.00000000
_cell_angle_beta   90.00000000
_cell_angle_gamma   109.03541572
_symmetry_Int_Tables_number   1
_chemical_formula_structural   K2Zn(IBr)2
_chemical_formula_sum   'K4 Zn2 I4 Br4'
_cell_volume   557.26478821
_cell_formula_units_Z   2
loop_
 _symmetry_equiv_pos_site_id
 _symmetry_equiv_pos_as_xyz
  1  'x, y, z'
loop_
 _atom_site_type_symbol
 _atom_site_label
 _atom_site_symmetry_multiplicity
 _atom_site_fract_x
 _atom_site_fract_y
 _atom_site_fract_z
 _atom_site_occupancy
  K  K0  1  0.614058  0.614058  0.500000  1
  K  K1  1  0.614058  0.614058  0.000000  1
  K  K2  1  0.249339  0.894917  0.250000  1
  K  K3  1  0.894917  0.249339  0.750000  1
  Zn  Zn4  1  0.847212  0.297341  0.250000  1
  Zn  Zn5  1  0.297341  0.847212  0.750000  1
  I  I6  1  0.044634  0.466316  0.436424  1
  I  I7  1  0.466316  0.044634  0.563576  1
  I  I8  1  0.044634  0.466316  0.063576  1
  I  I9  1  0.466316  0.044634  0.936424  1
  Br  Br10  1  0.526661  0.359942  0.250000  1
  Br  Br11  1  0.359942  0.526661  0.750000  1
  Br  Br12  1  0.776361  0.936209  0.250000  1
  Br  Br13  1  0.936209  0.776361  0.750000  1
