# generated using pymatgen
data_La4InSnPd4
_symmetry_space_group_name_H-M   'P 1'
_cell_length_a   3.97187100
_cell_length_b   7.95739419
_cell_length_c   7.95555619
_cell_angle_alpha   89.93735719
_cell_angle_beta   90.00000000
_cell_angle_gamma   90.00000000
_symmetry_Int_Tables_number   1
_chemical_formula_structural   La4InSnPd4
_chemical_formula_sum   'La4 In1 Sn1 Pd4'
_cell_volume   251.44111575
_cell_formula_units_Z   1
loop_
 _symmetry_equiv_pos_site_id
 _symmetry_equiv_pos_as_xyz
  1  'x, y, z'
loop_
 _atom_site_type_symbol
 _atom_site_label
 _atom_site_symmetry_multiplicity
 _atom_site_fract_x
 _atom_site_fract_y
 _atom_site_fract_z
 _atom_site_occupancy
  La  La0  1  0.500000  0.179763  0.674908  1
  La  La1  1  0.500000  0.820451  0.325003  1
  La  La2  1  0.500000  0.325008  0.179670  1
  La  La3  1  0.500000  0.674795  0.820325  1
  In  In4  1  0.000000  0.999457  0.000085  1
  Sn  Sn5  1  0.000000  0.500743  0.499560  1
  Pd  Pd6  1  0.000000  0.627017  0.126747  1
  Pd  Pd7  1  0.000000  0.372848  0.873488  1
  Pd  Pd8  1  0.000000  0.873262  0.627031  1
  Pd  Pd9  1  0.000000  0.126656  0.373184  1
