# generated using pymatgen
data_Tb3Er5In3Ru
_symmetry_space_group_name_H-M   'P 1'
_cell_length_a   10.36416703
_cell_length_b   10.36474701
_cell_length_c   7.05372400
_cell_angle_alpha   90.00000000
_cell_angle_beta   90.00000000
_cell_angle_gamma   119.98850872
_symmetry_Int_Tables_number   1
_chemical_formula_structural   Tb3Er5In3Ru
_chemical_formula_sum   'Tb6 Er10 In6 Ru2'
_cell_volume   656.28500346
_cell_formula_units_Z   2
loop_
 _symmetry_equiv_pos_site_id
 _symmetry_equiv_pos_as_xyz
  1  'x, y, z'
loop_
 _atom_site_type_symbol
 _atom_site_label
 _atom_site_symmetry_multiplicity
 _atom_site_fract_x
 _atom_site_fract_y
 _atom_site_fract_z
 _atom_site_occupancy
  Tb  Tb0  1  0.532894  0.065768  0.793961  1
  Tb  Tb1  1  0.934231  0.467128  0.793962  1
  Tb  Tb2  1  0.532919  0.467088  0.793899  1
  Tb  Tb3  1  0.467106  0.934232  0.293961  1
  Tb  Tb4  1  0.065769  0.532872  0.293962  1
  Tb  Tb5  1  0.467081  0.532912  0.293899  1
  Er  Er6  1  0.822924  0.645834  0.497867  1
  Er  Er7  1  0.354117  0.177029  0.497823  1
  Er  Er8  1  0.822883  0.177106  0.497857  1
  Er  Er9  1  0.177076  0.354166  0.997867  1
  Er  Er10  1  0.645883  0.822971  0.997823  1
  Er  Er11  1  0.177117  0.822894  0.997857  1
  Er  Er12  1  0.666673  0.333311  0.174677  1
  Er  Er13  1  0.333327  0.666689  0.674677  1
  Er  Er14  1  0.000001  0.000032  0.778579  1
  Er  Er15  1  0.999999  0.999968  0.278579  1
  In  In16  1  0.837557  0.675103  0.040544  1
  In  In17  1  0.324902  0.162450  0.040578  1
  In  In18  1  0.837558  0.162457  0.040625  1
  In  In19  1  0.162443  0.324897  0.540544  1
  In  In20  1  0.675098  0.837550  0.540578  1
  In  In21  1  0.162442  0.837543  0.540625  1
  Ru  Ru22  1  0.666657  0.333332  0.567583  1
  Ru  Ru23  1  0.333343  0.666668  0.067583  1
