# generated using pymatgen
data_Tb8Ti3Si16Mo8W
_symmetry_space_group_name_H-M   'P 1'
_cell_length_a   6.93025649
_cell_length_b   6.93025606
_cell_length_c   12.84612401
_cell_angle_alpha   89.97272330
_cell_angle_beta   90.02727823
_cell_angle_gamma   89.94082788
_symmetry_Int_Tables_number   1
_chemical_formula_structural   Tb8Ti3Si16Mo8W
_chemical_formula_sum   'Tb8 Ti3 Si16 Mo8 W1'
_cell_volume   616.97898166
_cell_formula_units_Z   1
loop_
 _symmetry_equiv_pos_site_id
 _symmetry_equiv_pos_as_xyz
  1  'x, y, z'
loop_
 _atom_site_type_symbol
 _atom_site_label
 _atom_site_symmetry_multiplicity
 _atom_site_fract_x
 _atom_site_fract_y
 _atom_site_fract_z
 _atom_site_occupancy
  Tb  Tb0  1  0.339648  0.002606  0.468494  1
  Tb  Tb1  1  0.496001  0.838803  0.719011  1
  Tb  Tb2  1  0.500006  0.161443  0.217011  1
  Tb  Tb3  1  0.838803  0.496001  0.280989  1
  Tb  Tb4  1  0.161443  0.500006  0.782989  1
  Tb  Tb5  1  0.659497  0.998789  0.968628  1
  Tb  Tb6  1  0.002606  0.339648  0.531506  1
  Tb  Tb7  1  0.998789  0.659497  0.031372  1
  Ti  Ti8  1  0.171395  0.831002  0.248273  1
  Ti  Ti9  1  0.831002  0.171395  0.751727  1
  Ti  Ti10  1  0.669484  0.669484  0.500000  1
  Si  Si11  1  0.199211  0.128402  0.684365  1
  Si  Si12  1  0.374472  0.696097  0.934841  1
  Si  Si13  1  0.628019  0.299904  0.434536  1
  Si  Si14  1  0.696097  0.374472  0.065159  1
  Si  Si15  1  0.299904  0.628019  0.565464  1
  Si  Si16  1  0.797704  0.872356  0.185151  1
  Si  Si17  1  0.128402  0.199211  0.315635  1
  Si  Si18  1  0.872356  0.797704  0.814849  1
  Si  Si19  1  0.287071  0.963649  0.061762  1
  Si  Si20  1  0.540660  0.790057  0.313987  1
  Si  Si21  1  0.458017  0.211449  0.814790  1
  Si  Si22  1  0.790057  0.540660  0.686013  1
  Si  Si23  1  0.211449  0.458017  0.185210  1
  Si  Si24  1  0.711339  0.041784  0.563823  1
  Si  Si25  1  0.963649  0.287071  0.938238  1
  Si  Si26  1  0.041784  0.711339  0.436177  1
  Mo  Mo27  1  0.157207  0.002835  0.873420  1
  Mo  Mo28  1  0.493765  0.665717  0.125418  1
  Mo  Mo29  1  0.506431  0.340460  0.625218  1
  Mo  Mo30  1  0.665717  0.493765  0.874582  1
  Mo  Mo31  1  0.340460  0.506431  0.374782  1
  Mo  Mo32  1  0.840357  0.993156  0.374611  1
  Mo  Mo33  1  0.002835  0.157207  0.126580  1
  Mo  Mo34  1  0.993156  0.840357  0.625389  1
  W  W35  1  0.331208  0.331208  0.000000  1
