# generated using pymatgen
data_Ce3Pr5(Si3Rh)4
_symmetry_space_group_name_H-M   'P 1'
_cell_length_a   8.26916300
_cell_length_b   8.26916342
_cell_length_c   8.36306000
_cell_angle_alpha   90.00000000
_cell_angle_beta   90.00000000
_cell_angle_gamma   119.99999432
_symmetry_Int_Tables_number   1
_chemical_formula_structural   Ce3Pr5(Si3Rh)4
_chemical_formula_sum   'Ce3 Pr5 Si12 Rh4'
_cell_volume   495.24374233
_cell_formula_units_Z   1
loop_
 _symmetry_equiv_pos_site_id
 _symmetry_equiv_pos_as_xyz
  1  'x, y, z'
loop_
 _atom_site_type_symbol
 _atom_site_label
 _atom_site_symmetry_multiplicity
 _atom_site_fract_x
 _atom_site_fract_y
 _atom_site_fract_z
 _atom_site_occupancy
  Ce  Ce0  1  0.498617  0.501383  0.750000  1
  Ce  Ce1  1  0.498617  0.997235  0.750000  1
  Ce  Ce2  1  0.002765  0.501383  0.750000  1
  Pr  Pr3  1  0.000000  0.000000  0.250000  1
  Pr  Pr4  1  0.000000  0.000000  0.750000  1
  Pr  Pr5  1  0.501070  0.498930  0.250000  1
  Pr  Pr6  1  0.501070  0.002140  0.250000  1
  Pr  Pr7  1  0.997860  0.498930  0.250000  1
  Si  Si8  1  0.166531  0.833469  0.503153  1
  Si  Si9  1  0.166531  0.333063  0.503153  1
  Si  Si10  1  0.666937  0.833469  0.503153  1
  Si  Si11  1  0.833407  0.166593  0.502546  1
  Si  Si12  1  0.833407  0.666812  0.502546  1
  Si  Si13  1  0.333188  0.166593  0.502546  1
  Si  Si14  1  0.833407  0.166593  0.997454  1
  Si  Si15  1  0.833407  0.666812  0.997454  1
  Si  Si16  1  0.333188  0.166593  0.997454  1
  Si  Si17  1  0.166531  0.833469  0.996847  1
  Si  Si18  1  0.166531  0.333063  0.996847  1
  Si  Si19  1  0.666937  0.833469  0.996847  1
  Rh  Rh20  1  0.333333  0.666667  0.514319  1
  Rh  Rh21  1  0.666667  0.333333  0.520427  1
  Rh  Rh22  1  0.666667  0.333333  0.979573  1
  Rh  Rh23  1  0.333333  0.666667  0.985681  1
