# generated using pymatgen
data_Dy3MgAg2C
_symmetry_space_group_name_H-M   'P 1'
_cell_length_a   9.37514101
_cell_length_b   9.37498144
_cell_length_c   9.37483100
_cell_angle_alpha   119.99777197
_cell_angle_beta   90.00288461
_cell_angle_gamma   120.00031257
_symmetry_Int_Tables_number   1
_chemical_formula_structural   Dy3MgAg2C
_chemical_formula_sum   'Dy12 Mg4 Ag8 C4'
_cell_volume   582.63734172
_cell_formula_units_Z   4
loop_
 _symmetry_equiv_pos_site_id
 _symmetry_equiv_pos_as_xyz
  1  'x, y, z'
loop_
 _atom_site_type_symbol
 _atom_site_label
 _atom_site_symmetry_multiplicity
 _atom_site_fract_x
 _atom_site_fract_y
 _atom_site_fract_z
 _atom_site_occupancy
  Dy  Dy0  1  0.935228  0.370463  0.185225  1
  Dy  Dy1  1  0.935229  0.750002  0.185217  1
  Dy  Dy2  1  0.314771  0.750017  0.185245  1
  Dy  Dy3  1  0.685206  0.249988  0.435217  1
  Dy  Dy4  1  0.685231  0.870462  0.435243  1
  Dy  Dy5  1  0.064765  0.250010  0.435244  1
  Dy  Dy6  1  0.314777  0.129533  0.564768  1
  Dy  Dy7  1  0.314787  0.750005  0.564783  1
  Dy  Dy8  1  0.935222  0.749980  0.564741  1
  Dy  Dy9  1  0.685239  0.250004  0.814773  1
  Dy  Dy10  1  0.064784  0.629539  0.814773  1
  Dy  Dy11  1  0.064767  0.250005  0.814777  1
  Mg  Mg12  1  0.999997  0.000001  0.999999  1
  Mg  Mg13  1  0.499993  0.999998  0.000001  1
  Mg  Mg14  1  0.499980  0.499992  0.999990  1
  Mg  Mg15  1  0.500001  0.500005  0.500009  1
  Ag  Ag16  1  0.707003  0.913960  0.120941  1
  Ag  Ag17  1  0.293051  0.086040  0.207003  1
  Ag  Ag18  1  0.293022  0.413991  0.206989  1
  Ag  Ag19  1  0.621002  0.414016  0.207017  1
  Ag  Ag20  1  0.379006  0.585987  0.792970  1
  Ag  Ag21  1  0.706982  0.586000  0.793001  1
  Ag  Ag22  1  0.706962  0.913985  0.793019  1
  Ag  Ag23  1  0.292981  0.086017  0.879049  1
  C  C24  1  0.000012  0.500008  0.000004  1
  C  C25  1  0.000000  0.999999  0.499996  1
  C  C26  1  0.500012  0.000010  0.500017  1
  C  C27  1  0.999997  0.499997  0.499995  1
