# generated using pymatgen
data_SnHg2WO7
_symmetry_space_group_name_H-M   'P 1'
_cell_length_a   7.51541690
_cell_length_b   7.51541744
_cell_length_c   7.52697200
_cell_angle_alpha   59.94912861
_cell_angle_beta   59.94912620
_cell_angle_gamma   59.73287834
_symmetry_Int_Tables_number   1
_chemical_formula_structural   SnHg2WO7
_chemical_formula_sum   'Sn2 Hg4 W2 O14'
_cell_volume   299.77405327
_cell_formula_units_Z   2
loop_
 _symmetry_equiv_pos_site_id
 _symmetry_equiv_pos_as_xyz
  1  'x, y, z'
loop_
 _atom_site_type_symbol
 _atom_site_label
 _atom_site_symmetry_multiplicity
 _atom_site_fract_x
 _atom_site_fract_y
 _atom_site_fract_z
 _atom_site_occupancy
  Sn  Sn0  1  0.625000  0.125000  0.625000  1
  Sn  Sn1  1  0.125000  0.625000  0.625000  1
  Hg  Hg2  1  0.125000  0.125000  0.125000  1
  Hg  Hg3  1  0.625000  0.125000  0.125000  1
  Hg  Hg4  1  0.125000  0.625000  0.125000  1
  Hg  Hg5  1  0.125000  0.125000  0.625000  1
  W  W6  1  0.625000  0.625000  0.125000  1
  W  W7  1  0.625000  0.625000  0.625000  1
  O  O8  1  0.685484  0.318766  0.297545  1
  O  O9  1  0.685484  0.318766  0.698205  1
  O  O10  1  0.989704  0.989704  0.010296  1
  O  O11  1  0.318766  0.685484  0.297545  1
  O  O12  1  0.676124  0.676124  0.323876  1
  O  O13  1  0.931234  0.564516  0.551795  1
  O  O14  1  0.318766  0.685484  0.698205  1
  O  O15  1  0.260296  0.260296  0.239704  1
  O  O16  1  0.931234  0.564516  0.952455  1
  O  O17  1  0.564516  0.931234  0.551795  1
  O  O18  1  0.573876  0.573876  0.926124  1
  O  O19  1  0.959204  0.959204  0.540796  1
  O  O20  1  0.564516  0.931234  0.952455  1
  O  O21  1  0.290796  0.290796  0.709204  1
