# generated using pymatgen
data_Sr2Bi2Pt3RhO14
_symmetry_space_group_name_H-M   'P 1'
_cell_length_a   7.51092289
_cell_length_b   7.43245710
_cell_length_c   7.41414725
_cell_angle_alpha   58.99729141
_cell_angle_beta   59.56727801
_cell_angle_gamma   59.65016227
_symmetry_Int_Tables_number   1
_chemical_formula_structural   Sr2Bi2Pt3RhO14
_chemical_formula_sum   'Sr2 Bi2 Pt3 Rh1 O14'
_cell_volume   288.68003183
_cell_formula_units_Z   1
loop_
 _symmetry_equiv_pos_site_id
 _symmetry_equiv_pos_as_xyz
  1  'x, y, z'
loop_
 _atom_site_type_symbol
 _atom_site_label
 _atom_site_symmetry_multiplicity
 _atom_site_fract_x
 _atom_site_fract_y
 _atom_site_fract_z
 _atom_site_occupancy
  Sr  Sr0  1  0.125000  0.625000  0.125000  1
  Sr  Sr1  1  0.125000  0.125000  0.625000  1
  Bi  Bi2  1  0.125000  0.125000  0.125000  1
  Bi  Bi3  1  0.625000  0.125000  0.125000  1
  Pt  Pt4  1  0.625000  0.625000  0.625000  1
  Pt  Pt5  1  0.625000  0.625000  0.125000  1
  Pt  Pt6  1  0.125000  0.625000  0.625000  1
  Rh  Rh7  1  0.625000  0.125000  0.625000  1
  O  O8  1  0.268934  0.231729  0.230403  1
  O  O9  1  0.295376  0.712809  0.290736  1
  O  O10  1  0.953395  0.957183  0.537946  1
  O  O11  1  0.551476  0.957183  0.537946  1
  O  O12  1  0.701079  0.712809  0.290736  1
  O  O13  1  0.953273  0.546842  0.546612  1
  O  O14  1  0.698524  0.292817  0.712054  1
  O  O15  1  0.296605  0.292817  0.712054  1
  O  O16  1  0.704407  0.295509  0.295676  1
  O  O17  1  0.296727  0.703158  0.703388  1
  O  O18  1  0.954624  0.537191  0.959264  1
  O  O19  1  0.548921  0.537191  0.959264  1
  O  O20  1  0.981066  0.018271  0.019597  1
  O  O21  1  0.545593  0.954491  0.954324  1
