# generated using pymatgen
data_Dy6Fe5P12Ir13
_symmetry_space_group_name_H-M   'P 1'
_cell_length_a   3.88023000
_cell_length_b   11.16442500
_cell_length_c   12.56267000
_cell_angle_alpha   90.00000000
_cell_angle_beta   90.00000000
_cell_angle_gamma   90.00000000
_symmetry_Int_Tables_number   1
_chemical_formula_structural   Dy6Fe5P12Ir13
_chemical_formula_sum   'Dy6 Fe5 P12 Ir13'
_cell_volume   544.22160826
_cell_formula_units_Z   1
loop_
 _symmetry_equiv_pos_site_id
 _symmetry_equiv_pos_as_xyz
  1  'x, y, z'
loop_
 _atom_site_type_symbol
 _atom_site_label
 _atom_site_symmetry_multiplicity
 _atom_site_fract_x
 _atom_site_fract_y
 _atom_site_fract_z
 _atom_site_occupancy
  Dy  Dy0  1  0.000000  0.500000  0.518020  1
  Dy  Dy1  1  0.500000  0.000000  0.479404  1
  Dy  Dy2  1  0.500000  0.816473  0.197421  1
  Dy  Dy3  1  0.500000  0.183527  0.197421  1
  Dy  Dy4  1  0.000000  0.673841  0.802570  1
  Dy  Dy5  1  0.000000  0.326159  0.802570  1
  Fe  Fe6  1  0.500000  0.500000  0.157523  1
  Fe  Fe7  1  0.000000  0.500000  0.989097  1
  Fe  Fe8  1  0.500000  0.000000  0.000754  1
  Fe  Fe9  1  0.500000  0.338456  0.998493  1
  Fe  Fe10  1  0.500000  0.661544  0.998493  1
  P  P11  1  0.500000  0.500000  0.894819  1
  P  P12  1  0.000000  0.000000  0.112745  1
  P  P13  1  0.500000  0.500000  0.338879  1
  P  P14  1  0.000000  0.000000  0.650661  1
  P  P15  1  0.500000  0.315041  0.621767  1
  P  P16  1  0.500000  0.684959  0.621767  1
  P  P17  1  0.000000  0.186169  0.378187  1
  P  P18  1  0.000000  0.813831  0.378187  1
  P  P19  1  0.500000  0.833256  0.901036  1
  P  P20  1  0.500000  0.166744  0.901036  1
  P  P21  1  0.000000  0.648433  0.098359  1
  P  P22  1  0.000000  0.351567  0.098359  1
  Ir  Ir23  1  0.000000  0.000000  0.837159  1
  Ir  Ir24  1  0.500000  0.500000  0.703584  1
  Ir  Ir25  1  0.000000  0.000000  0.296672  1
  Ir  Ir26  1  0.000000  0.167597  0.006236  1
  Ir  Ir27  1  0.000000  0.832403  0.006236  1
  Ir  Ir28  1  0.500000  0.291011  0.430001  1
  Ir  Ir29  1  0.500000  0.708989  0.430001  1
  Ir  Ir30  1  0.000000  0.205784  0.574211  1
  Ir  Ir31  1  0.000000  0.794216  0.574211  1
  Ir  Ir32  1  0.500000  0.871573  0.719649  1
  Ir  Ir33  1  0.500000  0.128427  0.719649  1
  Ir  Ir34  1  0.000000  0.626793  0.282412  1
  Ir  Ir35  1  0.000000  0.373207  0.282412  1
