# generated using pymatgen
data_Dy2Si4As(PRh6)2
_symmetry_space_group_name_H-M   'P 1'
_cell_length_a   9.77494272
_cell_length_b   9.76578483
_cell_length_c   3.83079206
_cell_angle_alpha   89.96821831
_cell_angle_beta   90.04931517
_cell_angle_gamma   119.83496949
_symmetry_Int_Tables_number   1
_chemical_formula_structural   Dy2Si4As(PRh6)2
_chemical_formula_sum   'Dy2 Si4 As1 P2 Rh12'
_cell_volume   317.21975903
_cell_formula_units_Z   1
loop_
 _symmetry_equiv_pos_site_id
 _symmetry_equiv_pos_as_xyz
  1  'x, y, z'
loop_
 _atom_site_type_symbol
 _atom_site_label
 _atom_site_symmetry_multiplicity
 _atom_site_fract_x
 _atom_site_fract_y
 _atom_site_fract_z
 _atom_site_occupancy
  Dy  Dy0  1  0.333054  0.665882  0.740647  1
  Dy  Dy1  1  0.665955  0.334734  0.241378  1
  Si  Si2  1  0.402052  0.290297  0.741105  1
  Si  Si3  1  0.710364  0.114356  0.742073  1
  Si  Si4  1  0.885464  0.597829  0.741304  1
  Si  Si5  1  0.597489  0.707038  0.240752  1
  As  As6  1  0.000269  0.997240  0.678918  1
  P  P7  1  0.292491  0.888149  0.239417  1
  P  P8  1  0.111639  0.402204  0.240299  1
  Rh  Rh9  1  0.446611  0.068262  0.741423  1
  Rh  Rh10  1  0.933557  0.381097  0.741712  1
  Rh  Rh11  1  0.619888  0.554746  0.741540  1
  Rh  Rh12  1  0.551597  0.937873  0.241191  1
  Rh  Rh13  1  0.064899  0.614992  0.240193  1
  Rh  Rh14  1  0.378738  0.443796  0.240134  1
  Rh  Rh15  1  0.149462  0.275752  0.740953  1
  Rh  Rh16  1  0.723993  0.876772  0.740905  1
  Rh  Rh17  1  0.128854  0.845242  0.739578  1
  Rh  Rh18  1  0.863108  0.745619  0.242268  1
  Rh  Rh19  1  0.256707  0.111658  0.241351  1
  Rh  Rh20  1  0.883809  0.146462  0.242860  1
