# generated using pymatgen
data_Gd4Dy3Tm(ReB6)4
_symmetry_space_group_name_H-M   'P 1'
_cell_length_a   3.69164800
_cell_length_b   9.19057702
_cell_length_c   11.58813303
_cell_angle_alpha   90.00776392
_cell_angle_beta   90.00000000
_cell_angle_gamma   90.00000000
_symmetry_Int_Tables_number   1
_chemical_formula_structural   Gd4Dy3Tm(ReB6)4
_chemical_formula_sum   'Gd4 Dy3 Tm1 Re4 B24'
_cell_volume   393.16652250
_cell_formula_units_Z   1
loop_
 _symmetry_equiv_pos_site_id
 _symmetry_equiv_pos_as_xyz
  1  'x, y, z'
loop_
 _atom_site_type_symbol
 _atom_site_label
 _atom_site_symmetry_multiplicity
 _atom_site_fract_x
 _atom_site_fract_y
 _atom_site_fract_z
 _atom_site_occupancy
  Gd  Gd0  1  0.000000  0.323583  0.414069  1
  Gd  Gd1  1  0.000000  0.676364  0.586218  1
  Gd  Gd2  1  0.000000  0.823291  0.085820  1
  Gd  Gd3  1  0.000000  0.176585  0.914008  1
  Dy  Dy4  1  0.000000  0.943034  0.369577  1
  Dy  Dy5  1  0.000000  0.057004  0.630671  1
  Dy  Dy6  1  0.000000  0.443248  0.129800  1
  Tm  Tm7  1  0.000000  0.557108  0.869204  1
  Re  Re8  1  0.000000  0.638991  0.320160  1
  Re  Re9  1  0.000000  0.361611  0.680308  1
  Re  Re10  1  0.000000  0.139116  0.179366  1
  Re  Re11  1  0.000000  0.859854  0.820589  1
  B  B12  1  0.500000  0.553730  0.432452  1
  B  B13  1  0.500000  0.446410  0.567901  1
  B  B14  1  0.500000  0.053606  0.067487  1
  B  B15  1  0.500000  0.945806  0.932370  1
  B  B16  1  0.500000  0.749081  0.417944  1
  B  B17  1  0.500000  0.251131  0.582241  1
  B  B18  1  0.500000  0.249199  0.081972  1
  B  B19  1  0.500000  0.749603  0.917985  1
  B  B20  1  0.500000  0.791835  0.265333  1
  B  B21  1  0.500000  0.208600  0.734792  1
  B  B22  1  0.500000  0.291944  0.234529  1
  B  B23  1  0.500000  0.707187  0.765687  1
  B  B24  1  0.500000  0.630821  0.185656  1
  B  B25  1  0.500000  0.370096  0.814759  1
  B  B26  1  0.500000  0.130924  0.314162  1
  B  B27  1  0.500000  0.868805  0.686062  1
  B  B28  1  0.500000  0.983109  0.211921  1
  B  B29  1  0.500000  0.016605  0.788207  1
  B  B30  1  0.500000  0.483064  0.287957  1
  B  B31  1  0.500000  0.517514  0.712656  1
  B  B32  1  0.500000  0.598765  0.026400  1
  B  B33  1  0.500000  0.402316  0.971597  1
  B  B34  1  0.500000  0.099223  0.472450  1
  B  B35  1  0.500000  0.900839  0.527691  1
