# generated using pymatgen
data_Na(PrSn4)3
_symmetry_space_group_name_H-M   'P 1'
_cell_length_a   11.97716407
_cell_length_b   11.97716406
_cell_length_c   11.97716409
_cell_angle_alpha   32.48885449
_cell_angle_beta   32.48885565
_cell_angle_gamma   32.48886030
_symmetry_Int_Tables_number   1
_chemical_formula_structural   Na(PrSn4)3
_chemical_formula_sum   'Na1 Pr3 Sn12'
_cell_volume   440.77892074
_cell_formula_units_Z   1
loop_
 _symmetry_equiv_pos_site_id
 _symmetry_equiv_pos_as_xyz
  1  'x, y, z'
loop_
 _atom_site_type_symbol
 _atom_site_label
 _atom_site_symmetry_multiplicity
 _atom_site_fract_x
 _atom_site_fract_y
 _atom_site_fract_z
 _atom_site_occupancy
  Na  Na0  1  0.290793  0.290793  0.290793  1
  Pr  Pr1  1  0.876747  0.876747  0.876747  1
  Pr  Pr2  1  0.123329  0.123329  0.123329  1
  Pr  Pr3  1  0.708049  0.708049  0.708049  1
  Sn  Sn4  1  0.291249  0.793424  0.793424  1
  Sn  Sn5  1  0.793424  0.793424  0.291249  1
  Sn  Sn6  1  0.857617  0.384479  0.384479  1
  Sn  Sn7  1  0.384479  0.384479  0.857617  1
  Sn  Sn8  1  0.384479  0.857617  0.384479  1
  Sn  Sn9  1  0.617185  0.141739  0.617185  1
  Sn  Sn10  1  0.141739  0.617185  0.617185  1
  Sn  Sn11  1  0.617185  0.617185  0.141739  1
  Sn  Sn12  1  0.793424  0.291249  0.793424  1
  Sn  Sn13  1  0.210025  0.700254  0.210025  1
  Sn  Sn14  1  0.210025  0.210025  0.700254  1
  Sn  Sn15  1  0.700254  0.210025  0.210025  1
