# generated using pymatgen
data_Sc4TcB12Ru
_symmetry_space_group_name_H-M   'P 1'
_cell_length_a   3.49935800
_cell_length_b   8.88470083
_cell_length_c   11.19451093
_cell_angle_alpha   89.87779028
_cell_angle_beta   90.00000000
_cell_angle_gamma   90.00000000
_symmetry_Int_Tables_number   1
_chemical_formula_structural   Sc4TcB12Ru
_chemical_formula_sum   'Sc8 Tc2 B24 Ru2'
_cell_volume   348.04493686
_cell_formula_units_Z   2
loop_
 _symmetry_equiv_pos_site_id
 _symmetry_equiv_pos_as_xyz
  1  'x, y, z'
loop_
 _atom_site_type_symbol
 _atom_site_label
 _atom_site_symmetry_multiplicity
 _atom_site_fract_x
 _atom_site_fract_y
 _atom_site_fract_z
 _atom_site_occupancy
  Sc  Sc0  1  0.000000  0.817484  0.087518  1
  Sc  Sc1  1  0.000000  0.182516  0.912482  1
  Sc  Sc2  1  0.000000  0.323190  0.415656  1
  Sc  Sc3  1  0.000000  0.676810  0.584344  1
  Sc  Sc4  1  0.000000  0.444399  0.128770  1
  Sc  Sc5  1  0.000000  0.555601  0.871230  1
  Sc  Sc6  1  0.000000  0.943211  0.371596  1
  Sc  Sc7  1  0.000000  0.056789  0.628404  1
  Tc  Tc8  1  0.000000  0.638928  0.319862  1
  Tc  Tc9  1  0.000000  0.361072  0.680138  1
  B  B10  1  0.500000  0.053737  0.064811  1
  B  B11  1  0.500000  0.946263  0.935189  1
  B  B12  1  0.500000  0.553105  0.434971  1
  B  B13  1  0.500000  0.446895  0.565029  1
  B  B14  1  0.500000  0.252615  0.079149  1
  B  B15  1  0.500000  0.747385  0.920851  1
  B  B16  1  0.500000  0.752674  0.421229  1
  B  B17  1  0.500000  0.247326  0.578771  1
  B  B18  1  0.500000  0.293927  0.236145  1
  B  B19  1  0.500000  0.706073  0.763855  1
  B  B20  1  0.500000  0.795095  0.263452  1
  B  B21  1  0.500000  0.204905  0.736548  1
  B  B22  1  0.500000  0.130037  0.317538  1
  B  B23  1  0.500000  0.869963  0.682462  1
  B  B24  1  0.500000  0.630289  0.181908  1
  B  B25  1  0.500000  0.369711  0.818092  1
  B  B26  1  0.500000  0.479122  0.287362  1
  B  B27  1  0.500000  0.520878  0.712638  1
  B  B28  1  0.500000  0.980151  0.212322  1
  B  B29  1  0.500000  0.019849  0.787678  1
  B  B30  1  0.500000  0.099772  0.472476  1
  B  B31  1  0.500000  0.900228  0.527524  1
  B  B32  1  0.500000  0.600066  0.027206  1
  B  B33  1  0.500000  0.399934  0.972794  1
  Ru  Ru34  1  0.000000  0.138863  0.179223  1
  Ru  Ru35  1  0.000000  0.861137  0.820777  1
