# generated using pymatgen
data_Hf2AlH
_symmetry_space_group_name_H-M   'P 1'
_cell_length_a   5.52110886
_cell_length_b   5.52110767
_cell_length_c   5.52110854
_cell_angle_alpha   104.06453903
_cell_angle_beta   104.06453732
_cell_angle_gamma   120.92867915
_symmetry_Int_Tables_number   1
_chemical_formula_structural   Hf2AlH
_chemical_formula_sum   'Hf4 Al2 H2'
_cell_volume   125.60660993
_cell_formula_units_Z   2
loop_
 _symmetry_equiv_pos_site_id
 _symmetry_equiv_pos_as_xyz
  1  'x, y, z'
loop_
 _atom_site_type_symbol
 _atom_site_label
 _atom_site_symmetry_multiplicity
 _atom_site_fract_x
 _atom_site_fract_y
 _atom_site_fract_z
 _atom_site_occupancy
  Hf  Hf0  1  0.159864  0.659864  0.819729  1
  Hf  Hf1  1  0.840136  0.340136  0.180271  1
  Hf  Hf2  1  0.340136  0.159864  0.500000  1
  Hf  Hf3  1  0.659864  0.840136  0.500000  1
  Al  Al4  1  0.250000  0.250000  0.000000  1
  Al  Al5  1  0.750000  0.750000  0.000000  1
  H  H6  1  0.750000  0.250000  0.500000  1
  H  H7  1  0.250000  0.750000  0.500000  1
