# generated using pymatgen
data_Tb8Nb11Si16Hg
_symmetry_space_group_name_H-M   'P 1'
_cell_length_a   7.10596983
_cell_length_b   7.10597001
_cell_length_c   13.09751019
_cell_angle_alpha   90.24992204
_cell_angle_beta   89.75007740
_cell_angle_gamma   89.72968390
_symmetry_Int_Tables_number   1
_chemical_formula_structural   Tb8Nb11Si16Hg
_chemical_formula_sum   'Tb8 Nb11 Si16 Hg1'
_cell_volume   661.33626519
_cell_formula_units_Z   1
loop_
 _symmetry_equiv_pos_site_id
 _symmetry_equiv_pos_as_xyz
  1  'x, y, z'
loop_
 _atom_site_type_symbol
 _atom_site_label
 _atom_site_symmetry_multiplicity
 _atom_site_fract_x
 _atom_site_fract_y
 _atom_site_fract_z
 _atom_site_occupancy
  Tb  Tb0  1  0.342494  0.001577  0.466753  1
  Tb  Tb1  1  0.497264  0.840540  0.716114  1
  Tb  Tb2  1  0.503315  0.157401  0.216492  1
  Tb  Tb3  1  0.840540  0.497264  0.283886  1
  Tb  Tb4  1  0.157401  0.503315  0.783508  1
  Tb  Tb5  1  0.655245  0.001057  0.967215  1
  Tb  Tb6  1  0.001577  0.342494  0.533247  1
  Tb  Tb7  1  0.001057  0.655245  0.032785  1
  Nb  Nb8  1  0.170438  0.827636  0.250781  1
  Nb  Nb9  1  0.827636  0.170438  0.749219  1
  Nb  Nb10  1  0.671294  0.671294  0.500000  1
  Nb  Nb11  1  0.151208  0.008849  0.876084  1
  Nb  Nb12  1  0.497489  0.652041  0.123022  1
  Nb  Nb13  1  0.505092  0.349878  0.623313  1
  Nb  Nb14  1  0.652041  0.497489  0.876978  1
  Nb  Nb15  1  0.349878  0.505092  0.376687  1
  Nb  Nb16  1  0.847175  0.990563  0.373167  1
  Nb  Nb17  1  0.008849  0.151208  0.123916  1
  Nb  Nb18  1  0.990563  0.847175  0.626833  1
  Si  Si19  1  0.201714  0.134400  0.683253  1
  Si  Si20  1  0.372765  0.723301  0.928006  1
  Si  Si21  1  0.633893  0.293622  0.432581  1
  Si  Si22  1  0.723301  0.372765  0.071994  1
  Si  Si23  1  0.293622  0.633893  0.567419  1
  Si  Si24  1  0.796875  0.866347  0.182054  1
  Si  Si25  1  0.134400  0.201714  0.316747  1
  Si  Si26  1  0.866347  0.796875  0.817946  1
  Si  Si27  1  0.286988  0.936158  0.065791  1
  Si  Si28  1  0.544457  0.791679  0.312159  1
  Si  Si29  1  0.458488  0.205307  0.805975  1
  Si  Si30  1  0.791679  0.544457  0.687841  1
  Si  Si31  1  0.205307  0.458488  0.194025  1
  Si  Si32  1  0.707144  0.046001  0.562568  1
  Si  Si33  1  0.936158  0.286988  0.934209  1
  Si  Si34  1  0.046001  0.707144  0.437432  1
  Hg  Hg35  1  0.330304  0.330304  0.000000  1
