# generated using pymatgen
data_Tb2Er4GaCo2
_symmetry_space_group_name_H-M   'P 1'
_cell_length_a   8.21567397
_cell_length_b   8.21567424
_cell_length_c   8.21567370
_cell_angle_alpha   106.92250577
_cell_angle_beta   109.21732104
_cell_angle_gamma   112.31942724
_symmetry_Int_Tables_number   1
_chemical_formula_structural   Tb2Er4GaCo2
_chemical_formula_sum   'Tb4 Er8 Ga2 Co4'
_cell_volume   425.92415819
_cell_formula_units_Z   2
loop_
 _symmetry_equiv_pos_site_id
 _symmetry_equiv_pos_as_xyz
  1  'x, y, z'
loop_
 _atom_site_type_symbol
 _atom_site_label
 _atom_site_symmetry_multiplicity
 _atom_site_fract_x
 _atom_site_fract_y
 _atom_site_fract_z
 _atom_site_occupancy
  Tb  Tb0  1  0.698675  0.261567  0.960242  1
  Tb  Tb1  1  0.301325  0.738433  0.039758  1
  Tb  Tb2  1  0.698675  0.738433  0.437109  1
  Tb  Tb3  1  0.301325  0.261567  0.562891  1
  Er  Er4  1  0.811188  0.138609  0.327422  1
  Er  Er5  1  0.811188  0.483766  0.672578  1
  Er  Er6  1  0.188812  0.861391  0.672578  1
  Er  Er7  1  0.188812  0.516234  0.327422  1
  Er  Er8  1  0.601786  0.781013  0.820773  1
  Er  Er9  1  0.960239  0.781013  0.179227  1
  Er  Er10  1  0.039761  0.218987  0.820773  1
  Er  Er11  1  0.398214  0.218987  0.179227  1
  Ga  Ga12  1  0.500000  0.500000  0.000000  1
  Ga  Ga13  1  0.500000  0.000000  0.500000  1
  Co  Co14  1  0.839584  0.500000  0.339584  1
  Co  Co15  1  0.160416  0.500000  0.660416  1
  Co  Co16  1  0.000000  0.115323  0.115323  1
  Co  Co17  1  0.000000  0.884677  0.884677  1
