# generated using pymatgen
data_Lu11Hg9Rh4
_symmetry_space_group_name_H-M   'P 1'
_cell_length_a   3.57634600
_cell_length_b   12.68712596
_cell_length_c   12.68712600
_cell_angle_alpha   112.28615739
_cell_angle_beta   90.00000000
_cell_angle_gamma   90.00000000
_symmetry_Int_Tables_number   1
_chemical_formula_structural   Lu11Hg9Rh4
_chemical_formula_sum   'Lu11 Hg9 Rh4'
_cell_volume   532.65896073
_cell_formula_units_Z   1
loop_
 _symmetry_equiv_pos_site_id
 _symmetry_equiv_pos_as_xyz
  1  'x, y, z'
loop_
 _atom_site_type_symbol
 _atom_site_label
 _atom_site_symmetry_multiplicity
 _atom_site_fract_x
 _atom_site_fract_y
 _atom_site_fract_z
 _atom_site_occupancy
  Lu  Lu0  1  0.000000  0.916627  0.582768  1
  Lu  Lu1  1  0.000000  0.083373  0.417232  1
  Lu  Lu2  1  0.000000  0.582768  0.916627  1
  Lu  Lu3  1  0.000000  0.417232  0.083373  1
  Lu  Lu4  1  0.000000  0.166535  0.833465  1
  Lu  Lu5  1  0.000000  0.833465  0.166535  1
  Lu  Lu6  1  0.000000  0.365848  0.634152  1
  Lu  Lu7  1  0.000000  0.634152  0.365848  1
  Lu  Lu8  1  0.000000  0.703093  0.703093  1
  Lu  Lu9  1  0.000000  0.296907  0.296907  1
  Lu  Lu10  1  0.000000  0.000000  0.000000  1
  Hg  Hg11  1  0.500000  0.147171  0.630843  1
  Hg  Hg12  1  0.500000  0.852829  0.369157  1
  Hg  Hg13  1  0.500000  0.630843  0.147171  1
  Hg  Hg14  1  0.500000  0.369157  0.852829  1
  Hg  Hg15  1  0.500000  0.939140  0.786934  1
  Hg  Hg16  1  0.500000  0.060860  0.213066  1
  Hg  Hg17  1  0.500000  0.786934  0.939140  1
  Hg  Hg18  1  0.500000  0.213066  0.060860  1
  Hg  Hg19  1  0.500000  0.500000  0.500000  1
  Rh  Rh20  1  0.500000  0.741468  0.548288  1
  Rh  Rh21  1  0.500000  0.258532  0.451712  1
  Rh  Rh22  1  0.500000  0.548288  0.741468  1
  Rh  Rh23  1  0.500000  0.451712  0.258532  1
