# generated using pymatgen
data_SrLaThZrSb5
_symmetry_space_group_name_H-M   'P 1'
_cell_length_a   9.70539100
_cell_length_b   9.67176846
_cell_length_c   6.31710600
_cell_angle_alpha   90.00000000
_cell_angle_beta   90.00000000
_cell_angle_gamma   120.42689731
_symmetry_Int_Tables_number   1
_chemical_formula_structural   SrLaThZrSb5
_chemical_formula_sum   'Sr2 La2 Th2 Zr2 Sb10'
_cell_volume   511.30895576
_cell_formula_units_Z   2
loop_
 _symmetry_equiv_pos_site_id
 _symmetry_equiv_pos_as_xyz
  1  'x, y, z'
loop_
 _atom_site_type_symbol
 _atom_site_label
 _atom_site_symmetry_multiplicity
 _atom_site_fract_x
 _atom_site_fract_y
 _atom_site_fract_z
 _atom_site_occupancy
  Sr  Sr0  1  0.996190  0.612131  0.250000  1
  Sr  Sr1  1  0.003810  0.387869  0.750000  1
  La  La2  1  0.379164  0.385583  0.250000  1
  La  La3  1  0.620836  0.614417  0.750000  1
  Th  Th4  1  0.627829  0.008685  0.250000  1
  Th  Th5  1  0.372171  0.991315  0.750000  1
  Zr  Zr6  1  0.000000  0.000000  0.000000  1
  Zr  Zr7  1  0.000000  0.000000  0.500000  1
  Sb  Sb8  1  0.265778  0.003395  0.250000  1
  Sb  Sb9  1  0.734222  0.996605  0.750000  1
  Sb  Sb10  1  0.001803  0.259107  0.250000  1
  Sb  Sb11  1  0.998197  0.740893  0.750000  1
  Sb  Sb12  1  0.736618  0.742388  0.250000  1
  Sb  Sb13  1  0.263382  0.257612  0.750000  1
  Sb  Sb14  1  0.349122  0.680836  0.001759  1
  Sb  Sb15  1  0.650878  0.319164  0.998241  1
  Sb  Sb16  1  0.650878  0.319164  0.501759  1
  Sb  Sb17  1  0.349122  0.680836  0.498241  1
