# generated using pymatgen
data_LaTa3(PO4)6
_symmetry_space_group_name_H-M   'P 1'
_cell_length_a   8.89063068
_cell_length_b   9.14081081
_cell_length_c   8.89046600
_cell_angle_alpha   89.99809449
_cell_angle_beta   59.99882678
_cell_angle_gamma   119.09696145
_symmetry_Int_Tables_number   1
_chemical_formula_structural   LaTa3(PO4)6
_chemical_formula_sum   'La1 Ta3 P6 O24'
_cell_volume   517.73486693
_cell_formula_units_Z   1
loop_
 _symmetry_equiv_pos_site_id
 _symmetry_equiv_pos_as_xyz
  1  'x, y, z'
loop_
 _atom_site_type_symbol
 _atom_site_label
 _atom_site_symmetry_multiplicity
 _atom_site_fract_x
 _atom_site_fract_y
 _atom_site_fract_z
 _atom_site_occupancy
  La  La0  1  0.734872  0.102253  0.632513  1
  Ta  Ta1  1  0.282458  0.923576  0.358766  1
  Ta  Ta2  1  0.286391  0.429483  0.856786  1
  Ta  Ta3  1  0.717767  0.576550  0.141061  1
  P  P4  1  0.789015  0.746465  0.749437  1
  P  P5  1  0.468074  0.251889  0.533573  1
  P  P6  1  0.496075  0.746491  0.461410  1
  P  P7  1  0.250314  0.251900  0.216082  1
  P  P8  1  0.785599  0.251903  0.998276  1
  P  P9  1  0.208081  0.746476  0.042451  1
  O  O10  1  0.660758  0.905579  0.465679  1
  O  O11  1  0.986221  0.706645  0.117754  1
  O  O12  1  0.214036  0.581596  0.003527  1
  O  O13  1  0.237329  0.777517  0.202364  1
  O  O14  1  0.989577  0.270145  0.948687  1
  O  O15  1  0.803918  0.416159  0.053812  1
  O  O16  1  0.771960  0.251409  0.836735  1
  O  O17  1  0.824544  0.706697  0.895964  1
  O  O18  1  0.980025  0.777493  0.560204  1
  O  O19  1  0.642835  0.251500  0.520364  1
  O  O20  1  0.779089  0.905535  0.755078  1
  O  O21  1  0.585201  0.581544  0.782417  1
  O  O22  1  0.593126  0.081988  0.166515  1
  O  O23  1  0.558356  0.416095  0.387640  1
  O  O24  1  0.218904  0.270097  0.061744  1
  O  O25  1  0.331939  0.270125  0.719325  1
  O  O26  1  0.602818  0.706703  0.279436  1
  O  O27  1  0.322435  0.081936  0.511073  1
  O  O28  1  0.371338  0.905534  0.873454  1
  O  O29  1  0.364147  0.581575  0.632332  1
  O  O30  1  0.248655  0.082064  0.240349  1
  O  O31  1  0.470115  0.416196  0.142133  1
  O  O32  1  0.337815  0.777432  0.459695  1
  O  O33  1  0.088341  0.251454  0.391238  1
