# generated using pymatgen
data_ErPa3Ga12Tc
_symmetry_space_group_name_H-M   'P 1'
_cell_length_a   7.46075241
_cell_length_b   7.46075284
_cell_length_c   7.52086700
_cell_angle_alpha   109.63452525
_cell_angle_beta   109.63452642
_cell_angle_gamma   109.30742118
_symmetry_Int_Tables_number   1
_chemical_formula_structural   ErPa3Ga12Tc
_chemical_formula_sum   'Er1 Pa3 Ga12 Tc1'
_cell_volume   321.61186091
_cell_formula_units_Z   1
loop_
 _symmetry_equiv_pos_site_id
 _symmetry_equiv_pos_as_xyz
  1  'x, y, z'
loop_
 _atom_site_type_symbol
 _atom_site_label
 _atom_site_symmetry_multiplicity
 _atom_site_fract_x
 _atom_site_fract_y
 _atom_site_fract_z
 _atom_site_occupancy
  Er  Er0  1  0.000000  0.000000  0.500000  1
  Pa  Pa1  1  0.000000  0.500000  0.000000  1
  Pa  Pa2  1  0.500000  0.000000  0.000000  1
  Pa  Pa3  1  0.500000  0.500000  0.500000  1
  Ga  Ga4  1  0.749864  0.250136  0.500000  1
  Ga  Ga5  1  0.749864  0.499727  0.249864  1
  Ga  Ga6  1  0.500273  0.250136  0.750136  1
  Ga  Ga7  1  0.250136  0.500273  0.750136  1
  Ga  Ga8  1  0.250136  0.749864  0.500000  1
  Ga  Ga9  1  0.499727  0.749864  0.249864  1
  Ga  Ga10  1  0.707201  0.707201  0.000894  1
  Ga  Ga11  1  0.292799  0.000000  0.293692  1
  Ga  Ga12  1  0.000000  0.292799  0.293692  1
  Ga  Ga13  1  0.292799  0.292799  0.999106  1
  Ga  Ga14  1  0.707201  0.000000  0.706308  1
  Ga  Ga15  1  0.000000  0.707201  0.706308  1
  Tc  Tc16  1  0.000000  0.000000  0.000000  1
