# generated using pymatgen
data_Y4Ir3RhO14
_symmetry_space_group_name_H-M   'P 1'
_cell_length_a   7.26416925
_cell_length_b   7.26416927
_cell_length_c   7.26416919
_cell_angle_alpha   59.91230878
_cell_angle_beta   59.91230794
_cell_angle_gamma   59.91230271
_symmetry_Int_Tables_number   1
_chemical_formula_structural   Y4Ir3RhO14
_chemical_formula_sum   'Y4 Ir3 Rh1 O14'
_cell_volume   270.50671453
_cell_formula_units_Z   1
loop_
 _symmetry_equiv_pos_site_id
 _symmetry_equiv_pos_as_xyz
  1  'x, y, z'
loop_
 _atom_site_type_symbol
 _atom_site_label
 _atom_site_symmetry_multiplicity
 _atom_site_fract_x
 _atom_site_fract_y
 _atom_site_fract_z
 _atom_site_occupancy
  Y  Y0  1  0.625000  0.125000  0.125000  1
  Y  Y1  1  0.125000  0.625000  0.125000  1
  Y  Y2  1  0.125000  0.125000  0.625000  1
  Y  Y3  1  0.125000  0.125000  0.125000  1
  Ir  Ir4  1  0.125000  0.625000  0.625000  1
  Ir  Ir5  1  0.625000  0.125000  0.625000  1
  Ir  Ir6  1  0.625000  0.625000  0.125000  1
  Rh  Rh7  1  0.625000  0.625000  0.625000  1
  O  O8  1  0.713578  0.713578  0.283790  1
  O  O9  1  0.290069  0.290069  0.713313  1
  O  O10  1  0.713578  0.283790  0.713578  1
  O  O11  1  0.290069  0.713313  0.290069  1
  O  O12  1  0.283790  0.713578  0.713578  1
  O  O13  1  0.713313  0.290069  0.290069  1
  O  O14  1  0.536422  0.536422  0.966210  1
  O  O15  1  0.959931  0.959931  0.536687  1
  O  O16  1  0.536422  0.966210  0.536422  1
  O  O17  1  0.959931  0.536687  0.959931  1
  O  O18  1  0.966210  0.536422  0.536422  1
  O  O19  1  0.536687  0.959931  0.959931  1
  O  O20  1  0.249258  0.249258  0.249258  1
  O  O21  1  0.000742  0.000742  0.000742  1
