# generated using pymatgen
data_Nd4Ag2O9
_symmetry_space_group_name_H-M   'P 1'
_cell_length_a   11.96311300
_cell_length_b   6.12156500
_cell_length_c   11.97666200
_cell_angle_alpha   90.00000000
_cell_angle_beta   90.00000000
_cell_angle_gamma   90.00000000
_symmetry_Int_Tables_number   1
_chemical_formula_structural   Nd4Ag2O9
_chemical_formula_sum   'Nd16 Ag8 O36'
_cell_volume   877.08657484
_cell_formula_units_Z   4
loop_
 _symmetry_equiv_pos_site_id
 _symmetry_equiv_pos_as_xyz
  1  'x, y, z'
loop_
 _atom_site_type_symbol
 _atom_site_label
 _atom_site_symmetry_multiplicity
 _atom_site_fract_x
 _atom_site_fract_y
 _atom_site_fract_z
 _atom_site_occupancy
  Nd  Nd0  1  0.488366  0.242141  0.089585  1
  Nd  Nd1  1  0.011635  0.742140  0.089585  1
  Nd  Nd2  1  0.841044  0.299141  0.235488  1
  Nd  Nd3  1  0.658956  0.799141  0.235488  1
  Nd  Nd4  1  0.158957  0.299141  0.264512  1
  Nd  Nd5  1  0.341043  0.799141  0.264512  1
  Nd  Nd6  1  0.511634  0.242141  0.410415  1
  Nd  Nd7  1  0.988366  0.742140  0.410415  1
  Nd  Nd8  1  0.011635  0.257861  0.589585  1
  Nd  Nd9  1  0.488366  0.757860  0.589585  1
  Nd  Nd10  1  0.658956  0.200860  0.735488  1
  Nd  Nd11  1  0.841044  0.700859  0.735488  1
  Nd  Nd12  1  0.341043  0.200860  0.764511  1
  Nd  Nd13  1  0.158957  0.700859  0.764511  1
  Nd  Nd14  1  0.988366  0.257861  0.910416  1
  Nd  Nd15  1  0.511634  0.757860  0.910416  1
  Ag  Ag16  1  0.227835  0.080122  0.011088  1
  Ag  Ag17  1  0.272164  0.580121  0.011088  1
  Ag  Ag18  1  0.772165  0.080122  0.488911  1
  Ag  Ag19  1  0.727835  0.580121  0.488911  1
  Ag  Ag20  1  0.272164  0.419878  0.511088  1
  Ag  Ag21  1  0.227835  0.919879  0.511088  1
  Ag  Ag22  1  0.727835  0.419878  0.988911  1
  Ag  Ag23  1  0.772165  0.919879  0.988911  1
  O  O24  1  0.884272  0.439484  0.053775  1
  O  O25  1  0.615728  0.939483  0.053775  1
  O  O26  1  0.075957  0.115078  0.089850  1
  O  O27  1  0.424043  0.615079  0.089850  1
  O  O28  1  0.662971  0.436506  0.148432  1
  O  O29  1  0.837028  0.936505  0.148432  1
  O  O30  1  0.303497  0.127653  0.158050  1
  O  O31  1  0.196504  0.627654  0.158050  1
  O  O32  1  0.500000  0.023318  0.250000  1
  O  O33  1  0.000000  0.523317  0.250000  1
  O  O34  1  0.696504  0.127653  0.341951  1
  O  O35  1  0.803496  0.627654  0.341951  1
  O  O36  1  0.337029  0.436506  0.351568  1
  O  O37  1  0.162971  0.936505  0.351568  1
  O  O38  1  0.924043  0.115078  0.410149  1
  O  O39  1  0.575957  0.615079  0.410149  1
  O  O40  1  0.115728  0.439484  0.446225  1
  O  O41  1  0.384272  0.939483  0.446225  1
  O  O42  1  0.615728  0.060516  0.553775  1
  O  O43  1  0.884272  0.560517  0.553775  1
  O  O44  1  0.424043  0.384922  0.589851  1
  O  O45  1  0.075957  0.884921  0.589851  1
  O  O46  1  0.837028  0.063495  0.648432  1
  O  O47  1  0.662971  0.563495  0.648432  1
  O  O48  1  0.196504  0.372347  0.658049  1
  O  O49  1  0.303497  0.872347  0.658049  1
  O  O50  1  0.000000  0.476682  0.749999  1
  O  O51  1  0.500000  0.976682  0.749999  1
  O  O52  1  0.803496  0.372347  0.841951  1
  O  O53  1  0.696504  0.872347  0.841951  1
  O  O54  1  0.162971  0.063495  0.851569  1
  O  O55  1  0.337029  0.563495  0.851569  1
  O  O56  1  0.575957  0.384922  0.910149  1
  O  O57  1  0.924043  0.884921  0.910149  1
  O  O58  1  0.384272  0.060516  0.946225  1
  O  O59  1  0.115728  0.560517  0.946225  1
