# generated using pymatgen
data_Dy(FeRe2)4
_symmetry_space_group_name_H-M   'P 1'
_cell_length_a   6.74333184
_cell_length_b   6.74333245
_cell_length_c   6.74333178
_cell_angle_alpha   97.32099807
_cell_angle_beta   97.32099625
_cell_angle_gamma   138.17145523
_symmetry_Int_Tables_number   1
_chemical_formula_structural   Dy(FeRe2)4
_chemical_formula_sum   'Dy1 Fe4 Re8'
_cell_volume   191.02377328
_cell_formula_units_Z   1
loop_
 _symmetry_equiv_pos_site_id
 _symmetry_equiv_pos_as_xyz
  1  'x, y, z'
loop_
 _atom_site_type_symbol
 _atom_site_label
 _atom_site_symmetry_multiplicity
 _atom_site_fract_x
 _atom_site_fract_y
 _atom_site_fract_z
 _atom_site_occupancy
  Dy  Dy0  1  0.000000  0.000000  0.000000  1
  Fe  Fe1  1  0.500000  0.000000  0.000000  1
  Fe  Fe2  1  0.500000  0.500000  0.500000  1
  Fe  Fe3  1  0.000000  0.000000  0.500000  1
  Fe  Fe4  1  0.000000  0.500000  0.000000  1
  Re  Re5  1  0.000000  0.643745  0.643745  1
  Re  Re6  1  0.356255  0.000000  0.356255  1
  Re  Re7  1  0.643745  0.000000  0.643745  1
  Re  Re8  1  0.000000  0.356255  0.356255  1
  Re  Re9  1  0.500000  0.715376  0.215376  1
  Re  Re10  1  0.500000  0.284624  0.784624  1
  Re  Re11  1  0.715376  0.500000  0.215376  1
  Re  Re12  1  0.284624  0.500000  0.784624  1
