# generated using pymatgen
data_Tm3ThAl4(Ga7Ir3)2
_symmetry_space_group_name_H-M   'P 1'
_cell_length_a   7.58061275
_cell_length_b   7.59915623
_cell_length_c   9.46186200
_cell_angle_alpha   90.00000000
_cell_angle_beta   90.00000000
_cell_angle_gamma   119.68603030
_symmetry_Int_Tables_number   1
_chemical_formula_structural   Tm3ThAl4(Ga7Ir3)2
_chemical_formula_sum   'Tm3 Th1 Al4 Ga14 Ir6'
_cell_volume   473.52428467
_cell_formula_units_Z   1
loop_
 _symmetry_equiv_pos_site_id
 _symmetry_equiv_pos_as_xyz
  1  'x, y, z'
loop_
 _atom_site_type_symbol
 _atom_site_label
 _atom_site_symmetry_multiplicity
 _atom_site_fract_x
 _atom_site_fract_y
 _atom_site_fract_z
 _atom_site_occupancy
  Tm  Tm0  1  0.998057  0.329085  0.750000  1
  Tm  Tm1  1  0.673027  0.999618  0.250000  1
  Tm  Tm2  1  0.328112  0.998969  0.750000  1
  Th  Th3  1  0.998953  0.670133  0.250000  1
  Al  Al4  1  0.330095  0.330229  0.559159  1
  Al  Al5  1  0.663932  0.668176  0.451470  1
  Al  Al6  1  0.663932  0.668176  0.048530  1
  Al  Al7  1  0.330095  0.330229  0.940841  1
  Ga  Ga8  1  0.130202  0.132998  0.250000  1
  Ga  Ga9  1  0.873512  0.876805  0.750000  1
  Ga  Ga10  1  0.000185  0.329536  0.077308  1
  Ga  Ga11  1  0.000268  0.664184  0.912056  1
  Ga  Ga12  1  0.000268  0.664184  0.587944  1
  Ga  Ga13  1  0.342194  0.005147  0.422429  1
  Ga  Ga14  1  0.000185  0.329536  0.422692  1
  Ga  Ga15  1  0.664188  0.001918  0.581827  1
  Ga  Ga16  1  0.664188  0.001918  0.918173  1
  Ga  Ga17  1  0.342194  0.005147  0.077571  1
  Ga  Ga18  1  0.354043  0.552913  0.250000  1
  Ga  Ga19  1  0.649647  0.446171  0.750000  1
  Ga  Ga20  1  0.545084  0.342780  0.250000  1
  Ga  Ga21  1  0.447259  0.653400  0.750000  1
  Ir  Ir22  1  0.672063  0.333059  0.000301  1
  Ir  Ir23  1  0.327892  0.668908  0.000436  1
  Ir  Ir24  1  0.327892  0.668908  0.499564  1
  Ir  Ir25  1  0.672063  0.333059  0.499699  1
  Ir  Ir26  1  0.000235  0.997406  0.000838  1
  Ir  Ir27  1  0.000235  0.997406  0.499162  1
