# generated using pymatgen
data_HoEr2P4Ir7
_symmetry_space_group_name_H-M   'P 1'
_cell_length_a   7.69091652
_cell_length_b   7.69091679
_cell_length_c   9.18233403
_cell_angle_alpha   57.10622499
_cell_angle_beta   57.10622322
_cell_angle_gamma   29.79623243
_symmetry_Int_Tables_number   1
_chemical_formula_structural   HoEr2P4Ir7
_chemical_formula_sum   'Ho1 Er2 P4 Ir7'
_cell_volume   223.24400932
_cell_formula_units_Z   1
loop_
 _symmetry_equiv_pos_site_id
 _symmetry_equiv_pos_as_xyz
  1  'x, y, z'
loop_
 _atom_site_type_symbol
 _atom_site_label
 _atom_site_symmetry_multiplicity
 _atom_site_fract_x
 _atom_site_fract_y
 _atom_site_fract_z
 _atom_site_occupancy
  Ho  Ho0  1  0.500000  0.500000  0.500000  1
  Er  Er1  1  0.827068  0.827068  0.169991  1
  Er  Er2  1  0.172932  0.172932  0.830009  1
  P  P3  1  0.389514  0.389514  0.327328  1
  P  P4  1  0.610486  0.610486  0.672672  1
  P  P5  1  0.832854  0.832854  0.773260  1
  P  P6  1  0.167146  0.167146  0.226740  1
  Ir  Ir7  1  0.665226  0.665226  0.080603  1
  Ir  Ir8  1  0.006878  0.006878  0.224167  1
  Ir  Ir9  1  0.993122  0.993122  0.775833  1
  Ir  Ir10  1  0.500000  0.500000  0.000000  1
  Ir  Ir11  1  0.199549  0.199549  0.448107  1
  Ir  Ir12  1  0.800451  0.800451  0.551893  1
  Ir  Ir13  1  0.334774  0.334774  0.919397  1
