# generated using pymatgen
data_Nd2Ga2SiPt6
_symmetry_space_group_name_H-M   'P 1'
_cell_length_a   9.51546800
_cell_length_b   9.51546832
_cell_length_c   4.02477900
_cell_angle_alpha   90.00000000
_cell_angle_beta   90.00000000
_cell_angle_gamma   145.62422900
_symmetry_Int_Tables_number   1
_chemical_formula_structural   Nd2Ga2SiPt6
_chemical_formula_sum   'Nd2 Ga2 Si1 Pt6'
_cell_volume   205.75817694
_cell_formula_units_Z   1
loop_
 _symmetry_equiv_pos_site_id
 _symmetry_equiv_pos_as_xyz
  1  'x, y, z'
loop_
 _atom_site_type_symbol
 _atom_site_label
 _atom_site_symmetry_multiplicity
 _atom_site_fract_x
 _atom_site_fract_y
 _atom_site_fract_z
 _atom_site_occupancy
  Nd  Nd0  1  0.608865  0.379829  0.500000  1
  Nd  Nd1  1  0.379829  0.608865  0.500000  1
  Ga  Ga2  1  0.193273  0.792077  0.500000  1
  Ga  Ga3  1  0.792077  0.193273  0.500000  1
  Si  Si4  1  0.230427  0.230427  0.000000  1
  Pt  Pt5  1  0.106327  0.882162  0.000000  1
  Pt  Pt6  1  0.882162  0.106327  0.000000  1
  Pt  Pt7  1  0.491232  0.989678  0.000000  1
  Pt  Pt8  1  0.989678  0.491232  0.000000  1
  Pt  Pt9  1  0.997607  0.997607  0.500000  1
  Pt  Pt10  1  0.642120  0.642120  0.000000  1
