# generated using pymatgen
data_Li8La7NdSn7Pb
_symmetry_space_group_name_H-M   'P 1'
_cell_length_a   9.67679600
_cell_length_b   9.67503275
_cell_length_c   7.90302203
_cell_angle_alpha   90.03999508
_cell_angle_beta   90.00001933
_cell_angle_gamma   120.00625099
_symmetry_Int_Tables_number   1
_chemical_formula_structural   Li8La7NdSn7Pb
_chemical_formula_sum   'Li8 La7 Nd1 Sn7 Pb1'
_cell_volume   640.73781074
_cell_formula_units_Z   1
loop_
 _symmetry_equiv_pos_site_id
 _symmetry_equiv_pos_as_xyz
  1  'x, y, z'
loop_
 _atom_site_type_symbol
 _atom_site_label
 _atom_site_symmetry_multiplicity
 _atom_site_fract_x
 _atom_site_fract_y
 _atom_site_fract_z
 _atom_site_occupancy
  Li  Li0  1  0.166641  0.333281  0.285457  1
  Li  Li1  1  0.166986  0.833584  0.287751  1
  Li  Li2  1  0.666598  0.833583  0.287753  1
  Li  Li3  1  0.833610  0.667221  0.788313  1
  Li  Li4  1  0.832982  0.165905  0.789655  1
  Li  Li5  1  0.332922  0.165907  0.789651  1
  Li  Li6  1  0.333405  0.666808  0.668379  1
  Li  Li7  1  0.666675  0.333352  0.168303  1
  La  La8  1  0.511525  0.023048  0.495593  1
  La  La9  1  0.513717  0.489639  0.494133  1
  La  La10  1  0.975919  0.489631  0.494133  1
  La  La11  1  0.488387  0.976786  0.995751  1
  La  La12  1  0.490384  0.512463  0.996180  1
  La  La13  1  0.022072  0.512454  0.996177  1
  La  La14  1  0.999309  0.998606  0.498607  1
  Nd  Nd15  1  0.998973  0.997948  0.001481  1
  Sn  Sn16  1  0.165841  0.833555  0.727930  1
  Sn  Sn17  1  0.667715  0.833555  0.727928  1
  Sn  Sn18  1  0.834317  0.668633  0.226744  1
  Sn  Sn19  1  0.834606  0.166108  0.226173  1
  Sn  Sn20  1  0.331502  0.166108  0.226171  1
  Sn  Sn21  1  0.333053  0.666106  0.269955  1
  Sn  Sn22  1  0.666738  0.333476  0.768973  1
  Pb  Pb23  1  0.166123  0.332244  0.730789  1
