# generated using pymatgen
data_Dy20Ir3(Rh2Au)3
_symmetry_space_group_name_H-M   'P 1'
_cell_length_a   11.04976763
_cell_length_b   11.04976721
_cell_length_c   6.34010805
_cell_angle_alpha   89.92108389
_cell_angle_beta   89.92107997
_cell_angle_gamma   89.37053848
_symmetry_Int_Tables_number   1
_chemical_formula_structural   Dy20Ir3(Rh2Au)3
_chemical_formula_sum   'Dy20 Ir3 Rh6 Au3'
_cell_volume   774.06228751
_cell_formula_units_Z   1
loop_
 _symmetry_equiv_pos_site_id
 _symmetry_equiv_pos_as_xyz
  1  'x, y, z'
loop_
 _atom_site_type_symbol
 _atom_site_label
 _atom_site_symmetry_multiplicity
 _atom_site_fract_x
 _atom_site_fract_y
 _atom_site_fract_z
 _atom_site_occupancy
  Dy  Dy0  1  0.291561  0.095697  0.380138  1
  Dy  Dy1  1  0.298137  0.911100  0.866380  1
  Dy  Dy2  1  0.703062  0.077310  0.865949  1
  Dy  Dy3  1  0.706553  0.902966  0.379168  1
  Dy  Dy4  1  0.588651  0.787739  0.879705  1
  Dy  Dy5  1  0.577209  0.205093  0.366294  1
  Dy  Dy6  1  0.417623  0.790522  0.378334  1
  Dy  Dy7  1  0.404138  0.207229  0.882521  1
  Dy  Dy8  1  0.212261  0.411349  0.620295  1
  Dy  Dy9  1  0.209478  0.582377  0.121666  1
  Dy  Dy10  1  0.794907  0.422791  0.133706  1
  Dy  Dy11  1  0.792771  0.595862  0.617479  1
  Dy  Dy12  1  0.904303  0.708439  0.119862  1
  Dy  Dy13  1  0.922690  0.296938  0.634051  1
  Dy  Dy14  1  0.088900  0.701863  0.633620  1
  Dy  Dy15  1  0.097034  0.293447  0.120832  1
  Dy  Dy16  1  0.999318  0.999322  0.501560  1
  Dy  Dy17  1  0.000678  0.000682  0.998440  1
  Dy  Dy18  1  0.496315  0.503462  0.000354  1
  Dy  Dy19  1  0.496538  0.503685  0.499646  1
  Ir  Ir20  1  0.653437  0.652930  0.251020  1
  Ir  Ir21  1  0.347070  0.346563  0.248980  1
  Ir  Ir22  1  0.343329  0.656671  0.750000  1
  Rh  Rh23  1  0.848170  0.849213  0.750097  1
  Rh  Rh24  1  0.150787  0.151830  0.749903  1
  Rh  Rh25  1  0.500347  0.000063  0.123419  1
  Rh  Rh26  1  0.499854  0.001241  0.621147  1
  Rh  Rh27  1  0.998759  0.500146  0.878853  1
  Rh  Rh28  1  0.999937  0.499653  0.376581  1
  Au  Au29  1  0.841596  0.158404  0.250000  1
  Au  Au30  1  0.157433  0.842567  0.250000  1
  Au  Au31  1  0.657156  0.342844  0.750000  1
