# generated using pymatgen
data_SrLa6TcI12
_symmetry_space_group_name_H-M   'P 1'
_cell_length_a   10.20630259
_cell_length_b   10.20630219
_cell_length_c   10.20630213
_cell_angle_alpha   106.47501602
_cell_angle_beta   106.47501920
_cell_angle_gamma   106.47502563
_symmetry_Int_Tables_number   1
_chemical_formula_structural   SrLa6TcI12
_chemical_formula_sum   'Sr1 La6 Tc1 I12'
_cell_volume   897.80168884
_cell_formula_units_Z   1
loop_
 _symmetry_equiv_pos_site_id
 _symmetry_equiv_pos_as_xyz
  1  'x, y, z'
loop_
 _atom_site_type_symbol
 _atom_site_label
 _atom_site_symmetry_multiplicity
 _atom_site_fract_x
 _atom_site_fract_y
 _atom_site_fract_z
 _atom_site_occupancy
  Sr  Sr0  1  0.500000  0.500000  0.500000  1
  La  La1  1  0.098383  0.301620  0.022778  1
  La  La2  1  0.301619  0.022777  0.098383  1
  La  La3  1  0.022777  0.098383  0.301620  1
  La  La4  1  0.977222  0.901617  0.698380  1
  La  La5  1  0.698381  0.977222  0.901616  1
  La  La6  1  0.901617  0.698380  0.977222  1
  Tc  Tc7  1  0.000000  0.000000  0.000000  1
  I  I8  1  0.226045  0.679485  0.073939  1
  I  I9  1  0.456575  0.375853  0.148487  1
  I  I10  1  0.679485  0.073940  0.226045  1
  I  I11  1  0.926061  0.773956  0.320516  1
  I  I12  1  0.148487  0.456575  0.375853  1
  I  I13  1  0.375853  0.148487  0.456576  1
  I  I14  1  0.624147  0.851513  0.543424  1
  I  I15  1  0.851512  0.543425  0.624147  1
  I  I16  1  0.073940  0.226045  0.679485  1
  I  I17  1  0.320516  0.926061  0.773955  1
  I  I18  1  0.543424  0.624146  0.851513  1
  I  I19  1  0.773955  0.320516  0.926061  1
