# generated using pymatgen
data_Si2Ni4BMo6
_symmetry_space_group_name_H-M   'P 1'
_cell_length_a   7.77509047
_cell_length_b   7.77508992
_cell_length_c   7.77509000
_cell_angle_alpha   59.99999965
_cell_angle_beta   60.00000200
_cell_angle_gamma   59.99999407
_symmetry_Int_Tables_number   1
_chemical_formula_structural   Si2Ni4BMo6
_chemical_formula_sum   'Si4 Ni8 B2 Mo12'
_cell_volume   332.35428647
_cell_formula_units_Z   2
loop_
 _symmetry_equiv_pos_site_id
 _symmetry_equiv_pos_as_xyz
  1  'x, y, z'
loop_
 _atom_site_type_symbol
 _atom_site_label
 _atom_site_symmetry_multiplicity
 _atom_site_fract_x
 _atom_site_fract_y
 _atom_site_fract_z
 _atom_site_occupancy
  Si  Si0  1  0.625000  0.625000  0.125000  1
  Si  Si1  1  0.625000  0.125000  0.625000  1
  Si  Si2  1  0.125000  0.625000  0.625000  1
  Si  Si3  1  0.625000  0.625000  0.625000  1
  Ni  Ni4  1  0.417712  0.417712  0.746862  1
  Ni  Ni5  1  0.417712  0.746862  0.417712  1
  Ni  Ni6  1  0.746862  0.417712  0.417712  1
  Ni  Ni7  1  0.417712  0.417712  0.417712  1
  Ni  Ni8  1  0.832288  0.832288  0.503138  1
  Ni  Ni9  1  0.832288  0.503138  0.832288  1
  Ni  Ni10  1  0.503138  0.832288  0.832288  1
  Ni  Ni11  1  0.832288  0.832288  0.832288  1
  B  B12  1  0.250000  0.250000  0.250000  1
  B  B13  1  0.000000  0.000000  0.000000  1
  Mo  Mo14  1  0.051483  0.051483  0.448517  1
  Mo  Mo15  1  0.448517  0.051483  0.448517  1
  Mo  Mo16  1  0.051483  0.448517  0.448517  1
  Mo  Mo17  1  0.448517  0.448517  0.051483  1
  Mo  Mo18  1  0.051483  0.448517  0.051483  1
  Mo  Mo19  1  0.448517  0.051483  0.051483  1
  Mo  Mo20  1  0.198517  0.198517  0.801483  1
  Mo  Mo21  1  0.801483  0.198517  0.801483  1
  Mo  Mo22  1  0.198517  0.801483  0.801483  1
  Mo  Mo23  1  0.801483  0.801483  0.198517  1
  Mo  Mo24  1  0.198517  0.801483  0.198517  1
  Mo  Mo25  1  0.801483  0.198517  0.198517  1
