# generated using pymatgen
data_Yb2Si7Rh12
_symmetry_space_group_name_H-M   'P 1'
_cell_length_a   9.75937600
_cell_length_b   9.75937503
_cell_length_c   3.84993400
_cell_angle_alpha   90.00000000
_cell_angle_beta   90.00000000
_cell_angle_gamma   119.99999650
_symmetry_Int_Tables_number   1
_chemical_formula_structural   Yb2Si7Rh12
_chemical_formula_sum   'Yb2 Si7 Rh12'
_cell_volume   317.56160562
_cell_formula_units_Z   1
loop_
 _symmetry_equiv_pos_site_id
 _symmetry_equiv_pos_as_xyz
  1  'x, y, z'
loop_
 _atom_site_type_symbol
 _atom_site_label
 _atom_site_symmetry_multiplicity
 _atom_site_fract_x
 _atom_site_fract_y
 _atom_site_fract_z
 _atom_site_occupancy
  Yb  Yb0  1  0.333333  0.666667  0.251123  1
  Yb  Yb1  1  0.666667  0.333333  0.748877  1
  Si  Si2  1  0.000000  0.000000  0.500000  1
  Si  Si3  1  0.399104  0.108316  0.249930  1
  Si  Si4  1  0.709214  0.600896  0.249930  1
  Si  Si5  1  0.891684  0.290786  0.249930  1
  Si  Si6  1  0.600896  0.891684  0.750070  1
  Si  Si7  1  0.290786  0.399104  0.750070  1
  Si  Si8  1  0.108316  0.709214  0.750070  1
  Rh  Rh9  1  0.444295  0.380318  0.248216  1
  Rh  Rh10  1  0.936022  0.555705  0.248216  1
  Rh  Rh11  1  0.619682  0.063978  0.248216  1
  Rh  Rh12  1  0.555705  0.619682  0.751784  1
  Rh  Rh13  1  0.063978  0.444295  0.751784  1
  Rh  Rh14  1  0.380318  0.936022  0.751784  1
  Rh  Rh15  1  0.141692  0.880702  0.254497  1
  Rh  Rh16  1  0.739010  0.858308  0.254497  1
  Rh  Rh17  1  0.119298  0.260990  0.254497  1
  Rh  Rh18  1  0.858308  0.119298  0.745503  1
  Rh  Rh19  1  0.260990  0.141692  0.745503  1
  Rh  Rh20  1  0.880702  0.739010  0.745503  1
