# generated using pymatgen
data_Hf5ZrSi2(Tc3As2)2
_symmetry_space_group_name_H-M   'P 1'
_cell_length_a   7.78163993
_cell_length_b   7.78969478
_cell_length_c   7.78164115
_cell_angle_alpha   127.14188536
_cell_angle_beta   126.16471834
_cell_angle_gamma   78.79480690
_symmetry_Int_Tables_number   1
_chemical_formula_structural   Hf5ZrSi2(Tc3As2)2
_chemical_formula_sum   'Hf5 Zr1 Si2 Tc6 As4'
_cell_volume   293.78879113
_cell_formula_units_Z   1
loop_
 _symmetry_equiv_pos_site_id
 _symmetry_equiv_pos_as_xyz
  1  'x, y, z'
loop_
 _atom_site_type_symbol
 _atom_site_label
 _atom_site_symmetry_multiplicity
 _atom_site_fract_x
 _atom_site_fract_y
 _atom_site_fract_z
 _atom_site_occupancy
  Hf  Hf0  1  0.549607  0.252661  0.203054  1
  Hf  Hf1  1  0.749747  0.853517  0.603769  1
  Hf  Hf2  1  0.250190  0.853753  0.103562  1
  Hf  Hf3  1  0.050338  0.253065  0.702727  1
  Hf  Hf4  1  0.949705  0.652499  0.202794  1
  Zr  Zr5  1  0.450969  0.654802  0.703833  1
  Si  Si6  1  0.250547  0.253923  0.503377  1
  Si  Si7  1  0.749324  0.252564  0.003240  1
  Tc  Tc8  1  0.500472  0.501511  0.003100  1
  Tc  Tc9  1  0.998411  0.501511  0.501039  1
  Tc  Tc10  1  0.121763  0.251807  0.126680  1
  Tc  Tc11  1  0.878570  0.006341  0.131537  1
  Tc  Tc12  1  0.374804  0.006341  0.627771  1
  Tc  Tc13  1  0.625127  0.251807  0.630043  1
  As  As14  1  0.332636  0.586206  0.251935  1
  As  As15  1  0.667597  0.920545  0.254622  1
  As  As16  1  0.165923  0.920545  0.752948  1
  As  As17  1  0.834270  0.586206  0.753569  1
