# generated using pymatgen
data_Ba2FeP4Ir3
_symmetry_space_group_name_H-M   'P 1'
_cell_length_a   5.59648500
_cell_length_b   6.92176118
_cell_length_c   5.59952254
_cell_angle_alpha   65.84452571
_cell_angle_beta   89.99990786
_cell_angle_gamma   89.99995411
_symmetry_Int_Tables_number   1
_chemical_formula_structural   Ba2FeP4Ir3
_chemical_formula_sum   'Ba2 Fe1 P4 Ir3'
_cell_volume   197.91855270
_cell_formula_units_Z   1
loop_
 _symmetry_equiv_pos_site_id
 _symmetry_equiv_pos_as_xyz
  1  'x, y, z'
loop_
 _atom_site_type_symbol
 _atom_site_label
 _atom_site_symmetry_multiplicity
 _atom_site_fract_x
 _atom_site_fract_y
 _atom_site_fract_z
 _atom_site_occupancy
  Ba  Ba0  1  0.994938  0.000001  0.999999  1
  Ba  Ba1  1  0.505181  0.999999  0.500001  1
  Fe  Fe2  1  0.249809  0.499999  0.499999  1
  P  P3  1  0.487293  0.695896  0.163163  1
  P  P4  1  0.012662  0.696635  0.638235  1
  P  P5  1  0.012665  0.303365  0.361764  1
  P  P6  1  0.487296  0.304106  0.836836  1
  Ir  Ir7  1  0.249739  0.500001  0.000001  1
  Ir  Ir8  1  0.750161  0.500001  0.000000  1
  Ir  Ir9  1  0.750256  0.499997  0.500000  1
