# generated using pymatgen
data_Tm9Sc7(Ga3Fe)2
_symmetry_space_group_name_H-M   'P 1'
_cell_length_a   9.52466500
_cell_length_b   9.52482718
_cell_length_c   6.84538800
_cell_angle_alpha   89.99875276
_cell_angle_beta   90.00044855
_cell_angle_gamma   119.99769973
_symmetry_Int_Tables_number   1
_chemical_formula_structural   Tm9Sc7(Ga3Fe)2
_chemical_formula_sum   'Tm9 Sc7 Ga6 Fe2'
_cell_volume   537.83069082
_cell_formula_units_Z   1
loop_
 _symmetry_equiv_pos_site_id
 _symmetry_equiv_pos_as_xyz
  1  'x, y, z'
loop_
 _atom_site_type_symbol
 _atom_site_label
 _atom_site_symmetry_multiplicity
 _atom_site_fract_x
 _atom_site_fract_y
 _atom_site_fract_z
 _atom_site_occupancy
  Tm  Tm0  1  0.666654  0.333361  0.167430  1
  Tm  Tm1  1  0.464207  0.535826  0.289830  1
  Tm  Tm2  1  0.933781  0.466881  0.786806  1
  Tm  Tm3  1  0.533121  0.066234  0.786802  1
  Tm  Tm4  1  0.464195  0.928408  0.289809  1
  Tm  Tm5  1  0.071586  0.535811  0.289815  1
  Tm  Tm6  1  0.533122  0.466863  0.786819  1
  Tm  Tm7  1  0.000000  0.999969  0.268751  1
  Tm  Tm8  1  0.999975  0.000017  0.772226  1
  Sc  Sc9  1  0.175319  0.824668  0.986184  1
  Sc  Sc10  1  0.348939  0.174517  0.489142  1
  Sc  Sc11  1  0.825476  0.651004  0.489135  1
  Sc  Sc12  1  0.175332  0.350618  0.986209  1
  Sc  Sc13  1  0.649409  0.824677  0.986210  1
  Sc  Sc14  1  0.825507  0.174506  0.489106  1
  Sc  Sc15  1  0.333350  0.666637  0.675252  1
  Ga  Ga16  1  0.164306  0.835716  0.551713  1
  Ga  Ga17  1  0.321944  0.160953  0.046503  1
  Ga  Ga18  1  0.839030  0.678060  0.046499  1
  Ga  Ga19  1  0.164300  0.328595  0.551668  1
  Ga  Ga20  1  0.671406  0.835708  0.551669  1
  Ga  Ga21  1  0.839016  0.160955  0.046532  1
  Fe  Fe22  1  0.333346  0.666707  0.041391  1
  Fe  Fe23  1  0.666680  0.333310  0.548510  1
