# generated using pymatgen
data_Sc12Tc2AuBr16
_symmetry_space_group_name_H-M   'P 1'
_cell_length_a   9.06318360
_cell_length_b   11.14287134
_cell_length_c   11.86250311
_cell_angle_alpha   116.73615537
_cell_angle_beta   101.87363556
_cell_angle_gamma   101.40910166
_symmetry_Int_Tables_number   1
_chemical_formula_structural   Sc12Tc2AuBr16
_chemical_formula_sum   'Sc12 Tc2 Au1 Br16'
_cell_volume   987.54131490
_cell_formula_units_Z   1
loop_
 _symmetry_equiv_pos_site_id
 _symmetry_equiv_pos_as_xyz
  1  'x, y, z'
loop_
 _atom_site_type_symbol
 _atom_site_label
 _atom_site_symmetry_multiplicity
 _atom_site_fract_x
 _atom_site_fract_y
 _atom_site_fract_z
 _atom_site_occupancy
  Sc  Sc0  1  0.087267  0.253291  0.347957  1
  Sc  Sc1  1  0.912733  0.746709  0.652043  1
  Sc  Sc2  1  0.766541  0.536763  0.315493  1
  Sc  Sc3  1  0.233459  0.463237  0.684507  1
  Sc  Sc4  1  0.293684  0.749126  0.654270  1
  Sc  Sc5  1  0.706316  0.250874  0.345730  1
  Sc  Sc6  1  0.147297  0.537268  0.318350  1
  Sc  Sc7  1  0.852703  0.462732  0.681650  1
  Sc  Sc8  1  0.402019  0.353831  0.267229  1
  Sc  Sc9  1  0.597981  0.646169  0.732771  1
  Sc  Sc10  1  0.457292  0.303971  0.520495  1
  Sc  Sc11  1  0.542708  0.696029  0.479505  1
  Tc  Tc12  1  0.333920  0.500249  0.499706  1
  Tc  Tc13  1  0.666081  0.499751  0.500294  1
  Au  Au14  1  0.000000  0.500000  0.500000  1
  Br  Br15  1  0.400652  0.744112  0.887790  1
  Br  Br16  1  0.599348  0.255888  0.112210  1
  Br  Br17  1  0.189879  0.966778  0.784337  1
  Br  Br18  1  0.810121  0.033222  0.215663  1
  Br  Br19  1  0.340463  0.090599  0.249957  1
  Br  Br20  1  0.659537  0.909401  0.750043  1
  Br  Br21  1  0.550290  0.435700  0.799723  1
  Br  Br22  1  0.449710  0.564300  0.200277  1
  Br  Br23  1  0.310568  0.827309  0.462141  1
  Br  Br24  1  0.689432  0.172691  0.537859  1
  Br  Br25  1  0.167535  0.169869  0.531997  1
  Br  Br26  1  0.832465  0.830131  0.468003  1
  Br  Br27  1  0.925552  0.575529  0.160177  1
  Br  Br28  1  0.074448  0.424471  0.839823  1
  Br  Br29  1  0.923041  0.741257  0.886595  1
  Br  Br30  1  0.076959  0.258743  0.113405  1
