# generated using pymatgen
data_CsRbPaSe3
_symmetry_space_group_name_H-M   'P 1'
_cell_length_a   14.36524000
_cell_length_b   6.82227674
_cell_length_c   9.12083000
_cell_angle_alpha   72.45138651
_cell_angle_beta   90.00000000
_cell_angle_gamma   90.00000000
_symmetry_Int_Tables_number   1
_chemical_formula_structural   CsRbPaSe3
_chemical_formula_sum   'Cs4 Rb4 Pa4 Se12'
_cell_volume   852.27495514
_cell_formula_units_Z   4
loop_
 _symmetry_equiv_pos_site_id
 _symmetry_equiv_pos_as_xyz
  1  'x, y, z'
loop_
 _atom_site_type_symbol
 _atom_site_label
 _atom_site_symmetry_multiplicity
 _atom_site_fract_x
 _atom_site_fract_y
 _atom_site_fract_z
 _atom_site_occupancy
  Cs  Cs0  1  0.955135  0.658170  0.676459  1
  Cs  Cs1  1  0.455135  0.841830  0.323541  1
  Cs  Cs2  1  0.044865  0.341830  0.323541  1
  Cs  Cs3  1  0.544865  0.158170  0.676459  1
  Rb  Rb4  1  0.872228  0.074061  0.888672  1
  Rb  Rb5  1  0.372228  0.425939  0.111328  1
  Rb  Rb6  1  0.127772  0.925939  0.111328  1
  Rb  Rb7  1  0.627772  0.574061  0.888672  1
  Pa  Pa8  1  0.749537  0.659251  0.288562  1
  Pa  Pa9  1  0.249537  0.840749  0.711438  1
  Pa  Pa10  1  0.250463  0.340749  0.711438  1
  Pa  Pa11  1  0.750463  0.159251  0.288562  1
  Se  Se12  1  0.909740  0.911610  0.276896  1
  Se  Se13  1  0.409740  0.588390  0.723104  1
  Se  Se14  1  0.090260  0.088390  0.723104  1
  Se  Se15  1  0.590260  0.411610  0.276896  1
  Se  Se16  1  0.819643  0.315507  0.521422  1
  Se  Se17  1  0.319643  0.184493  0.478578  1
  Se  Se18  1  0.180357  0.684493  0.478578  1
  Se  Se19  1  0.680357  0.815507  0.521422  1
  Se  Se20  1  0.837653  0.501713  0.064147  1
  Se  Se21  1  0.337653  0.998287  0.935853  1
  Se  Se22  1  0.162347  0.498287  0.935853  1
  Se  Se23  1  0.662347  0.001713  0.064147  1
