# generated using pymatgen
data_TbCe4Y3(ReB6)4
_symmetry_space_group_name_H-M   'P 1'
_cell_length_a   3.73300800
_cell_length_b   9.23764501
_cell_length_c   11.61832602
_cell_angle_alpha   89.99364847
_cell_angle_beta   90.00000000
_cell_angle_gamma   90.00000000
_symmetry_Int_Tables_number   1
_chemical_formula_structural   TbCe4Y3(ReB6)4
_chemical_formula_sum   'Tb1 Ce4 Y3 Re4 B24'
_cell_volume   400.64870743
_cell_formula_units_Z   1
loop_
 _symmetry_equiv_pos_site_id
 _symmetry_equiv_pos_as_xyz
  1  'x, y, z'
loop_
 _atom_site_type_symbol
 _atom_site_label
 _atom_site_symmetry_multiplicity
 _atom_site_fract_x
 _atom_site_fract_y
 _atom_site_fract_z
 _atom_site_occupancy
  Tb  Tb0  1  0.000000  0.444329  0.127061  1
  Ce  Ce1  1  0.000000  0.823646  0.085802  1
  Ce  Ce2  1  0.000000  0.176355  0.913963  1
  Ce  Ce3  1  0.000000  0.323555  0.414101  1
  Ce  Ce4  1  0.000000  0.676577  0.586054  1
  Y  Y5  1  0.000000  0.555649  0.872897  1
  Y  Y6  1  0.000000  0.944286  0.373139  1
  Y  Y7  1  0.000000  0.055697  0.626990  1
  Re  Re8  1  0.000000  0.138095  0.178726  1
  Re  Re9  1  0.000000  0.861738  0.821169  1
  Re  Re10  1  0.000000  0.638429  0.321399  1
  Re  Re11  1  0.000000  0.361626  0.678728  1
  B  B12  1  0.500000  0.054130  0.068335  1
  B  B13  1  0.500000  0.945724  0.931499  1
  B  B14  1  0.500000  0.554349  0.431781  1
  B  B15  1  0.500000  0.445680  0.568360  1
  B  B16  1  0.500000  0.247599  0.081112  1
  B  B17  1  0.500000  0.752149  0.918792  1
  B  B18  1  0.500000  0.748002  0.418992  1
  B  B19  1  0.500000  0.252074  0.581060  1
  B  B20  1  0.500000  0.291032  0.233756  1
  B  B21  1  0.500000  0.708664  0.766221  1
  B  B22  1  0.500000  0.791530  0.266386  1
  B  B23  1  0.500000  0.208598  0.733691  1
  B  B24  1  0.500000  0.132083  0.313633  1
  B  B25  1  0.500000  0.867855  0.686453  1
  B  B26  1  0.500000  0.632433  0.186687  1
  B  B27  1  0.500000  0.367736  0.813456  1
  B  B28  1  0.500000  0.484191  0.287409  1
  B  B29  1  0.500000  0.516031  0.712790  1
  B  B30  1  0.500000  0.983866  0.212885  1
  B  B31  1  0.500000  0.016092  0.787130  1
  B  B32  1  0.500000  0.108358  0.470052  1
  B  B33  1  0.500000  0.891695  0.530041  1
  B  B34  1  0.500000  0.608914  0.029834  1
  B  B35  1  0.500000  0.391235  0.969614  1
