# generated using pymatgen
data_Ho4ErSi3O
_symmetry_space_group_name_H-M   'P 1'
_cell_length_a   8.35691100
_cell_length_b   8.35691156
_cell_length_c   6.16846300
_cell_angle_alpha   90.00000000
_cell_angle_beta   90.00000000
_cell_angle_gamma   120.00000967
_symmetry_Int_Tables_number   1
_chemical_formula_structural   Ho4ErSi3O
_chemical_formula_sum   'Ho8 Er2 Si6 O2'
_cell_volume   373.07756745
_cell_formula_units_Z   2
loop_
 _symmetry_equiv_pos_site_id
 _symmetry_equiv_pos_as_xyz
  1  'x, y, z'
loop_
 _atom_site_type_symbol
 _atom_site_label
 _atom_site_symmetry_multiplicity
 _atom_site_fract_x
 _atom_site_fract_y
 _atom_site_fract_z
 _atom_site_occupancy
  Ho  Ho0  1  0.232070  0.000000  0.250056  1
  Ho  Ho1  1  0.767930  0.000000  0.749944  1
  Ho  Ho2  1  0.000000  0.232070  0.250056  1
  Ho  Ho3  1  0.000000  0.767930  0.749944  1
  Ho  Ho4  1  0.767930  0.767930  0.250056  1
  Ho  Ho5  1  0.232070  0.232070  0.749944  1
  Ho  Ho6  1  0.333333  0.666667  0.000000  1
  Ho  Ho7  1  0.666667  0.333333  0.000000  1
  Er  Er8  1  0.666667  0.333333  0.500000  1
  Er  Er9  1  0.333333  0.666667  0.500000  1
  Si  Si10  1  0.601581  0.000000  0.250146  1
  Si  Si11  1  0.398419  0.000000  0.749854  1
  Si  Si12  1  0.000000  0.601581  0.250146  1
  Si  Si13  1  0.000000  0.398419  0.749854  1
  Si  Si14  1  0.398419  0.398419  0.250146  1
  Si  Si15  1  0.601581  0.601581  0.749854  1
  O  O16  1  0.000000  0.000000  0.000000  1
  O  O17  1  0.000000  0.000000  0.500000  1
