# generated using pymatgen
data_Er8ReOsBr8
_symmetry_space_group_name_H-M   'P 1'
_cell_length_a   8.86432323
_cell_length_b   8.86432378
_cell_length_c   6.54406400
_cell_angle_alpha   89.48918247
_cell_angle_beta   89.48918253
_cell_angle_gamma   89.41566281
_symmetry_Int_Tables_number   1
_chemical_formula_structural   Er8ReOsBr8
_chemical_formula_sum   'Er8 Re1 Os1 Br8'
_cell_volume   514.14068703
_cell_formula_units_Z   1
loop_
 _symmetry_equiv_pos_site_id
 _symmetry_equiv_pos_as_xyz
  1  'x, y, z'
loop_
 _atom_site_type_symbol
 _atom_site_label
 _atom_site_symmetry_multiplicity
 _atom_site_fract_x
 _atom_site_fract_y
 _atom_site_fract_z
 _atom_site_occupancy
  Er  Er0  1  0.249239  0.901102  0.010848  1
  Er  Er1  1  0.750258  0.099143  0.989882  1
  Er  Er2  1  0.098898  0.750761  0.489152  1
  Er  Er3  1  0.900857  0.249742  0.510118  1
  Er  Er4  1  0.751379  0.902339  0.508655  1
  Er  Er5  1  0.248609  0.097623  0.490526  1
  Er  Er6  1  0.097661  0.248621  0.991345  1
  Er  Er7  1  0.902377  0.751391  0.009474  1
  Re  Re8  1  0.994574  0.005426  0.250000  1
  Os  Os9  1  0.005693  0.994307  0.750000  1
  Br  Br10  1  0.422118  0.815755  0.403779  1
  Br  Br11  1  0.578080  0.184193  0.596580  1
  Br  Br12  1  0.184245  0.577882  0.096221  1
  Br  Br13  1  0.815807  0.421920  0.903420  1
  Br  Br14  1  0.417781  0.193567  0.098069  1
  Br  Br15  1  0.582428  0.806437  0.901701  1
  Br  Br16  1  0.806433  0.582219  0.401931  1
  Br  Br17  1  0.193563  0.417572  0.598299  1
