# generated using pymatgen
data_Zr3Sc(VP)4
_symmetry_space_group_name_H-M   'P 1'
_cell_length_a   3.50692200
_cell_length_b   6.64890002
_cell_length_c   7.91780339
_cell_angle_alpha   90.08920044
_cell_angle_beta   90.00000000
_cell_angle_gamma   90.00000000
_symmetry_Int_Tables_number   1
_chemical_formula_structural   Zr3Sc(VP)4
_chemical_formula_sum   'Zr3 Sc1 V4 P4'
_cell_volume   184.62057372
_cell_formula_units_Z   1
loop_
 _symmetry_equiv_pos_site_id
 _symmetry_equiv_pos_as_xyz
  1  'x, y, z'
loop_
 _atom_site_type_symbol
 _atom_site_label
 _atom_site_symmetry_multiplicity
 _atom_site_fract_x
 _atom_site_fract_y
 _atom_site_fract_z
 _atom_site_occupancy
  Zr  Zr0  1  0.750000  0.960805  0.168339  1
  Zr  Zr1  1  0.250000  0.538520  0.668632  1
  Zr  Zr2  1  0.750000  0.460667  0.330506  1
  Sc  Sc3  1  0.250000  0.039279  0.832503  1
  V  V4  1  0.750000  0.372594  0.942199  1
  V  V5  1  0.250000  0.627655  0.057114  1
  V  V6  1  0.750000  0.870860  0.557114  1
  V  V7  1  0.250000  0.130211  0.442351  1
  P  P8  1  0.250000  0.763118  0.364317  1
  P  P9  1  0.750000  0.234138  0.639006  1
  P  P10  1  0.250000  0.262052  0.134682  1
  P  P11  1  0.750000  0.740100  0.863236  1
