# generated using pymatgen
data_Nd3PtBr3
_symmetry_space_group_name_H-M   'P 1'
_cell_length_a   10.53293550
_cell_length_b   10.53293528
_cell_length_c   10.53293500
_cell_angle_alpha   109.47121817
_cell_angle_beta   109.47121775
_cell_angle_gamma   109.47122121
_symmetry_Int_Tables_number   1
_chemical_formula_structural   Nd3PtBr3
_chemical_formula_sum   'Nd12 Pt4 Br12'
_cell_volume   899.55221953
_cell_formula_units_Z   4
loop_
 _symmetry_equiv_pos_site_id
 _symmetry_equiv_pos_as_xyz
  1  'x, y, z'
loop_
 _atom_site_type_symbol
 _atom_site_label
 _atom_site_symmetry_multiplicity
 _atom_site_fract_x
 _atom_site_fract_y
 _atom_site_fract_z
 _atom_site_occupancy
  Nd  Nd0  1  0.470032  0.485016  0.235016  1
  Nd  Nd1  1  0.750000  0.235016  0.264984  1
  Nd  Nd2  1  0.750000  0.014984  0.485016  1
  Nd  Nd3  1  0.235016  0.470032  0.485016  1
  Nd  Nd4  1  0.264984  0.750000  0.235016  1
  Nd  Nd5  1  0.029968  0.264984  0.014984  1
  Nd  Nd6  1  0.014984  0.029968  0.264984  1
  Nd  Nd7  1  0.485016  0.750000  0.014984  1
  Nd  Nd8  1  0.485016  0.235016  0.470032  1
  Nd  Nd9  1  0.014984  0.485016  0.750000  1
  Nd  Nd10  1  0.264984  0.014984  0.029968  1
  Nd  Nd11  1  0.235016  0.264984  0.750000  1
  Pt  Pt12  1  0.250000  0.250000  0.250000  1
  Pt  Pt13  1  0.500000  0.000000  0.250000  1
  Pt  Pt14  1  0.000000  0.250000  0.500000  1
  Pt  Pt15  1  0.250000  0.500000  0.000000  1
  Br  Br16  1  0.250000  0.754600  0.745400  1
  Br  Br17  1  0.509199  0.504600  0.754600  1
  Br  Br18  1  0.990801  0.745400  0.995400  1
  Br  Br19  1  0.745400  0.250000  0.754600  1
  Br  Br20  1  0.995400  0.990801  0.745400  1
  Br  Br21  1  0.250000  0.995400  0.504600  1
  Br  Br22  1  0.754600  0.509199  0.504600  1
  Br  Br23  1  0.504600  0.250000  0.995400  1
  Br  Br24  1  0.754600  0.745400  0.250000  1
  Br  Br25  1  0.745400  0.995400  0.990801  1
  Br  Br26  1  0.995400  0.504600  0.250000  1
  Br  Br27  1  0.504600  0.754600  0.509199  1
