# generated using pymatgen
data_La5Pr11Cd4OsPt3
_symmetry_space_group_name_H-M   'P 1'
_cell_length_a   10.11161093
_cell_length_b   10.14424450
_cell_length_c   10.14424456
_cell_angle_alpha   59.60325568
_cell_angle_beta   59.67110726
_cell_angle_gamma   59.67110521
_symmetry_Int_Tables_number   1
_chemical_formula_structural   La5Pr11Cd4OsPt3
_chemical_formula_sum   'La5 Pr11 Cd4 Os1 Pt3'
_cell_volume   729.89720545
_cell_formula_units_Z   1
loop_
 _symmetry_equiv_pos_site_id
 _symmetry_equiv_pos_as_xyz
  1  'x, y, z'
loop_
 _atom_site_type_symbol
 _atom_site_label
 _atom_site_symmetry_multiplicity
 _atom_site_fract_x
 _atom_site_fract_y
 _atom_site_fract_z
 _atom_site_occupancy
  La  La0  1  0.350199  0.350979  0.350979  1
  La  La1  1  0.345960  0.345576  0.955572  1
  La  La2  1  0.345960  0.955572  0.345576  1
  La  La3  1  0.954354  0.347617  0.347617  1
  La  La4  1  0.820174  0.186836  0.186836  1
  Pr  Pr5  1  0.188538  0.808404  0.808404  1
  Pr  Pr6  1  0.189770  0.814624  0.188155  1
  Pr  Pr7  1  0.807645  0.188938  0.806994  1
  Pr  Pr8  1  0.189770  0.188155  0.814624  1
  Pr  Pr9  1  0.807645  0.806994  0.188938  1
  Pr  Pr10  1  0.936302  0.565153  0.565153  1
  Pr  Pr11  1  0.558101  0.936562  0.936562  1
  Pr  Pr12  1  0.564043  0.937004  0.564339  1
  Pr  Pr13  1  0.938425  0.557234  0.937224  1
  Pr  Pr14  1  0.564043  0.564339  0.937004  1
  Pr  Pr15  1  0.938425  0.937224  0.557234  1
  Cd  Cd16  1  0.579811  0.580176  0.580176  1
  Cd  Cd17  1  0.579621  0.581850  0.258025  1
  Cd  Cd18  1  0.579621  0.258025  0.581850  1
  Cd  Cd19  1  0.258116  0.580215  0.580215  1
  Os  Os20  1  0.138072  0.145380  0.145380  1
  Pt  Pt21  1  0.145457  0.144437  0.573005  1
  Pt  Pt22  1  0.145457  0.573005  0.144437  1
  Pt  Pt23  1  0.574494  0.145705  0.145705  1
