# generated using pymatgen
data_CaTbY5FeI12
_symmetry_space_group_name_H-M   'P 1'
_cell_length_a   9.75657442
_cell_length_b   9.74898193
_cell_length_c   9.84139506
_cell_angle_alpha   106.87308826
_cell_angle_beta   107.07181989
_cell_angle_gamma   106.72571933
_symmetry_Int_Tables_number   1
_chemical_formula_structural   CaTbY5FeI12
_chemical_formula_sum   'Ca1 Tb1 Y5 Fe1 I12'
_cell_volume   781.89446067
_cell_formula_units_Z   1
loop_
 _symmetry_equiv_pos_site_id
 _symmetry_equiv_pos_as_xyz
  1  'x, y, z'
loop_
 _atom_site_type_symbol
 _atom_site_label
 _atom_site_symmetry_multiplicity
 _atom_site_fract_x
 _atom_site_fract_y
 _atom_site_fract_z
 _atom_site_occupancy
  Ca  Ca0  1  0.500106  0.499950  0.499999  1
  Tb  Tb1  1  0.713568  0.976159  0.907606  1
  Y  Y2  1  0.093115  0.287015  0.023713  1
  Y  Y3  1  0.024469  0.096863  0.300652  1
  Y  Y4  1  0.286318  0.023930  0.092294  1
  Y  Y5  1  0.906980  0.713009  0.976334  1
  Y  Y6  1  0.975497  0.903137  0.699401  1
  Fe  Fe7  1  0.998925  0.999978  0.999765  1
  I  I8  1  0.455313  0.377498  0.149970  1
  I  I9  1  0.148252  0.455210  0.375810  1
  I  I10  1  0.378214  0.148226  0.453867  1
  I  I11  1  0.544760  0.621997  0.850015  1
  I  I12  1  0.851966  0.544809  0.624256  1
  I  I13  1  0.621918  0.851353  0.545395  1
  I  I14  1  0.776285  0.317677  0.926945  1
  I  I15  1  0.926490  0.773963  0.318044  1
  I  I16  1  0.318455  0.927216  0.777617  1
  I  I17  1  0.224281  0.683053  0.073258  1
  I  I18  1  0.073758  0.226081  0.682028  1
  I  I19  1  0.681328  0.072877  0.223030  1
