# generated using pymatgen
data_Er9Tm(Bi3C)2
_symmetry_space_group_name_H-M   'P 1'
_cell_length_a   9.09187287
_cell_length_b   9.09187301
_cell_length_c   6.44125700
_cell_angle_alpha   90.00000000
_cell_angle_beta   90.00000000
_cell_angle_gamma   120.05019741
_symmetry_Int_Tables_number   1
_chemical_formula_structural   Er9Tm(Bi3C)2
_chemical_formula_sum   'Er9 Tm1 Bi6 C2'
_cell_volume   460.88022761
_cell_formula_units_Z   1
loop_
 _symmetry_equiv_pos_site_id
 _symmetry_equiv_pos_as_xyz
  1  'x, y, z'
loop_
 _atom_site_type_symbol
 _atom_site_label
 _atom_site_symmetry_multiplicity
 _atom_site_fract_x
 _atom_site_fract_y
 _atom_site_fract_z
 _atom_site_occupancy
  Er  Er0  1  0.666662  0.333313  0.999899  1
  Er  Er1  1  0.333313  0.666662  0.999899  1
  Er  Er2  1  0.333313  0.666662  0.500101  1
  Er  Er3  1  0.666662  0.333313  0.500101  1
  Er  Er4  1  0.206424  0.999784  0.750000  1
  Er  Er5  1  0.999784  0.206424  0.750000  1
  Er  Er6  1  0.206598  0.206598  0.250000  1
  Er  Er7  1  0.793319  0.999892  0.250000  1
  Er  Er8  1  0.999892  0.793319  0.250000  1
  Tm  Tm9  1  0.794771  0.794771  0.750000  1
  Bi  Bi10  1  0.401650  0.401650  0.750000  1
  Bi  Bi11  1  0.598679  0.999708  0.750000  1
  Bi  Bi12  1  0.999708  0.598679  0.750000  1
  Bi  Bi13  1  0.598592  0.598592  0.250000  1
  Bi  Bi14  1  0.401392  0.000070  0.250000  1
  Bi  Bi15  1  0.000070  0.401392  0.250000  1
  C  C16  1  0.999586  0.999586  0.999579  1
  C  C17  1  0.999586  0.999586  0.500421  1
