# generated using pymatgen
data_Y6Tm10Cd4Co3Ni
_symmetry_space_group_name_H-M   'P 1'
_cell_length_a   9.47885494
_cell_length_b   9.44902651
_cell_length_c   9.44902600
_cell_angle_alpha   60.00000180
_cell_angle_beta   60.10404391
_cell_angle_gamma   60.10404452
_symmetry_Int_Tables_number   1
_chemical_formula_structural   Y6Tm10Cd4Co3Ni
_chemical_formula_sum   'Y6 Tm10 Cd4 Co3 Ni1'
_cell_volume   599.37164484
_cell_formula_units_Z   1
loop_
 _symmetry_equiv_pos_site_id
 _symmetry_equiv_pos_as_xyz
  1  'x, y, z'
loop_
 _atom_site_type_symbol
 _atom_site_label
 _atom_site_symmetry_multiplicity
 _atom_site_fract_x
 _atom_site_fract_y
 _atom_site_fract_z
 _atom_site_occupancy
  Y  Y0  1  0.187893  0.811435  0.811435  1
  Y  Y1  1  0.810215  0.188596  0.188596  1
  Y  Y2  1  0.810215  0.188596  0.812594  1
  Y  Y3  1  0.187893  0.811435  0.189237  1
  Y  Y4  1  0.810215  0.812594  0.188596  1
  Y  Y5  1  0.187893  0.189237  0.811435  1
  Tm  Tm6  1  0.593816  0.597828  0.597828  1
  Tm  Tm7  1  0.593816  0.597828  0.210528  1
  Tm  Tm8  1  0.593816  0.210528  0.597828  1
  Tm  Tm9  1  0.212906  0.595698  0.595698  1
  Tm  Tm10  1  0.067119  0.436773  0.436773  1
  Tm  Tm11  1  0.436397  0.063570  0.063570  1
  Tm  Tm12  1  0.436397  0.063570  0.436462  1
  Tm  Tm13  1  0.067119  0.436773  0.059336  1
  Tm  Tm14  1  0.436397  0.436462  0.063570  1
  Tm  Tm15  1  0.067119  0.059336  0.436773  1
  Cd  Cd16  1  0.830476  0.830002  0.830002  1
  Cd  Cd17  1  0.830476  0.830002  0.509518  1
  Cd  Cd18  1  0.830476  0.509518  0.830002  1
  Cd  Cd19  1  0.508479  0.830506  0.830506  1
  Co  Co20  1  0.391427  0.391367  0.391367  1
  Co  Co21  1  0.391427  0.391367  0.825840  1
  Co  Co22  1  0.391427  0.825840  0.391367  1
  Ni  Ni23  1  0.826589  0.391138  0.391138  1
