# generated using pymatgen
data_Sr4YPa5O18
_symmetry_space_group_name_H-M   'P 1'
_cell_length_a   6.94564442
_cell_length_b   7.86770872
_cell_length_c   8.82974819
_cell_angle_alpha   101.71333650
_cell_angle_beta   98.05056757
_cell_angle_gamma   106.98946813
_symmetry_Int_Tables_number   1
_chemical_formula_structural   Sr4YPa5O18
_chemical_formula_sum   'Sr4 Y1 Pa5 O18'
_cell_volume   441.48711134
_cell_formula_units_Z   1
loop_
 _symmetry_equiv_pos_site_id
 _symmetry_equiv_pos_as_xyz
  1  'x, y, z'
loop_
 _atom_site_type_symbol
 _atom_site_label
 _atom_site_symmetry_multiplicity
 _atom_site_fract_x
 _atom_site_fract_y
 _atom_site_fract_z
 _atom_site_occupancy
  Sr  Sr0  1  0.805393  0.110321  0.593321  1
  Sr  Sr1  1  0.593257  0.691934  0.193187  1
  Sr  Sr2  1  0.406743  0.308066  0.806813  1
  Sr  Sr3  1  0.194607  0.889679  0.406679  1
  Y  Y4  1  0.000000  0.500000  0.000000  1
  Pa  Pa5  1  0.000000  0.000000  0.000000  1
  Pa  Pa6  1  0.791773  0.581642  0.584883  1
  Pa  Pa7  1  0.631378  0.195477  0.197649  1
  Pa  Pa8  1  0.368622  0.804523  0.802351  1
  Pa  Pa9  1  0.208227  0.418358  0.415117  1
  O  O10  1  0.818882  0.788057  0.467569  1
  O  O11  1  0.989356  0.211764  0.195213  1
  O  O12  1  0.691705  0.398568  0.071260  1
  O  O13  1  0.458449  0.001847  0.683870  1
  O  O14  1  0.857772  0.345768  0.432406  1
  O  O15  1  0.503931  0.396786  0.346793  1
  O  O16  1  0.222527  0.584295  0.254156  1
  O  O17  1  0.976280  0.792602  0.124659  1
  O  O18  1  0.661237  0.935802  0.992523  1
  O  O19  1  0.338763  0.064198  0.007477  1
  O  O20  1  0.023720  0.207398  0.875341  1
  O  O21  1  0.777473  0.415705  0.745844  1
  O  O22  1  0.496069  0.603214  0.653207  1
  O  O23  1  0.142228  0.654232  0.567594  1
  O  O24  1  0.541551  0.998153  0.316130  1
  O  O25  1  0.308295  0.601432  0.928740  1
  O  O26  1  0.010644  0.788236  0.804787  1
  O  O27  1  0.181118  0.211943  0.532431  1
