# generated using pymatgen
data_DyTmMn3Fe9P7
_symmetry_space_group_name_H-M   'P 1'
_cell_length_a   9.02719200
_cell_length_b   9.02719148
_cell_length_c   3.61848800
_cell_angle_alpha   90.00000000
_cell_angle_beta   90.00000000
_cell_angle_gamma   120.00000189
_symmetry_Int_Tables_number   1
_chemical_formula_structural   DyTmMn3Fe9P7
_chemical_formula_sum   'Dy1 Tm1 Mn3 Fe9 P7'
_cell_volume   255.36601212
_cell_formula_units_Z   1
loop_
 _symmetry_equiv_pos_site_id
 _symmetry_equiv_pos_as_xyz
  1  'x, y, z'
loop_
 _atom_site_type_symbol
 _atom_site_label
 _atom_site_symmetry_multiplicity
 _atom_site_fract_x
 _atom_site_fract_y
 _atom_site_fract_z
 _atom_site_occupancy
  Dy  Dy0  1  0.666667  0.333333  0.500000  1
  Tm  Tm1  1  0.000000  0.000000  0.000000  1
  Mn  Mn2  1  0.450389  0.562591  0.500000  1
  Mn  Mn3  1  0.437409  0.887800  0.500000  1
  Mn  Mn4  1  0.112200  0.549611  0.500000  1
  Fe  Fe5  1  0.701909  0.611542  0.000000  1
  Fe  Fe6  1  0.388458  0.090367  0.000000  1
  Fe  Fe7  1  0.909633  0.298091  0.000000  1
  Fe  Fe8  1  0.213209  0.391529  0.000000  1
  Fe  Fe9  1  0.608471  0.821681  0.000000  1
  Fe  Fe10  1  0.178319  0.786791  0.000000  1
  Fe  Fe11  1  0.282622  0.230973  0.500000  1
  Fe  Fe12  1  0.769027  0.051648  0.500000  1
  Fe  Fe13  1  0.948352  0.717378  0.500000  1
  P  P14  1  0.444480  0.363688  0.000000  1
  P  P15  1  0.636312  0.080792  0.000000  1
  P  P16  1  0.919208  0.555520  0.000000  1
  P  P17  1  0.043778  0.258121  0.500000  1
  P  P18  1  0.741879  0.785659  0.500000  1
  P  P19  1  0.214341  0.956222  0.500000  1
  P  P20  1  0.333333  0.666667  0.000000  1
