# generated using pymatgen
data_Y5Er5(Ir2Ru)2
_symmetry_space_group_name_H-M   'P 1'
_cell_length_a   10.80096571
_cell_length_b   10.79469700
_cell_length_c   6.42092123
_cell_angle_alpha   90.00000000
_cell_angle_beta   90.09528414
_cell_angle_gamma   90.00000000
_symmetry_Int_Tables_number   1
_chemical_formula_structural   Y5Er5(Ir2Ru)2
_chemical_formula_sum   'Y10 Er10 Ir8 Ru4'
_cell_volume   748.63441113
_cell_formula_units_Z   2
loop_
 _symmetry_equiv_pos_site_id
 _symmetry_equiv_pos_as_xyz
  1  'x, y, z'
loop_
 _atom_site_type_symbol
 _atom_site_label
 _atom_site_symmetry_multiplicity
 _atom_site_fract_x
 _atom_site_fract_y
 _atom_site_fract_z
 _atom_site_occupancy
  Y  Y0  1  0.291597  0.087964  0.376531  1
  Y  Y1  1  0.291597  0.912036  0.876531  1
  Y  Y2  1  0.708342  0.087785  0.877374  1
  Y  Y3  1  0.708342  0.912215  0.377374  1
  Y  Y4  1  0.588167  0.791912  0.877288  1
  Y  Y5  1  0.588167  0.208088  0.377288  1
  Y  Y6  1  0.413352  0.792818  0.377446  1
  Y  Y7  1  0.413352  0.207182  0.877446  1
  Y  Y8  1  0.206230  0.413234  0.621881  1
  Y  Y9  1  0.206230  0.586766  0.121881  1
  Er  Er10  1  0.793779  0.414209  0.121661  1
  Er  Er11  1  0.793779  0.585791  0.621661  1
  Er  Er12  1  0.913716  0.705915  0.121533  1
  Er  Er13  1  0.913716  0.294085  0.621533  1
  Er  Er14  1  0.084465  0.705405  0.620860  1
  Er  Er15  1  0.084465  0.294595  0.120860  1
  Er  Er16  1  0.999709  0.000173  0.502455  1
  Er  Er17  1  0.999709  0.999827  0.002455  1
  Er  Er18  1  0.500734  0.499884  0.001185  1
  Er  Er19  1  0.500734  0.500116  0.501185  1
  Ir  Ir20  1  0.851553  0.154297  0.250565  1
  Ir  Ir21  1  0.851553  0.845703  0.750565  1
  Ir  Ir22  1  0.149119  0.152048  0.753113  1
  Ir  Ir23  1  0.149119  0.847952  0.253113  1
  Ir  Ir24  1  0.654217  0.351224  0.750778  1
  Ir  Ir25  1  0.654217  0.648776  0.250778  1
  Ir  Ir26  1  0.347969  0.349674  0.249374  1
  Ir  Ir27  1  0.347969  0.650326  0.749374  1
  Ru  Ru28  1  0.500044  0.000737  0.123693  1
  Ru  Ru29  1  0.500044  0.999263  0.623693  1
  Ru  Ru30  1  0.997007  0.500167  0.874264  1
  Ru  Ru31  1  0.997007  0.499833  0.374264  1
