# generated using pymatgen
data_Nd3Y2Mg3(Ni4P3)4
_symmetry_space_group_name_H-M   'P 1'
_cell_length_a   12.33989832
_cell_length_b   12.33989829
_cell_length_c   3.84702700
_cell_angle_alpha   90.00000000
_cell_angle_beta   90.00000000
_cell_angle_gamma   119.97380921
_symmetry_Int_Tables_number   1
_chemical_formula_structural   Nd3Y2Mg3(Ni4P3)4
_chemical_formula_sum   'Nd3 Y2 Mg3 Ni16 P12'
_cell_volume   507.45038237
_cell_formula_units_Z   1
loop_
 _symmetry_equiv_pos_site_id
 _symmetry_equiv_pos_as_xyz
  1  'x, y, z'
loop_
 _atom_site_type_symbol
 _atom_site_label
 _atom_site_symmetry_multiplicity
 _atom_site_fract_x
 _atom_site_fract_y
 _atom_site_fract_z
 _atom_site_occupancy
  Nd  Nd0  1  0.186470  0.186470  0.500000  1
  Nd  Nd1  1  0.333462  0.666575  0.000000  1
  Nd  Nd2  1  0.666575  0.333462  0.000000  1
  Y  Y3  1  0.812685  0.999739  0.500000  1
  Y  Y4  1  0.999739  0.812685  0.500000  1
  Mg  Mg5  1  0.566036  0.566036  0.000000  1
  Mg  Mg6  1  0.435689  0.999618  0.000000  1
  Mg  Mg7  1  0.999618  0.435689  0.000000  1
  Ni  Ni8  1  0.721714  0.721714  0.500000  1
  Ni  Ni9  1  0.278861  0.998468  0.500000  1
  Ni  Ni10  1  0.998468  0.278861  0.500000  1
  Ni  Ni11  1  0.182760  0.379167  0.000000  1
  Ni  Ni12  1  0.623416  0.806201  0.000000  1
  Ni  Ni13  1  0.193749  0.816024  0.000000  1
  Ni  Ni14  1  0.806201  0.623416  0.000000  1
  Ni  Ni15  1  0.816024  0.193749  0.000000  1
  Ni  Ni16  1  0.379167  0.182760  0.000000  1
  Ni  Ni17  1  0.364716  0.484706  0.500000  1
  Ni  Ni18  1  0.517071  0.880435  0.500000  1
  Ni  Ni19  1  0.119704  0.636657  0.500000  1
  Ni  Ni20  1  0.880435  0.517071  0.500000  1
  Ni  Ni21  1  0.636657  0.119704  0.500000  1
  Ni  Ni22  1  0.484706  0.364716  0.500000  1
  Ni  Ni23  1  0.998208  0.998208  0.000000  1
  P  P24  1  0.822819  0.822819  0.000000  1
  P  P25  1  0.175293  0.996321  0.000000  1
  P  P26  1  0.996321  0.175293  0.000000  1
  P  P27  1  0.170536  0.472683  0.500000  1
  P  P28  1  0.527510  0.698288  0.500000  1
  P  P29  1  0.302497  0.828815  0.500000  1
  P  P30  1  0.698288  0.527510  0.500000  1
  P  P31  1  0.828815  0.302497  0.500000  1
  P  P32  1  0.472683  0.170536  0.500000  1
  P  P33  1  0.362692  0.362692  0.000000  1
  P  P34  1  0.640603  0.999809  0.000000  1
  P  P35  1  0.999809  0.640603  0.000000  1
