# generated using pymatgen
data_Rb4Be3O5
_symmetry_space_group_name_H-M   'P 1'
_cell_length_a   6.62008081
_cell_length_b   6.62008174
_cell_length_c   11.51594397
_cell_angle_alpha   66.93081916
_cell_angle_beta   66.93079316
_cell_angle_gamma   67.14269928
_symmetry_Int_Tables_number   1
_chemical_formula_structural   Rb4Be3O5
_chemical_formula_sum   'Rb8 Be6 O10'
_cell_volume   410.42240858
_cell_formula_units_Z   2
loop_
 _symmetry_equiv_pos_site_id
 _symmetry_equiv_pos_as_xyz
  1  'x, y, z'
loop_
 _atom_site_type_symbol
 _atom_site_label
 _atom_site_symmetry_multiplicity
 _atom_site_fract_x
 _atom_site_fract_y
 _atom_site_fract_z
 _atom_site_occupancy
  Rb  Rb0  1  0.439148  0.228962  0.595134  1
  Rb  Rb1  1  0.771038  0.560852  0.904865  1
  Rb  Rb2  1  0.560852  0.771038  0.404866  1
  Rb  Rb3  1  0.228962  0.439148  0.095135  1
  Rb  Rb4  1  0.255459  0.081695  0.925606  1
  Rb  Rb5  1  0.918305  0.744541  0.574394  1
  Rb  Rb6  1  0.744541  0.918305  0.074394  1
  Rb  Rb7  1  0.081695  0.255459  0.425606  1
  Be  Be8  1  0.311415  0.688585  0.750000  1
  Be  Be9  1  0.688585  0.311415  0.250000  1
  Be  Be10  1  0.268981  0.731019  0.250000  1
  Be  Be11  1  0.731019  0.268981  0.750000  1
  Be  Be12  1  0.978903  0.021097  0.250000  1
  Be  Be13  1  0.021097  0.978903  0.750000  1
  O  O14  1  0.478281  0.521719  0.250000  1
  O  O15  1  0.521719  0.478281  0.750000  1
  O  O16  1  0.870310  0.226974  0.129029  1
  O  O17  1  0.773026  0.129690  0.370972  1
  O  O18  1  0.129690  0.773026  0.870971  1
  O  O19  1  0.226974  0.870310  0.629028  1
  O  O20  1  0.257080  0.980547  0.236036  1
  O  O21  1  0.019453  0.742920  0.263964  1
  O  O22  1  0.742920  0.019453  0.763964  1
  O  O23  1  0.980547  0.257080  0.736036  1
