# generated using pymatgen
data_NpSc3Ge6Ru7
_symmetry_space_group_name_H-M   'P 1'
_cell_length_a   7.09422357
_cell_length_b   7.09422370
_cell_length_c   7.12095400
_cell_angle_alpha   109.54757109
_cell_angle_beta   109.54757144
_cell_angle_gamma   109.39476572
_symmetry_Int_Tables_number   1
_chemical_formula_structural   NpSc3Ge6Ru7
_chemical_formula_sum   'Np1 Sc3 Ge6 Ru7'
_cell_volume   275.62330126
_cell_formula_units_Z   1
loop_
 _symmetry_equiv_pos_site_id
 _symmetry_equiv_pos_as_xyz
  1  'x, y, z'
loop_
 _atom_site_type_symbol
 _atom_site_label
 _atom_site_symmetry_multiplicity
 _atom_site_fract_x
 _atom_site_fract_y
 _atom_site_fract_z
 _atom_site_occupancy
  Np  Np0  1  0.000000  0.000000  0.500000  1
  Sc  Sc1  1  0.000000  0.500000  0.000000  1
  Sc  Sc2  1  0.500000  0.000000  0.000000  1
  Sc  Sc3  1  0.500000  0.500000  0.500000  1
  Ge  Ge4  1  0.686684  0.686684  0.990923  1
  Ge  Ge5  1  0.313316  0.000000  0.304239  1
  Ge  Ge6  1  0.000000  0.313316  0.304239  1
  Ge  Ge7  1  0.313316  0.313316  0.009077  1
  Ge  Ge8  1  0.686683  0.000000  0.695761  1
  Ge  Ge9  1  0.000000  0.686684  0.695761  1
  Ru  Ru10  1  0.754147  0.245853  0.500000  1
  Ru  Ru11  1  0.754147  0.508294  0.254147  1
  Ru  Ru12  1  0.491706  0.245853  0.745853  1
  Ru  Ru13  1  0.245853  0.491706  0.745853  1
  Ru  Ru14  1  0.245853  0.754147  0.500000  1
  Ru  Ru15  1  0.508294  0.754147  0.254147  1
  Ru  Ru16  1  0.000000  0.000000  0.000000  1
