# generated using pymatgen
data_AgRh2F12
_symmetry_space_group_name_H-M   'P 1'
_cell_length_a   5.33024515
_cell_length_b   5.77250969
_cell_length_c   9.12357629
_cell_angle_alpha   104.61940508
_cell_angle_beta   90.83506788
_cell_angle_gamma   117.74498965
_symmetry_Int_Tables_number   1
_chemical_formula_structural   AgRh2F12
_chemical_formula_sum   'Ag1 Rh2 F12'
_cell_volume   237.52718373
_cell_formula_units_Z   1
loop_
 _symmetry_equiv_pos_site_id
 _symmetry_equiv_pos_as_xyz
  1  'x, y, z'
loop_
 _atom_site_type_symbol
 _atom_site_label
 _atom_site_symmetry_multiplicity
 _atom_site_fract_x
 _atom_site_fract_y
 _atom_site_fract_z
 _atom_site_occupancy
  Ag  Ag0  1  0.000000  0.000000  0.000000  1
  Rh  Rh1  1  0.767705  0.504040  0.256693  1
  Rh  Rh2  1  0.232295  0.495960  0.743307  1
  F  F3  1  0.833267  0.272734  0.708339  1
  F  F4  1  0.166733  0.727266  0.291661  1
  F  F5  1  0.206051  0.726193  0.931064  1
  F  F6  1  0.729509  0.729985  0.431117  1
  F  F7  1  0.270491  0.270015  0.568883  1
  F  F8  1  0.794184  0.280660  0.366678  1
  F  F9  1  0.205816  0.719340  0.633322  1
  F  F10  1  0.357019  0.271148  0.214068  1
  F  F11  1  0.642981  0.728852  0.785932  1
  F  F12  1  0.723354  0.719423  0.136087  1
  F  F13  1  0.276646  0.280577  0.863913  1
  F  F14  1  0.793949  0.273807  0.068936  1
