# generated using pymatgen
data_K6AlTe4Br
_symmetry_space_group_name_H-M   'P 1'
_cell_length_a   11.33970600
_cell_length_b   11.33970696
_cell_length_c   8.22098300
_cell_angle_alpha   90.00000000
_cell_angle_beta   90.00000000
_cell_angle_gamma   120.00000303
_symmetry_Int_Tables_number   1
_chemical_formula_structural   K6AlTe4Br
_chemical_formula_sum   'K12 Al2 Te8 Br2'
_cell_volume   915.49925502
_cell_formula_units_Z   2
loop_
 _symmetry_equiv_pos_site_id
 _symmetry_equiv_pos_as_xyz
  1  'x, y, z'
loop_
 _atom_site_type_symbol
 _atom_site_label
 _atom_site_symmetry_multiplicity
 _atom_site_fract_x
 _atom_site_fract_y
 _atom_site_fract_z
 _atom_site_occupancy
  K  K0  1  0.130000  0.870000  0.518464  1
  K  K1  1  0.739998  0.870000  0.518464  1
  K  K2  1  0.957934  0.478967  0.318857  1
  K  K3  1  0.521033  0.478967  0.318857  1
  K  K4  1  0.870000  0.739998  0.018464  1
  K  K5  1  0.260002  0.130000  0.018464  1
  K  K6  1  0.521033  0.042066  0.318857  1
  K  K7  1  0.130000  0.260002  0.518464  1
  K  K8  1  0.870000  0.130000  0.018464  1
  K  K9  1  0.042066  0.521033  0.818857  1
  K  K10  1  0.478967  0.957934  0.818857  1
  K  K11  1  0.478967  0.521033  0.818857  1
  Al  Al12  1  0.666667  0.333333  0.707960  1
  Al  Al13  1  0.333333  0.666667  0.207960  1
  Te  Te14  1  0.410386  0.205193  0.604190  1
  Te  Te15  1  0.589614  0.794807  0.104190  1
  Te  Te16  1  0.666667  0.333333  0.033489  1
  Te  Te17  1  0.794807  0.589614  0.604190  1
  Te  Te18  1  0.205193  0.410386  0.104190  1
  Te  Te19  1  0.333333  0.666667  0.533489  1
  Te  Te20  1  0.205193  0.794807  0.104190  1
  Te  Te21  1  0.794807  0.205193  0.604190  1
  Br  Br22  1  0.000000  0.000000  0.274621  1
  Br  Br23  1  0.000000  0.000000  0.774621  1
