# generated using pymatgen
data_Mn4Br7F
_symmetry_space_group_name_H-M   'P 1'
_cell_length_a   7.92231384
_cell_length_b   7.92231362
_cell_length_c   7.92231353
_cell_angle_alpha   57.64993163
_cell_angle_beta   57.64993385
_cell_angle_gamma   57.64993096
_symmetry_Int_Tables_number   1
_chemical_formula_structural   Mn4Br7F
_chemical_formula_sum   'Mn4 Br7 F1'
_cell_volume   332.60477428
_cell_formula_units_Z   1
loop_
 _symmetry_equiv_pos_site_id
 _symmetry_equiv_pos_as_xyz
  1  'x, y, z'
loop_
 _atom_site_type_symbol
 _atom_site_label
 _atom_site_symmetry_multiplicity
 _atom_site_fract_x
 _atom_site_fract_y
 _atom_site_fract_z
 _atom_site_occupancy
  Mn  Mn0  1  0.614118  0.136531  0.136531  1
  Mn  Mn1  1  0.126942  0.126942  0.126942  1
  Mn  Mn2  1  0.136531  0.136531  0.614118  1
  Mn  Mn3  1  0.136531  0.614118  0.136531  1
  Br  Br4  1  0.375324  0.375324  0.882936  1
  Br  Br5  1  0.887864  0.887864  0.887864  1
  Br  Br6  1  0.879678  0.879678  0.371362  1
  Br  Br7  1  0.371362  0.879678  0.879678  1
  Br  Br8  1  0.375324  0.882936  0.375324  1
  Br  Br9  1  0.879678  0.371362  0.879678  1
  Br  Br10  1  0.882936  0.375324  0.375324  1
  F  F11  1  0.333710  0.333710  0.333710  1
