# generated using pymatgen
data_EuEr2Al3Ge2Pd
_symmetry_space_group_name_H-M   'P 1'
_cell_length_a   6.99960800
_cell_length_b   6.99827666
_cell_length_c   4.27462800
_cell_angle_alpha   90.00000000
_cell_angle_beta   90.00000000
_cell_angle_gamma   120.00629322
_symmetry_Int_Tables_number   1
_chemical_formula_structural   EuEr2Al3Ge2Pd
_chemical_formula_sum   'Eu1 Er2 Al3 Ge2 Pd1'
_cell_volume   181.32857143
_cell_formula_units_Z   1
loop_
 _symmetry_equiv_pos_site_id
 _symmetry_equiv_pos_as_xyz
  1  'x, y, z'
loop_
 _atom_site_type_symbol
 _atom_site_label
 _atom_site_symmetry_multiplicity
 _atom_site_fract_x
 _atom_site_fract_y
 _atom_site_fract_z
 _atom_site_occupancy
  Eu  Eu0  1  0.420063  0.000000  0.000000  1
  Er  Er1  1  0.001999  0.416811  0.000000  1
  Er  Er2  1  0.585188  0.583189  0.000000  1
  Al  Al3  1  0.769231  0.000000  0.500001  1
  Al  Al4  1  0.231999  0.236785  0.500001  1
  Al  Al5  1  0.995214  0.763215  0.500001  1
  Ge  Ge6  1  0.675076  0.344242  0.500001  1
  Ge  Ge7  1  0.330834  0.655758  0.500001  1
  Pd  Pd8  1  0.990396  0.000000  0.000000  1
