# generated using pymatgen
data_CaH8
_symmetry_space_group_name_H-M   'P 1'
_cell_length_a   3.66227772
_cell_length_b   3.66037185
_cell_length_c   11.44940760
_cell_angle_alpha   90.07985689
_cell_angle_beta   89.80070528
_cell_angle_gamma   119.65582640
_symmetry_Int_Tables_number   1
_chemical_formula_structural   CaH8
_chemical_formula_sum   'Ca1 H8'
_cell_volume   133.37770318
_cell_formula_units_Z   1
loop_
 _symmetry_equiv_pos_site_id
 _symmetry_equiv_pos_as_xyz
  1  'x, y, z'
loop_
 _atom_site_type_symbol
 _atom_site_label
 _atom_site_symmetry_multiplicity
 _atom_site_fract_x
 _atom_site_fract_y
 _atom_site_fract_z
 _atom_site_occupancy
  Ca  Ca0  1  0.454226  0.032237  0.476408  1
  H  H1  1  0.555324  0.209017  0.725502  1
  H  H2  1  0.382902  0.000604  0.138911  1
  H  H3  1  0.266507  0.091076  0.170856  1
  H  H4  1  0.119360  0.363050  0.399039  1
  H  H5  1  0.791253  0.701839  0.552111  1
  H  H6  1  0.800941  0.820253  0.904361  1
  H  H7  1  0.389901  0.986278  0.738825  1
  H  H8  1  0.831428  0.710297  0.955497  1
