# generated using pymatgen
data_CeHo(AlNi4)2
_symmetry_space_group_name_H-M   'P 1'
_cell_length_a   4.04855700
_cell_length_b   5.01657400
_cell_length_c   8.31927100
_cell_angle_alpha   90.00000000
_cell_angle_beta   90.00000000
_cell_angle_gamma   90.00000000
_symmetry_Int_Tables_number   1
_chemical_formula_structural   CeHo(AlNi4)2
_chemical_formula_sum   'Ce1 Ho1 Al2 Ni8'
_cell_volume   168.96344381
_cell_formula_units_Z   1
loop_
 _symmetry_equiv_pos_site_id
 _symmetry_equiv_pos_as_xyz
  1  'x, y, z'
loop_
 _atom_site_type_symbol
 _atom_site_label
 _atom_site_symmetry_multiplicity
 _atom_site_fract_x
 _atom_site_fract_y
 _atom_site_fract_z
 _atom_site_occupancy
  Ce  Ce0  1  0.000000  0.500000  0.000000  1
  Ho  Ho1  1  0.000000  0.000000  0.500000  1
  Al  Al2  1  0.500000  0.500000  0.500000  1
  Al  Al3  1  0.500000  0.000000  0.000000  1
  Ni  Ni4  1  0.000000  0.500000  0.327488  1
  Ni  Ni5  1  0.000000  0.000000  0.832829  1
  Ni  Ni6  1  0.000000  0.000000  0.167171  1
  Ni  Ni7  1  0.000000  0.500000  0.672512  1
  Ni  Ni8  1  0.500000  0.751526  0.250759  1
  Ni  Ni9  1  0.500000  0.248474  0.749241  1
  Ni  Ni10  1  0.500000  0.248474  0.250759  1
  Ni  Ni11  1  0.500000  0.751526  0.749241  1
