# generated using pymatgen
data_Ho4AlIr6Ru
_symmetry_space_group_name_H-M   'P 1'
_cell_length_a   5.45729243
_cell_length_b   5.45729370
_cell_length_c   8.33274702
_cell_angle_alpha   90.00138052
_cell_angle_beta   89.99980979
_cell_angle_gamma   119.99498002
_symmetry_Int_Tables_number   1
_chemical_formula_structural   Ho4AlIr6Ru
_chemical_formula_sum   'Ho4 Al1 Ir6 Ru1'
_cell_volume   214.92916351
_cell_formula_units_Z   1
loop_
 _symmetry_equiv_pos_site_id
 _symmetry_equiv_pos_as_xyz
  1  'x, y, z'
loop_
 _atom_site_type_symbol
 _atom_site_label
 _atom_site_symmetry_multiplicity
 _atom_site_fract_x
 _atom_site_fract_y
 _atom_site_fract_z
 _atom_site_occupancy
  Ho  Ho0  1  0.666652  0.333317  0.568963  1
  Ho  Ho1  1  0.333348  0.666683  0.431037  1
  Ho  Ho2  1  0.333354  0.666682  0.060743  1
  Ho  Ho3  1  0.666646  0.333318  0.939257  1
  Al  Al4  1  0.000000  0.000000  0.500000  1
  Ir  Ir5  1  0.170131  0.340201  0.746676  1
  Ir  Ir6  1  0.170105  0.829884  0.746681  1
  Ir  Ir7  1  0.659806  0.829882  0.746673  1
  Ir  Ir8  1  0.829869  0.659799  0.253324  1
  Ir  Ir9  1  0.829895  0.170116  0.253319  1
  Ir  Ir10  1  0.340194  0.170118  0.253327  1
  Ru  Ru11  1  0.000000  0.000000  0.000000  1
