# generated using pymatgen
data_Hf4Mn6GaSi
_symmetry_space_group_name_H-M   'P 1'
_cell_length_a   4.95979128
_cell_length_b   4.95979054
_cell_length_c   8.13947191
_cell_angle_alpha   89.99086416
_cell_angle_beta   90.00913619
_cell_angle_gamma   119.97519608
_symmetry_Int_Tables_number   1
_chemical_formula_structural   Hf4Mn6GaSi
_chemical_formula_sum   'Hf4 Mn6 Ga1 Si1'
_cell_volume   173.44511940
_cell_formula_units_Z   1
loop_
 _symmetry_equiv_pos_site_id
 _symmetry_equiv_pos_as_xyz
  1  'x, y, z'
loop_
 _atom_site_type_symbol
 _atom_site_label
 _atom_site_symmetry_multiplicity
 _atom_site_fract_x
 _atom_site_fract_y
 _atom_site_fract_z
 _atom_site_occupancy
  Hf  Hf0  1  0.666708  0.333292  0.567247  1
  Hf  Hf1  1  0.333292  0.666708  0.432753  1
  Hf  Hf2  1  0.333168  0.666832  0.066433  1
  Hf  Hf3  1  0.666832  0.333168  0.933567  1
  Mn  Mn4  1  0.175464  0.350214  0.753507  1
  Mn  Mn5  1  0.175585  0.824415  0.753729  1
  Mn  Mn6  1  0.649786  0.824536  0.753507  1
  Mn  Mn7  1  0.824536  0.649786  0.246493  1
  Mn  Mn8  1  0.824415  0.175585  0.246271  1
  Mn  Mn9  1  0.350214  0.175464  0.246493  1
  Ga  Ga10  1  0.000000  0.000000  0.500000  1
  Si  Si11  1  0.000000  0.000000  0.000000  1
