# generated using pymatgen
data_Hf8Cu5Hg4Pd3
_symmetry_space_group_name_H-M   'P 1'
_cell_length_a   7.30524284
_cell_length_b   7.30620154
_cell_length_c   6.76051420
_cell_angle_alpha   89.94980833
_cell_angle_beta   89.97528578
_cell_angle_gamma   90.08426540
_symmetry_Int_Tables_number   1
_chemical_formula_structural   Hf8Cu5Hg4Pd3
_chemical_formula_sum   'Hf8 Cu5 Hg4 Pd3'
_cell_volume   360.83225957
_cell_formula_units_Z   1
loop_
 _symmetry_equiv_pos_site_id
 _symmetry_equiv_pos_as_xyz
  1  'x, y, z'
loop_
 _atom_site_type_symbol
 _atom_site_label
 _atom_site_symmetry_multiplicity
 _atom_site_fract_x
 _atom_site_fract_y
 _atom_site_fract_z
 _atom_site_occupancy
  Hf  Hf0  1  0.149201  0.153230  0.000538  1
  Hf  Hf1  1  0.846447  0.850160  0.001856  1
  Hf  Hf2  1  0.649181  0.351152  0.499934  1
  Hf  Hf3  1  0.352553  0.651593  0.501330  1
  Hf  Hf4  1  0.691540  0.308126  0.999474  1
  Hf  Hf5  1  0.312437  0.689589  0.999487  1
  Hf  Hf6  1  0.806635  0.807383  0.498993  1
  Hf  Hf7  1  0.191370  0.191655  0.499216  1
  Cu  Cu8  1  0.377619  0.376151  0.208471  1
  Cu  Cu9  1  0.629705  0.627683  0.797343  1
  Cu  Cu10  1  0.623122  0.621985  0.206289  1
  Cu  Cu11  1  0.871701  0.128289  0.703895  1
  Cu  Cu12  1  0.871198  0.128718  0.296982  1
  Hg  Hg13  1  0.505218  0.002024  0.249469  1
  Hg  Hg14  1  0.507572  0.995705  0.749222  1
  Hg  Hg15  1  0.998981  0.493709  0.249688  1
  Hg  Hg16  1  0.992536  0.496014  0.748945  1
  Pd  Pd17  1  0.376761  0.375698  0.788101  1
  Pd  Pd18  1  0.123622  0.875180  0.283699  1
  Pd  Pd19  1  0.122601  0.875955  0.717070  1
