# generated using pymatgen
data_Y5OsRu
_symmetry_space_group_name_H-M   'P 1'
_cell_length_a   6.39489356
_cell_length_b   7.34791457
_cell_length_c   8.52321142
_cell_angle_alpha   96.69526099
_cell_angle_beta   112.03332890
_cell_angle_gamma   89.99999734
_symmetry_Int_Tables_number   1
_chemical_formula_structural   Y5OsRu
_chemical_formula_sum   'Y10 Os2 Ru2'
_cell_volume   368.30009416
_cell_formula_units_Z   2
loop_
 _symmetry_equiv_pos_site_id
 _symmetry_equiv_pos_as_xyz
  1  'x, y, z'
loop_
 _atom_site_type_symbol
 _atom_site_label
 _atom_site_symmetry_multiplicity
 _atom_site_fract_x
 _atom_site_fract_y
 _atom_site_fract_z
 _atom_site_occupancy
  Y  Y0  1  0.978171  0.915333  0.184744  1
  Y  Y1  1  0.793427  0.584667  0.815256  1
  Y  Y2  1  0.021281  0.085161  0.813817  1
  Y  Y3  1  0.207464  0.414839  0.186183  1
  Y  Y4  1  0.640449  0.815869  0.435049  1
  Y  Y5  1  0.205400  0.684131  0.564951  1
  Y  Y6  1  0.359699  0.183963  0.565420  1
  Y  Y7  1  0.794279  0.316037  0.434580  1
  Y  Y8  1  0.422352  0.750000  0.000000  1
  Y  Y9  1  0.579119  0.250000  0.000000  1
  Os  Os10  1  0.822982  0.576379  0.220623  1
  Os  Os11  1  0.602359  0.923621  0.779377  1
  Ru  Ru12  1  0.176137  0.423531  0.779255  1
  Ru  Ru13  1  0.396882  0.076469  0.220745  1
