# generated using pymatgen
data_RbBaSbAsPt2
_symmetry_space_group_name_H-M   'P 1'
_cell_length_a   6.99632772
_cell_length_b   7.06108328
_cell_length_c   7.01937070
_cell_angle_alpha   90.97468891
_cell_angle_beta   89.86868084
_cell_angle_gamma   90.09965482
_symmetry_Int_Tables_number   1
_chemical_formula_structural   RbBaSbAsPt2
_chemical_formula_sum   'Rb2 Ba2 Sb2 As2 Pt4'
_cell_volume   346.71692608
_cell_formula_units_Z   2
loop_
 _symmetry_equiv_pos_site_id
 _symmetry_equiv_pos_as_xyz
  1  'x, y, z'
loop_
 _atom_site_type_symbol
 _atom_site_label
 _atom_site_symmetry_multiplicity
 _atom_site_fract_x
 _atom_site_fract_y
 _atom_site_fract_z
 _atom_site_occupancy
  Rb  Rb0  1  0.628842  0.380201  0.866579  1
  Rb  Rb1  1  0.378089  0.864043  0.631578  1
  Ba  Ba2  1  0.135834  0.116843  0.123506  1
  Ba  Ba3  1  0.872926  0.635197  0.374923  1
  Sb  Sb4  1  0.158341  0.340079  0.666299  1
  Sb  Sb5  1  0.665671  0.165506  0.331029  1
  As  As6  1  0.335065  0.668013  0.161763  1
  As  As7  1  0.843350  0.838819  0.844568  1
  Pt  Pt8  1  0.597346  0.885846  0.088878  1
  Pt  Pt9  1  0.091579  0.611702  0.919733  1
  Pt  Pt10  1  0.393723  0.415608  0.384962  1
  Pt  Pt11  1  0.899233  0.078143  0.606180  1
