# generated using pymatgen
data_Sc8Ti9Re3Ge16
_symmetry_space_group_name_H-M   'P 1'
_cell_length_a   6.73464713
_cell_length_b   6.90123519
_cell_length_c   13.11807800
_cell_angle_alpha   90.00000000
_cell_angle_beta   90.00000000
_cell_angle_gamma   89.78503713
_symmetry_Int_Tables_number   1
_chemical_formula_structural   Sc8Ti9Re3Ge16
_chemical_formula_sum   'Sc8 Ti9 Re3 Ge16'
_cell_volume   609.68965454
_cell_formula_units_Z   1
loop_
 _symmetry_equiv_pos_site_id
 _symmetry_equiv_pos_as_xyz
  1  'x, y, z'
loop_
 _atom_site_type_symbol
 _atom_site_label
 _atom_site_symmetry_multiplicity
 _atom_site_fract_x
 _atom_site_fract_y
 _atom_site_fract_z
 _atom_site_occupancy
  Sc  Sc0  1  0.492196  0.676978  0.593699  1
  Sc  Sc1  1  0.993043  0.823796  0.906687  1
  Sc  Sc2  1  0.505584  0.325176  0.092699  1
  Sc  Sc3  1  0.006709  0.177851  0.407752  1
  Sc  Sc4  1  0.505584  0.325176  0.407301  1
  Sc  Sc5  1  0.006709  0.177851  0.092248  1
  Sc  Sc6  1  0.492196  0.676978  0.906301  1
  Sc  Sc7  1  0.993043  0.823796  0.593313  1
  Ti  Ti8  1  0.663413  0.164345  0.627286  1
  Ti  Ti9  1  0.162484  0.334368  0.872734  1
  Ti  Ti10  1  0.337396  0.831443  0.126130  1
  Ti  Ti11  1  0.841675  0.664273  0.372710  1
  Ti  Ti12  1  0.337396  0.831443  0.373870  1
  Ti  Ti13  1  0.841675  0.664273  0.127290  1
  Ti  Ti14  1  0.663413  0.164345  0.872714  1
  Ti  Ti15  1  0.162484  0.334368  0.627266  1
  Ti  Ti16  1  0.662538  0.989721  0.250000  1
  Re  Re17  1  0.837432  0.487092  0.750000  1
  Re  Re18  1  0.337585  0.011757  0.750000  1
  Re  Re19  1  0.160948  0.510958  0.250000  1
  Ge  Ge20  1  0.679378  0.961633  0.458416  1
  Ge  Ge21  1  0.179693  0.539610  0.041507  1
  Ge  Ge22  1  0.319335  0.039665  0.957781  1
  Ge  Ge23  1  0.818413  0.460438  0.542103  1
  Ge  Ge24  1  0.319335  0.039665  0.542219  1
  Ge  Ge25  1  0.818413  0.460438  0.957897  1
  Ge  Ge26  1  0.679378  0.961633  0.041584  1
  Ge  Ge27  1  0.179693  0.539610  0.458493  1
  Ge  Ge28  1  0.466631  0.383330  0.750000  1
  Ge  Ge29  1  0.967574  0.115385  0.750000  1
  Ge  Ge30  1  0.534358  0.619016  0.250000  1
  Ge  Ge31  1  0.035287  0.884940  0.250000  1
  Ge  Ge32  1  0.694404  0.849606  0.750000  1
  Ge  Ge33  1  0.193495  0.649523  0.750000  1
  Ge  Ge34  1  0.306807  0.150161  0.250000  1
  Ge  Ge35  1  0.804301  0.349362  0.250000  1
