# generated using pymatgen
data_LiTb11(NdSn2)8
_symmetry_space_group_name_H-M   'P 1'
_cell_length_a   8.11817000
_cell_length_b   8.27462108
_cell_length_c   15.62705900
_cell_angle_alpha   90.00000000
_cell_angle_beta   90.00000000
_cell_angle_gamma   90.00789368
_symmetry_Int_Tables_number   1
_chemical_formula_structural   LiTb11(NdSn2)8
_chemical_formula_sum   'Li1 Tb11 Nd8 Sn16'
_cell_volume   1049.74424980
_cell_formula_units_Z   1
loop_
 _symmetry_equiv_pos_site_id
 _symmetry_equiv_pos_as_xyz
  1  'x, y, z'
loop_
 _atom_site_type_symbol
 _atom_site_label
 _atom_site_symmetry_multiplicity
 _atom_site_fract_x
 _atom_site_fract_y
 _atom_site_fract_z
 _atom_site_occupancy
  Li  Li0  1  0.310506  0.994564  0.250000  1
  Tb  Tb1  1  0.351482  0.830240  0.874384  1
  Tb  Tb2  1  0.849313  0.664188  0.621663  1
  Tb  Tb3  1  0.642226  0.164667  0.373339  1
  Tb  Tb4  1  0.150617  0.330540  0.124111  1
  Tb  Tb5  1  0.642226  0.164667  0.126661  1
  Tb  Tb6  1  0.150617  0.330540  0.375889  1
  Tb  Tb7  1  0.351482  0.830240  0.625616  1
  Tb  Tb8  1  0.849313  0.664188  0.878337  1
  Tb  Tb9  1  0.184763  0.499185  0.750000  1
  Tb  Tb10  1  0.684635  0.998655  0.750000  1
  Tb  Tb11  1  0.818877  0.499570  0.250000  1
  Nd  Nd12  1  0.507323  0.323677  0.904393  1
  Nd  Nd13  1  0.005287  0.177597  0.596584  1
  Nd  Nd14  1  0.491118  0.686659  0.402098  1
  Nd  Nd15  1  0.999423  0.823523  0.095740  1
  Nd  Nd16  1  0.491118  0.686659  0.097902  1
  Nd  Nd17  1  0.999423  0.823523  0.404260  1
  Nd  Nd18  1  0.507323  0.323677  0.595607  1
  Nd  Nd19  1  0.005287  0.177597  0.903416  1
  Sn  Sn20  1  0.313127  0.042993  0.037312  1
  Sn  Sn21  1  0.809474  0.460918  0.455909  1
  Sn  Sn22  1  0.683861  0.960611  0.539453  1
  Sn  Sn23  1  0.188880  0.538726  0.959364  1
  Sn  Sn24  1  0.683861  0.960611  0.960547  1
  Sn  Sn25  1  0.188880  0.538726  0.540636  1
  Sn  Sn26  1  0.313127  0.042993  0.462688  1
  Sn  Sn27  1  0.809474  0.460918  0.044091  1
  Sn  Sn28  1  0.551420  0.617554  0.750000  1
  Sn  Sn29  1  0.047381  0.878880  0.750000  1
  Sn  Sn30  1  0.448285  0.388997  0.250000  1
  Sn  Sn31  1  0.956824  0.111889  0.250000  1
  Sn  Sn32  1  0.315450  0.142527  0.750000  1
  Sn  Sn33  1  0.815413  0.357126  0.750000  1
  Sn  Sn34  1  0.693787  0.858865  0.250000  1
  Sn  Sn35  1  0.188395  0.643501  0.250000  1
