# generated using pymatgen
data_LaEuPb2O7
_symmetry_space_group_name_H-M   'P 1'
_cell_length_a   7.83497715
_cell_length_b   7.82465733
_cell_length_c   7.82465755
_cell_angle_alpha   59.90911005
_cell_angle_beta   59.95635991
_cell_angle_gamma   59.95636409
_symmetry_Int_Tables_number   1
_chemical_formula_structural   LaEuPb2O7
_chemical_formula_sum   'La2 Eu2 Pb4 O14'
_cell_volume   338.74104330
_cell_formula_units_Z   2
loop_
 _symmetry_equiv_pos_site_id
 _symmetry_equiv_pos_as_xyz
  1  'x, y, z'
loop_
 _atom_site_type_symbol
 _atom_site_label
 _atom_site_symmetry_multiplicity
 _atom_site_fract_x
 _atom_site_fract_y
 _atom_site_fract_z
 _atom_site_occupancy
  La  La0  1  0.500000  0.500000  0.500000  1
  La  La1  1  0.999999  0.500000  0.500000  1
  Eu  Eu2  1  0.500000  0.500000  0.999999  1
  Eu  Eu3  1  0.500000  0.999999  0.500000  1
  Pb  Pb4  1  0.000000  0.000000  0.000000  1
  Pb  Pb5  1  0.000000  0.000000  0.500000  1
  Pb  Pb6  1  0.500000  0.000000  0.000000  1
  Pb  Pb7  1  0.000000  0.500000  0.000000  1
  O  O8  1  0.907426  0.342574  0.342574  1
  O  O9  1  0.343235  0.906765  0.906765  1
  O  O10  1  0.342711  0.909125  0.342688  1
  O  O11  1  0.342711  0.342688  0.909125  1
  O  O12  1  0.905476  0.342688  0.909125  1
  O  O13  1  0.905476  0.909125  0.342688  1
  O  O14  1  0.657289  0.090874  0.657312  1
  O  O15  1  0.094524  0.657311  0.090875  1
  O  O16  1  0.092573  0.657426  0.657426  1
  O  O17  1  0.657289  0.657312  0.090874  1
  O  O18  1  0.656764  0.093235  0.093235  1
  O  O19  1  0.094524  0.090875  0.657311  1
  O  O20  1  0.379700  0.370298  0.370298  1
  O  O21  1  0.620299  0.629701  0.629701  1
