# generated using pymatgen
data_Sr2Si2AgAu5
_symmetry_space_group_name_H-M   'P 1'
_cell_length_a   6.46978207
_cell_length_b   6.46978207
_cell_length_c   5.31875194
_cell_angle_alpha   90.66902565
_cell_angle_beta   89.33097435
_cell_angle_gamma   90.66786642
_symmetry_Int_Tables_number   1
_chemical_formula_structural   Sr2Si2AgAu5
_chemical_formula_sum   'Sr2 Si2 Ag1 Au5'
_cell_volume   222.58761607
_cell_formula_units_Z   1
loop_
 _symmetry_equiv_pos_site_id
 _symmetry_equiv_pos_as_xyz
  1  'x, y, z'
loop_
 _atom_site_type_symbol
 _atom_site_label
 _atom_site_symmetry_multiplicity
 _atom_site_fract_x
 _atom_site_fract_y
 _atom_site_fract_z
 _atom_site_occupancy
  Sr  Sr0  1  0.501270  0.501270  0.000000  1
  Sr  Sr1  1  0.998730  0.998730  0.000000  1
  Si  Si2  1  0.502506  0.997494  0.703290  1
  Si  Si3  1  0.997494  0.502506  0.296710  1
  Ag  Ag4  1  0.250000  0.250000  0.500000  1
  Au  Au5  1  0.250000  0.750000  0.500000  1
  Au  Au6  1  0.750000  0.250000  0.500000  1
  Au  Au7  1  0.750000  0.750000  0.500000  1
  Au  Au8  1  0.499215  0.000785  0.157455  1
  Au  Au9  1  0.000785  0.499215  0.842545  1
