# generated using pymatgen
data_RbTcP2Pt
_symmetry_space_group_name_H-M   'P 1'
_cell_length_a   7.47399799
_cell_length_b   7.47399866
_cell_length_c   7.47399863
_cell_angle_alpha   148.69106147
_cell_angle_beta   148.69105703
_cell_angle_gamma   44.86625219
_symmetry_Int_Tables_number   1
_chemical_formula_structural   RbTcP2Pt
_chemical_formula_sum   'Rb1 Tc1 P2 Pt1'
_cell_volume   112.39363005
_cell_formula_units_Z   1
loop_
 _symmetry_equiv_pos_site_id
 _symmetry_equiv_pos_as_xyz
  1  'x, y, z'
loop_
 _atom_site_type_symbol
 _atom_site_label
 _atom_site_symmetry_multiplicity
 _atom_site_fract_x
 _atom_site_fract_y
 _atom_site_fract_z
 _atom_site_occupancy
  Rb  Rb0  1  0.000000  0.000000  0.000000  1
  Tc  Tc1  1  0.750000  0.250000  0.500000  1
  P  P2  1  0.341691  0.341691  0.000000  1
  P  P3  1  0.658309  0.658309  0.000000  1
  Pt  Pt4  1  0.250000  0.750000  0.500000  1
