# generated using pymatgen
data_ErLu2In3Cu2Hg
_symmetry_space_group_name_H-M   'P 1'
_cell_length_a   7.52955138
_cell_length_b   7.54899749
_cell_length_c   3.95672900
_cell_angle_alpha   90.00000000
_cell_angle_beta   90.00000000
_cell_angle_gamma   119.82379950
_symmetry_Int_Tables_number   1
_chemical_formula_structural   ErLu2In3Cu2Hg
_chemical_formula_sum   'Er1 Lu2 In3 Cu2 Hg1'
_cell_volume   195.11635774
_cell_formula_units_Z   1
loop_
 _symmetry_equiv_pos_site_id
 _symmetry_equiv_pos_as_xyz
  1  'x, y, z'
loop_
 _atom_site_type_symbol
 _atom_site_label
 _atom_site_symmetry_multiplicity
 _atom_site_fract_x
 _atom_site_fract_y
 _atom_site_fract_z
 _atom_site_occupancy
  Er  Er0  1  0.599923  0.016170  0.500000  1
  Lu  Lu1  1  0.982104  0.584027  0.500000  1
  Lu  Lu2  1  0.416012  0.398888  0.500000  1
  In  In3  1  0.754776  0.743962  0.000000  1
  In  In4  1  0.989080  0.244395  0.000000  1
  In  In5  1  0.256282  0.011244  0.000000  1
  Cu  Cu6  1  0.002169  0.000556  0.500000  1
  Cu  Cu7  1  0.668609  0.336462  0.000000  1
  Hg  Hg8  1  0.331046  0.664296  0.000000  1
