# generated using pymatgen
data_Ce4B16OsRu3
_symmetry_space_group_name_H-M   'P 1'
_cell_length_a   3.62479900
_cell_length_b   6.00572408
_cell_length_c   11.64983300
_cell_angle_alpha   90.00802570
_cell_angle_beta   90.00000000
_cell_angle_gamma   90.00000000
_symmetry_Int_Tables_number   1
_chemical_formula_structural   Ce4B16OsRu3
_chemical_formula_sum   'Ce4 B16 Os1 Ru3'
_cell_volume   253.61153397
_cell_formula_units_Z   1
loop_
 _symmetry_equiv_pos_site_id
 _symmetry_equiv_pos_as_xyz
  1  'x, y, z'
loop_
 _atom_site_type_symbol
 _atom_site_label
 _atom_site_symmetry_multiplicity
 _atom_site_fract_x
 _atom_site_fract_y
 _atom_site_fract_z
 _atom_site_occupancy
  Ce  Ce0  1  0.500000  0.128597  0.149484  1
  Ce  Ce1  1  0.500000  0.871769  0.850407  1
  Ce  Ce2  1  0.500000  0.628297  0.350149  1
  Ce  Ce3  1  0.500000  0.371515  0.649970  1
  B  B4  1  0.000000  0.475200  0.190441  1
  B  B5  1  0.000000  0.525013  0.809424  1
  B  B6  1  0.000000  0.974248  0.309515  1
  B  B7  1  0.000000  0.025517  0.690516  1
  B  B8  1  0.000000  0.285757  0.313874  1
  B  B9  1  0.000000  0.714334  0.686195  1
  B  B10  1  0.000000  0.785377  0.185911  1
  B  B11  1  0.000000  0.214745  0.814029  1
  B  B12  1  0.000000  0.362650  0.468519  1
  B  B13  1  0.000000  0.637476  0.531560  1
  B  B14  1  0.000000  0.862346  0.031546  1
  B  B15  1  0.000000  0.137758  0.968233  1
  B  B16  1  0.000000  0.388598  0.045606  1
  B  B17  1  0.000000  0.611392  0.954200  1
  B  B18  1  0.000000  0.888427  0.454031  1
  B  B19  1  0.000000  0.111835  0.545684  1
  Os  Os20  1  0.500000  0.139794  0.406550  1
  Ru  Ru21  1  0.500000  0.859232  0.593792  1
  Ru  Ru22  1  0.500000  0.639658  0.093669  1
  Ru  Ru23  1  0.500000  0.360468  0.906694  1
