# generated using pymatgen
data_Yb3Ti(B4Ru5)2
_symmetry_space_group_name_H-M   'P 1'
_cell_length_a   2.98332400
_cell_length_b   8.60616617
_cell_length_c   10.16269949
_cell_angle_alpha   90.31931470
_cell_angle_beta   90.00000000
_cell_angle_gamma   90.00000000
_symmetry_Int_Tables_number   1
_chemical_formula_structural   Yb3Ti(B4Ru5)2
_chemical_formula_sum   'Yb3 Ti1 B8 Ru10'
_cell_volume   260.92307523
_cell_formula_units_Z   1
loop_
 _symmetry_equiv_pos_site_id
 _symmetry_equiv_pos_as_xyz
  1  'x, y, z'
loop_
 _atom_site_type_symbol
 _atom_site_label
 _atom_site_symmetry_multiplicity
 _atom_site_fract_x
 _atom_site_fract_y
 _atom_site_fract_z
 _atom_site_occupancy
  Yb  Yb0  1  0.500000  0.842016  0.182908  1
  Yb  Yb1  1  0.500000  0.157458  0.819429  1
  Yb  Yb2  1  0.500000  0.657333  0.680453  1
  Ti  Ti3  1  0.500000  0.346814  0.316917  1
  B  B4  1  0.500000  0.966101  0.590239  1
  B  B5  1  0.500000  0.037118  0.410861  1
  B  B6  1  0.500000  0.853700  0.899918  1
  B  B7  1  0.500000  0.149548  0.100372  1
  B  B8  1  0.500000  0.646285  0.399840  1
  B  B9  1  0.500000  0.350384  0.602446  1
  B  B10  1  0.500000  0.465370  0.910101  1
  B  B11  1  0.500000  0.535628  0.087697  1
  Ru  Ru12  1  0.000000  0.657029  0.956148  1
  Ru  Ru13  1  0.000000  0.343576  0.049458  1
  Ru  Ru14  1  0.000000  0.840660  0.451003  1
  Ru  Ru15  1  0.000000  0.157264  0.542939  1
  Ru  Ru16  1  0.000000  0.001117  0.003946  1
  Ru  Ru17  1  0.000000  0.404970  0.758889  1
  Ru  Ru18  1  0.000000  0.583696  0.241304  1
  Ru  Ru19  1  0.000000  0.485975  0.491676  1
  Ru  Ru20  1  0.000000  0.905086  0.739736  1
  Ru  Ru21  1  0.000000  0.112872  0.263722  1
