# generated using pymatgen
data_NdErNb6(Co4P3)4
_symmetry_space_group_name_H-M   'P 1'
_cell_length_a   12.04594500
_cell_length_b   12.04594442
_cell_length_c   3.66678600
_cell_angle_alpha   90.00000000
_cell_angle_beta   90.00000000
_cell_angle_gamma   119.99999885
_symmetry_Int_Tables_number   1
_chemical_formula_structural   NdErNb6(Co4P3)4
_chemical_formula_sum   'Nd1 Er1 Nb6 Co16 P12'
_cell_volume   460.78457467
_cell_formula_units_Z   1
loop_
 _symmetry_equiv_pos_site_id
 _symmetry_equiv_pos_as_xyz
  1  'x, y, z'
loop_
 _atom_site_type_symbol
 _atom_site_label
 _atom_site_symmetry_multiplicity
 _atom_site_fract_x
 _atom_site_fract_y
 _atom_site_fract_z
 _atom_site_occupancy
  Nd  Nd0  1  0.666667  0.333333  0.000000  1
  Er  Er1  1  0.333333  0.666667  0.000000  1
  Nb  Nb2  1  0.820924  0.000132  0.500000  1
  Nb  Nb3  1  0.999868  0.820792  0.500000  1
  Nb  Nb4  1  0.179208  0.179076  0.500000  1
  Nb  Nb5  1  0.443364  0.998295  0.000000  1
  Nb  Nb6  1  0.001705  0.445069  0.000000  1
  Nb  Nb7  1  0.554931  0.556636  0.000000  1
  Co  Co8  1  0.269668  0.997374  0.500000  1
  Co  Co9  1  0.002626  0.272294  0.500000  1
  Co  Co10  1  0.727706  0.730332  0.500000  1
  Co  Co11  1  0.634035  0.811631  0.000000  1
  Co  Co12  1  0.188369  0.822404  0.000000  1
  Co  Co13  1  0.177596  0.365965  0.000000  1
  Co  Co14  1  0.362981  0.174663  0.000000  1
  Co  Co15  1  0.811682  0.637019  0.000000  1
  Co  Co16  1  0.825337  0.188318  0.000000  1
  Co  Co17  1  0.519138  0.873269  0.500000  1
  Co  Co18  1  0.126731  0.645869  0.500000  1
  Co  Co19  1  0.354131  0.480862  0.500000  1
  Co  Co20  1  0.474269  0.352884  0.500000  1
  Co  Co21  1  0.878615  0.525731  0.500000  1
  Co  Co22  1  0.647116  0.121385  0.500000  1
  Co  Co23  1  0.000000  0.000000  0.000000  1
  P  P24  1  0.171406  0.998553  0.000000  1
  P  P25  1  0.001447  0.172854  0.000000  1
  P  P26  1  0.827146  0.828594  0.000000  1
  P  P27  1  0.522838  0.691531  0.500000  1
  P  P28  1  0.308469  0.831308  0.500000  1
  P  P29  1  0.168692  0.477162  0.500000  1
  P  P30  1  0.471212  0.164107  0.500000  1
  P  P31  1  0.692896  0.528788  0.500000  1
  P  P32  1  0.835893  0.307104  0.500000  1
  P  P33  1  0.647777  0.000274  0.000000  1
  P  P34  1  0.999726  0.647502  0.000000  1
  P  P35  1  0.352498  0.352223  0.000000  1
