# generated using pymatgen
data_Zn22Ir2PdAu
_symmetry_space_group_name_H-M   'P 1'
_cell_length_a   7.96384796
_cell_length_b   7.96772225
_cell_length_c   7.97364279
_cell_angle_alpha   109.42506042
_cell_angle_beta   109.40536612
_cell_angle_gamma   109.54330383
_symmetry_Int_Tables_number   1
_chemical_formula_structural   Zn22Ir2PdAu
_chemical_formula_sum   'Zn22 Ir2 Pd1 Au1'
_cell_volume   389.67748919
_cell_formula_units_Z   1
loop_
 _symmetry_equiv_pos_site_id
 _symmetry_equiv_pos_as_xyz
  1  'x, y, z'
loop_
 _atom_site_type_symbol
 _atom_site_label
 _atom_site_symmetry_multiplicity
 _atom_site_fract_x
 _atom_site_fract_y
 _atom_site_fract_z
 _atom_site_occupancy
  Zn  Zn0  1  0.722348  0.376094  0.720555  1
  Zn  Zn1  1  0.621984  0.354028  0.350412  1
  Zn  Zn2  1  0.350516  0.352654  0.617376  1
  Zn  Zn3  1  0.646821  0.271927  0.000000  1
  Zn  Zn4  1  0.219294  0.214537  0.221115  1
  Zn  Zn5  1  0.998179  0.993422  0.778887  1
  Zn  Zn6  1  0.782648  0.992080  0.000000  1
  Zn  Zn7  1  0.996632  0.787544  0.000000  1
  Zn  Zn8  1  0.359108  0.355480  0.000001  1
  Zn  Zn9  1  0.001414  0.637502  0.649549  1
  Zn  Zn10  1  0.989151  0.351769  0.353771  1
  Zn  Zn11  1  0.351865  0.987953  0.350451  1
  Zn  Zn12  1  0.635381  0.997999  0.646230  1
  Zn  Zn13  1  0.643161  0.640176  0.000000  1
  Zn  Zn14  1  0.355851  0.623077  0.353955  1
  Zn  Zn15  1  0.271571  0.003616  0.649588  1
  Zn  Zn16  1  0.651796  0.003498  0.273241  1
  Zn  Zn17  1  0.281138  0.654426  0.000000  1
  Zn  Zn18  1  0.733139  0.735278  0.382623  1
  Zn  Zn19  1  0.378555  0.730257  0.726759  1
  Zn  Zn20  1  0.001792  0.655538  0.279445  1
  Zn  Zn21  1  0.001895  0.269121  0.646045  1
  Ir  Ir22  1  0.001983  0.002480  0.346536  1
  Ir  Ir23  1  0.655446  0.655943  0.653464  1
  Pd  Pd24  1  0.346813  0.001722  0.999999  1
  Au  Au25  1  0.001519  0.351881  0.000000  1
