# generated using pymatgen
data_TbSm3B4I5
_symmetry_space_group_name_H-M   'P 1'
_cell_length_a   9.74892389
_cell_length_b   9.74892397
_cell_length_c   9.90355678
_cell_angle_alpha   75.30450870
_cell_angle_beta   75.30450806
_cell_angle_gamma   25.57127698
_symmetry_Int_Tables_number   1
_chemical_formula_structural   TbSm3B4I5
_chemical_formula_sum   'Tb1 Sm3 B4 I5'
_cell_volume   392.28794358
_cell_formula_units_Z   1
loop_
 _symmetry_equiv_pos_site_id
 _symmetry_equiv_pos_as_xyz
  1  'x, y, z'
loop_
 _atom_site_type_symbol
 _atom_site_label
 _atom_site_symmetry_multiplicity
 _atom_site_fract_x
 _atom_site_fract_y
 _atom_site_fract_z
 _atom_site_occupancy
  Tb  Tb0  1  0.503672  0.503672  0.756807  1
  Sm  Sm1  1  0.498027  0.498027  0.246945  1
  Sm  Sm2  1  0.131549  0.131549  0.932845  1
  Sm  Sm3  1  0.869783  0.869783  0.063915  1
  B  B4  1  0.315346  0.686085  0.999032  1
  B  B5  1  0.686085  0.315346  0.999032  1
  B  B6  1  0.000453  0.000453  0.095707  1
  B  B7  1  0.000974  0.000974  0.901707  1
  I  I8  1  0.673571  0.673571  0.682827  1
  I  I9  1  0.325999  0.325999  0.315129  1
  I  I10  1  0.330142  0.330142  0.848778  1
  I  I11  1  0.673953  0.673953  0.144706  1
  I  I12  1  0.004746  0.004746  0.502768  1
