# generated using pymatgen
data_Y4Ga18Ir5Au
_symmetry_space_group_name_H-M   'P 1'
_cell_length_a   7.64466685
_cell_length_b   7.64466799
_cell_length_c   9.51301836
_cell_angle_alpha   89.98430749
_cell_angle_beta   89.98430612
_cell_angle_gamma   119.88456258
_symmetry_Int_Tables_number   1
_chemical_formula_structural   Y4Ga18Ir5Au
_chemical_formula_sum   'Y4 Ga18 Ir5 Au1'
_cell_volume   482.02559743
_cell_formula_units_Z   1
loop_
 _symmetry_equiv_pos_site_id
 _symmetry_equiv_pos_as_xyz
  1  'x, y, z'
loop_
 _atom_site_type_symbol
 _atom_site_label
 _atom_site_symmetry_multiplicity
 _atom_site_fract_x
 _atom_site_fract_y
 _atom_site_fract_z
 _atom_site_occupancy
  Y  Y0  1  0.993410  0.665810  0.250909  1
  Y  Y1  1  0.999706  0.329471  0.749191  1
  Y  Y2  1  0.670529  0.000294  0.250809  1
  Y  Y3  1  0.334190  0.006590  0.749091  1
  Ga  Ga4  1  0.127058  0.123809  0.250987  1
  Ga  Ga5  1  0.876191  0.872942  0.749013  1
  Ga  Ga6  1  0.009923  0.334453  0.084586  1
  Ga  Ga7  1  0.010662  0.674438  0.916389  1
  Ga  Ga8  1  0.003039  0.665889  0.578545  1
  Ga  Ga9  1  0.334111  0.996961  0.421455  1
  Ga  Ga10  1  0.998911  0.334507  0.420391  1
  Ga  Ga11  1  0.665493  0.001089  0.579609  1
  Ga  Ga12  1  0.665547  0.990077  0.915414  1
  Ga  Ga13  1  0.325562  0.989338  0.083611  1
  Ga  Ga14  1  0.329735  0.330613  0.563477  1
  Ga  Ga15  1  0.669387  0.670265  0.436523  1
  Ga  Ga16  1  0.668054  0.675727  0.071388  1
  Ga  Ga17  1  0.324273  0.331946  0.928612  1
  Ga  Ga18  1  0.341229  0.550226  0.251528  1
  Ga  Ga19  1  0.660207  0.460651  0.742961  1
  Ga  Ga20  1  0.539349  0.339793  0.257039  1
  Ga  Ga21  1  0.449774  0.658771  0.748472  1
  Ir  Ir22  1  0.330308  0.669692  0.000000  1
  Ir  Ir23  1  0.328787  0.671213  0.500000  1
  Ir  Ir24  1  0.671875  0.328125  0.500000  1
  Ir  Ir25  1  0.000453  0.999547  0.000000  1
  Ir  Ir26  1  0.999755  0.000245  0.500000  1
  Au  Au27  1  0.672480  0.327520  0.000000  1
