# generated using pymatgen
data_Ce3Mn(TlCl3)8
_symmetry_space_group_name_H-M   'P 1'
_cell_length_a   12.91446948
_cell_length_b   12.91446872
_cell_length_c   12.91447000
_cell_angle_alpha   132.11320025
_cell_angle_beta   132.11320919
_cell_angle_gamma   70.05029136
_symmetry_Int_Tables_number   1
_chemical_formula_structural   Ce3Mn(TlCl3)8
_chemical_formula_sum   'Ce3 Mn1 Tl8 Cl24'
_cell_volume   1162.03030073
_cell_formula_units_Z   1
loop_
 _symmetry_equiv_pos_site_id
 _symmetry_equiv_pos_as_xyz
  1  'x, y, z'
loop_
 _atom_site_type_symbol
 _atom_site_label
 _atom_site_symmetry_multiplicity
 _atom_site_fract_x
 _atom_site_fract_y
 _atom_site_fract_z
 _atom_site_occupancy
  Ce  Ce0  1  0.250000  0.750000  0.500000  1
  Ce  Ce1  1  0.500000  0.500000  0.000000  1
  Ce  Ce2  1  0.750000  0.250000  0.500000  1
  Mn  Mn3  1  0.000000  0.000000  0.000000  1
  Tl  Tl4  1  0.363713  0.358904  0.479719  1
  Tl  Tl5  1  0.116005  0.636287  0.995190  1
  Tl  Tl6  1  0.879186  0.883995  0.520281  1
  Tl  Tl7  1  0.122719  0.118116  0.480561  1
  Tl  Tl8  1  0.357843  0.877281  0.995397  1
  Tl  Tl9  1  0.637554  0.642157  0.519439  1
  Tl  Tl10  1  0.641096  0.120814  0.004810  1
  Tl  Tl11  1  0.881884  0.362446  0.004603  1
  Cl  Cl12  1  0.009672  0.811381  0.313011  1
  Cl  Cl13  1  0.028624  0.216269  0.244730  1
  Cl  Cl14  1  0.303339  0.990328  0.801709  1
  Cl  Cl15  1  0.990803  0.190271  0.689004  1
  Cl  Cl16  1  0.125474  0.625474  0.500000  1
  Cl  Cl17  1  0.251854  0.546312  0.798440  1
  Cl  Cl18  1  0.498370  0.696661  0.686989  1
  Cl  Cl19  1  0.501267  0.301799  0.310996  1
  Cl  Cl20  1  0.453688  0.252128  0.705541  1
  Cl  Cl21  1  0.623346  0.623346  0.000000  1
  Cl  Cl22  1  0.546587  0.748146  0.294459  1
  Cl  Cl23  1  0.108407  0.108407  0.000000  1
  Cl  Cl24  1  0.891593  0.891593  0.000000  1
  Cl  Cl25  1  0.971539  0.783894  0.755270  1
  Cl  Cl26  1  0.783731  0.028461  0.812355  1
  Cl  Cl27  1  0.216106  0.971376  0.187645  1
  Cl  Cl28  1  0.747872  0.453413  0.201560  1
  Cl  Cl29  1  0.188619  0.501630  0.198291  1
  Cl  Cl30  1  0.374526  0.874526  0.500000  1
  Cl  Cl31  1  0.874488  0.374488  0.500000  1
  Cl  Cl32  1  0.376654  0.376654  0.000000  1
  Cl  Cl33  1  0.625512  0.125512  0.500000  1
  Cl  Cl34  1  0.809729  0.498733  0.800533  1
  Cl  Cl35  1  0.698201  0.009197  0.199467  1
