# generated using pymatgen
data_Lu10Tl5CuAsPb
_symmetry_space_group_name_H-M   'P 1'
_cell_length_a   8.94436899
_cell_length_b   8.94436780
_cell_length_c   6.67780287
_cell_angle_alpha   89.93562214
_cell_angle_beta   89.93562040
_cell_angle_gamma   119.61879702
_symmetry_Int_Tables_number   1
_chemical_formula_structural   Lu10Tl5CuAsPb
_chemical_formula_sum   'Lu10 Tl5 Cu1 As1 Pb1'
_cell_volume   464.42752485
_cell_formula_units_Z   1
loop_
 _symmetry_equiv_pos_site_id
 _symmetry_equiv_pos_as_xyz
  1  'x, y, z'
loop_
 _atom_site_type_symbol
 _atom_site_label
 _atom_site_symmetry_multiplicity
 _atom_site_fract_x
 _atom_site_fract_y
 _atom_site_fract_z
 _atom_site_occupancy
  Lu  Lu0  1  0.252846  0.001960  0.744337  1
  Lu  Lu1  1  0.749293  0.000947  0.254875  1
  Lu  Lu2  1  0.001960  0.252846  0.744337  1
  Lu  Lu3  1  0.000947  0.749293  0.254875  1
  Lu  Lu4  1  0.747711  0.747711  0.744947  1
  Lu  Lu5  1  0.250019  0.250019  0.257222  1
  Lu  Lu6  1  0.332592  0.665707  0.501478  1
  Lu  Lu7  1  0.665707  0.332592  0.501478  1
  Lu  Lu8  1  0.665155  0.331548  0.997899  1
  Lu  Lu9  1  0.331548  0.665155  0.997899  1
  Tl  Tl10  1  0.600960  0.999790  0.751486  1
  Tl  Tl11  1  0.400139  0.999357  0.249391  1
  Tl  Tl12  1  0.999790  0.600960  0.751486  1
  Tl  Tl13  1  0.999357  0.400139  0.249391  1
  Tl  Tl14  1  0.396694  0.396694  0.749807  1
  Cu  Cu15  1  0.001962  0.001962  0.998541  1
  As  As16  1  0.999125  0.999125  0.499972  1
  Pb  Pb17  1  0.604195  0.604195  0.250576  1
