# generated using pymatgen
data_Ce3Mg2ZnIr2Pd
_symmetry_space_group_name_H-M   'P 1'
_cell_length_a   7.45382800
_cell_length_b   7.44480412
_cell_length_c   3.96323400
_cell_angle_alpha   90.00000000
_cell_angle_beta   90.00000000
_cell_angle_gamma   120.04009530
_symmetry_Int_Tables_number   1
_chemical_formula_structural   Ce3Mg2ZnIr2Pd
_chemical_formula_sum   'Ce3 Mg2 Zn1 Ir2 Pd1'
_cell_volume   190.38703963
_cell_formula_units_Z   1
loop_
 _symmetry_equiv_pos_site_id
 _symmetry_equiv_pos_as_xyz
  1  'x, y, z'
loop_
 _atom_site_type_symbol
 _atom_site_label
 _atom_site_symmetry_multiplicity
 _atom_site_fract_x
 _atom_site_fract_y
 _atom_site_fract_z
 _atom_site_occupancy
  Ce  Ce0  1  0.994362  0.413966  0.000000  1
  Ce  Ce1  1  0.580396  0.586034  0.000000  1
  Ce  Ce2  1  0.433465  0.000000  0.000000  1
  Mg  Mg3  1  0.000672  0.758975  0.500000  1
  Mg  Mg4  1  0.241697  0.241025  0.500000  1
  Zn  Zn5  1  0.754617  0.000000  0.500000  1
  Ir  Ir6  1  0.666871  0.332615  0.500000  1
  Ir  Ir7  1  0.334254  0.667385  0.500000  1
  Pd  Pd8  1  0.993667  0.000000  0.000000  1
