# generated using pymatgen
data_Tb2TmAlC3
_symmetry_space_group_name_H-M   'P 1'
_cell_length_a   3.56945600
_cell_length_b   7.06268744
_cell_length_c   9.95815427
_cell_angle_alpha   89.64876366
_cell_angle_beta   90.00000000
_cell_angle_gamma   90.00000000
_symmetry_Int_Tables_number   1
_chemical_formula_structural   Tb2TmAlC3
_chemical_formula_sum   'Tb4 Tm2 Al2 C6'
_cell_volume   251.03987479
_cell_formula_units_Z   2
loop_
 _symmetry_equiv_pos_site_id
 _symmetry_equiv_pos_as_xyz
  1  'x, y, z'
loop_
 _atom_site_type_symbol
 _atom_site_label
 _atom_site_symmetry_multiplicity
 _atom_site_fract_x
 _atom_site_fract_y
 _atom_site_fract_z
 _atom_site_occupancy
  Tb  Tb0  1  0.500000  0.511485  0.197281  1
  Tb  Tb1  1  0.500000  0.488515  0.802719  1
  Tb  Tb2  1  0.000000  0.750104  0.459461  1
  Tb  Tb3  1  0.000000  0.249896  0.540539  1
  Tm  Tm4  1  0.500000  0.987741  0.201843  1
  Tm  Tm5  1  0.500000  0.012259  0.798157  1
  Al  Al6  1  0.000000  0.763910  0.004493  1
  Al  Al7  1  0.000000  0.236090  0.995507  1
  C  C8  1  0.500000  0.508896  0.566301  1
  C  C9  1  0.500000  0.491104  0.433699  1
  C  C10  1  0.500000  0.991158  0.566391  1
  C  C11  1  0.500000  0.008842  0.433609  1
  C  C12  1  0.000000  0.754478  0.207791  1
  C  C13  1  0.000000  0.245522  0.792209  1
