# generated using pymatgen
data_Ta2NbCrGa2C
_symmetry_space_group_name_H-M   'P 1'
_cell_length_a   8.27535943
_cell_length_b   8.27584250
_cell_length_c   8.26967805
_cell_angle_alpha   60.03293160
_cell_angle_beta   60.03389597
_cell_angle_gamma   59.95904499
_symmetry_Int_Tables_number   1
_chemical_formula_structural   Ta2NbCrGa2C
_chemical_formula_sum   'Ta8 Nb4 Cr4 Ga8 C4'
_cell_volume   400.55034030
_cell_formula_units_Z   4
loop_
 _symmetry_equiv_pos_site_id
 _symmetry_equiv_pos_as_xyz
  1  'x, y, z'
loop_
 _atom_site_type_symbol
 _atom_site_label
 _atom_site_symmetry_multiplicity
 _atom_site_fract_x
 _atom_site_fract_y
 _atom_site_fract_z
 _atom_site_occupancy
  Ta  Ta0  1  0.696474  0.696090  0.303719  1
  Ta  Ta1  1  0.303683  0.303654  0.696540  1
  Ta  Ta2  1  0.554833  0.554225  0.945552  1
  Ta  Ta3  1  0.946436  0.553275  0.553771  1
  Ta  Ta4  1  0.553725  0.946525  0.946452  1
  Ta  Ta5  1  0.945574  0.945429  0.554791  1
  Ta  Ta6  1  0.696801  0.303198  0.696783  1
  Ta  Ta7  1  0.946004  0.553957  0.946016  1
  Nb  Nb8  1  0.553663  0.946338  0.553671  1
  Nb  Nb9  1  0.303571  0.696325  0.696802  1
  Nb  Nb10  1  0.696821  0.303285  0.303574  1
  Nb  Nb11  1  0.302673  0.697340  0.302671  1
  Cr  Cr12  1  0.125384  0.125992  0.123886  1
  Cr  Cr13  1  0.625303  0.125057  0.123063  1
  Cr  Cr14  1  0.123962  0.624757  0.125359  1
  Cr  Cr15  1  0.122966  0.126664  0.625309  1
  Ga  Ga16  1  0.913585  0.913137  0.913452  1
  Ga  Ga17  1  0.990156  0.336732  0.336478  1
  Ga  Ga18  1  0.336758  0.990123  0.336791  1
  Ga  Ga19  1  0.336592  0.336912  0.990199  1
  Ga  Ga20  1  0.913184  0.259851  0.913608  1
  Ga  Ga21  1  0.913227  0.913404  0.259884  1
  Ga  Ga22  1  0.259907  0.913092  0.913344  1
  Ga  Ga23  1  0.336832  0.336562  0.336384  1
  C  C24  1  0.627071  0.622829  0.625101  1
  C  C25  1  0.123304  0.624118  0.626417  1
  C  C26  1  0.625099  0.124985  0.627077  1
  C  C27  1  0.626414  0.626146  0.123310  1
