# generated using pymatgen
data_Ho20Ir9Pd2Au
_symmetry_space_group_name_H-M   'P 1'
_cell_length_a   10.97835245
_cell_length_b   10.97835335
_cell_length_c   6.31022300
_cell_angle_alpha   89.95081178
_cell_angle_beta   89.95081245
_cell_angle_gamma   89.01421297
_symmetry_Int_Tables_number   1
_chemical_formula_structural   Ho20Ir9Pd2Au
_chemical_formula_sum   'Ho20 Ir9 Pd2 Au1'
_cell_volume   760.42166834
_cell_formula_units_Z   1
loop_
 _symmetry_equiv_pos_site_id
 _symmetry_equiv_pos_as_xyz
  1  'x, y, z'
loop_
 _atom_site_type_symbol
 _atom_site_label
 _atom_site_symmetry_multiplicity
 _atom_site_fract_x
 _atom_site_fract_y
 _atom_site_fract_z
 _atom_site_occupancy
  Ho  Ho0  1  0.288939  0.088536  0.375795  1
  Ho  Ho1  1  0.291721  0.916872  0.874704  1
  Ho  Ho2  1  0.704687  0.077943  0.863445  1
  Ho  Ho3  1  0.705420  0.903390  0.379968  1
  Ho  Ho4  1  0.593111  0.791674  0.879807  1
  Ho  Ho5  1  0.575579  0.205523  0.367600  1
  Ho  Ho6  1  0.413065  0.795186  0.367831  1
  Ho  Ho7  1  0.404397  0.206627  0.878202  1
  Ho  Ho8  1  0.208326  0.406889  0.620193  1
  Ho  Ho9  1  0.204814  0.586935  0.132169  1
  Ho  Ho10  1  0.794477  0.424421  0.132400  1
  Ho  Ho11  1  0.793373  0.595603  0.621798  1
  Ho  Ho12  1  0.911464  0.711061  0.124205  1
  Ho  Ho13  1  0.922057  0.295313  0.636555  1
  Ho  Ho14  1  0.083128  0.708279  0.625296  1
  Ho  Ho15  1  0.096610  0.294580  0.120032  1
  Ho  Ho16  1  0.003082  0.995612  0.499618  1
  Ho  Ho17  1  0.004388  0.996918  0.000382  1
  Ho  Ho18  1  0.498971  0.499012  0.999449  1
  Ho  Ho19  1  0.500988  0.501029  0.500551  1
  Ir  Ir20  1  0.848217  0.848507  0.749497  1
  Ir  Ir21  1  0.151493  0.151783  0.750503  1
  Ir  Ir22  1  0.157422  0.842578  0.250000  1
  Ir  Ir23  1  0.651192  0.649790  0.249009  1
  Ir  Ir24  1  0.350210  0.348808  0.250991  1
  Ir  Ir25  1  0.500352  0.999628  0.121600  1
  Ir  Ir26  1  0.499254  0.999880  0.622808  1
  Ir  Ir27  1  0.000120  0.500746  0.877192  1
  Ir  Ir28  1  0.000372  0.499648  0.378400  1
  Pd  Pd29  1  0.657921  0.342079  0.750000  1
  Pd  Pd30  1  0.343177  0.656823  0.750000  1
  Au  Au31  1  0.841675  0.158325  0.250000  1
