# generated using pymatgen
data_Tb5Ho3Pd4
_symmetry_space_group_name_H-M   'P 1'
_cell_length_a   4.87534600
_cell_length_b   7.10133763
_cell_length_c   8.78089867
_cell_angle_alpha   89.95351633
_cell_angle_beta   90.00000000
_cell_angle_gamma   90.00000000
_symmetry_Int_Tables_number   1
_chemical_formula_structural   Tb5Ho3Pd4
_chemical_formula_sum   'Tb5 Ho3 Pd4'
_cell_volume   304.00759033
_cell_formula_units_Z   1
loop_
 _symmetry_equiv_pos_site_id
 _symmetry_equiv_pos_as_xyz
  1  'x, y, z'
loop_
 _atom_site_type_symbol
 _atom_site_label
 _atom_site_symmetry_multiplicity
 _atom_site_fract_x
 _atom_site_fract_y
 _atom_site_fract_z
 _atom_site_occupancy
  Tb  Tb0  1  0.250000  0.485029  0.173244  1
  Tb  Tb1  1  0.750000  0.514357  0.826392  1
  Tb  Tb2  1  0.250000  0.986572  0.326334  1
  Tb  Tb3  1  0.750000  0.014791  0.674419  1
  Tb  Tb4  1  0.750000  0.646393  0.420031  1
  Ho  Ho5  1  0.250000  0.353679  0.579779  1
  Ho  Ho6  1  0.750000  0.145933  0.078980  1
  Ho  Ho7  1  0.250000  0.854315  0.920856  1
  Pd  Pd8  1  0.250000  0.257850  0.907640  1
  Pd  Pd9  1  0.750000  0.742274  0.090559  1
  Pd  Pd10  1  0.250000  0.758827  0.593863  1
  Pd  Pd11  1  0.750000  0.239980  0.407903  1
