# generated using pymatgen
data_Sr2NpCu2Se5
_symmetry_space_group_name_H-M   'P 1'
_cell_length_a   4.18258125
_cell_length_b   7.14817982
_cell_length_c   9.28955066
_cell_angle_alpha   101.42438827
_cell_angle_beta   103.01008572
_cell_angle_gamma   107.01144117
_symmetry_Int_Tables_number   1
_chemical_formula_structural   Sr2NpCu2Se5
_chemical_formula_sum   'Sr2 Np1 Cu2 Se5'
_cell_volume   248.16776955
_cell_formula_units_Z   1
loop_
 _symmetry_equiv_pos_site_id
 _symmetry_equiv_pos_as_xyz
  1  'x, y, z'
loop_
 _atom_site_type_symbol
 _atom_site_label
 _atom_site_symmetry_multiplicity
 _atom_site_fract_x
 _atom_site_fract_y
 _atom_site_fract_z
 _atom_site_occupancy
  Sr  Sr0  1  0.475613  0.647737  0.303488  1
  Sr  Sr1  1  0.524387  0.352263  0.696512  1
  Np  Np2  1  0.000000  0.000000  0.000000  1
  Cu  Cu3  1  0.736222  0.180517  0.291927  1
  Cu  Cu4  1  0.263778  0.819483  0.708073  1
  Se  Se5  1  0.683023  0.302401  0.063646  1
  Se  Se6  1  0.153204  0.995532  0.310875  1
  Se  Se7  1  0.000001  0.500001  0.500000  1
  Se  Se8  1  0.846796  0.004468  0.689126  1
  Se  Se9  1  0.316978  0.697601  0.936354  1
