# generated using pymatgen
data_Zr2V3Co
_symmetry_space_group_name_H-M   'P 1'
_cell_length_a   5.13879251
_cell_length_b   5.13115712
_cell_length_c   5.13879400
_cell_angle_alpha   59.95076693
_cell_angle_beta   60.00000325
_cell_angle_gamma   59.95077329
_symmetry_Int_Tables_number   1
_chemical_formula_structural   Zr2V3Co
_chemical_formula_sum   'Zr2 V3 Co1'
_cell_volume   95.74124099
_cell_formula_units_Z   1
loop_
 _symmetry_equiv_pos_site_id
 _symmetry_equiv_pos_as_xyz
  1  'x, y, z'
loop_
 _atom_site_type_symbol
 _atom_site_label
 _atom_site_symmetry_multiplicity
 _atom_site_fract_x
 _atom_site_fract_y
 _atom_site_fract_z
 _atom_site_occupancy
  Zr  Zr0  1  0.251307  0.246079  0.251307  1
  Zr  Zr1  1  0.998693  0.003921  0.998693  1
  V  V2  1  0.625000  0.625000  0.125000  1
  V  V3  1  0.125000  0.625000  0.625000  1
  V  V4  1  0.625000  0.625000  0.625000  1
  Co  Co5  1  0.625000  0.125000  0.625000  1
