# generated using pymatgen
data_Tm14Lu6IrRh11
_symmetry_space_group_name_H-M   'P 1'
_cell_length_a   10.73568112
_cell_length_b   10.74158000
_cell_length_c   6.28635804
_cell_angle_alpha   90.00002749
_cell_angle_beta   89.99818017
_cell_angle_gamma   89.99750299
_symmetry_Int_Tables_number   1
_chemical_formula_structural   Tm14Lu6IrRh11
_chemical_formula_sum   'Tm14 Lu6 Ir1 Rh11'
_cell_volume   724.93135209
_cell_formula_units_Z   1
loop_
 _symmetry_equiv_pos_site_id
 _symmetry_equiv_pos_as_xyz
  1  'x, y, z'
loop_
 _atom_site_type_symbol
 _atom_site_label
 _atom_site_symmetry_multiplicity
 _atom_site_fract_x
 _atom_site_fract_y
 _atom_site_fract_z
 _atom_site_occupancy
  Tm  Tm0  1  0.709171  0.087640  0.877082  1
  Tm  Tm1  1  0.709144  0.912439  0.377089  1
  Tm  Tm2  1  0.587380  0.790900  0.877107  1
  Tm  Tm3  1  0.587291  0.209055  0.377136  1
  Tm  Tm4  1  0.412035  0.791099  0.377130  1
  Tm  Tm5  1  0.411964  0.208917  0.877122  1
  Tm  Tm6  1  0.208834  0.412392  0.622303  1
  Tm  Tm7  1  0.208916  0.587691  0.123653  1
  Tm  Tm8  1  0.791122  0.412302  0.123759  1
  Tm  Tm9  1  0.791190  0.587607  0.622369  1
  Tm  Tm10  1  0.912355  0.708906  0.123804  1
  Tm  Tm11  1  0.912432  0.291156  0.622438  1
  Tm  Tm12  1  0.087895  0.709062  0.622437  1
  Tm  Tm13  1  0.087980  0.290860  0.123801  1
  Lu  Lu14  1  0.291189  0.087323  0.377687  1
  Lu  Lu15  1  0.291163  0.912608  0.877693  1
  Lu  Lu16  1  0.000354  0.000079  0.499896  1
  Lu  Lu17  1  0.000363  0.999913  0.999811  1
  Lu  Lu18  1  0.499902  0.499948  0.999863  1
  Lu  Lu19  1  0.499908  0.500059  0.499953  1
  Ir  Ir20  1  0.000086  0.499975  0.377049  1
  Rh  Rh21  1  0.846746  0.152771  0.249738  1
  Rh  Rh22  1  0.846790  0.847160  0.749937  1
  Rh  Rh23  1  0.153790  0.152236  0.749211  1
  Rh  Rh24  1  0.153836  0.847807  0.249031  1
  Rh  Rh25  1  0.652851  0.346750  0.749957  1
  Rh  Rh26  1  0.652791  0.653319  0.249849  1
  Rh  Rh27  1  0.347115  0.346176  0.250145  1
  Rh  Rh28  1  0.347074  0.653811  0.750288  1
  Rh  Rh29  1  0.499128  0.000068  0.122680  1
  Rh  Rh30  1  0.499140  0.999925  0.622615  1
  Rh  Rh31  1  0.000066  0.500049  0.877367  1
