# generated using pymatgen
data_NdY2Th(ReB6)2
_symmetry_space_group_name_H-M   'P 1'
_cell_length_a   3.75478600
_cell_length_b   9.27746873
_cell_length_c   11.71626452
_cell_angle_alpha   89.83313569
_cell_angle_beta   90.00000000
_cell_angle_gamma   90.00000000
_symmetry_Int_Tables_number   1
_chemical_formula_structural   NdY2Th(ReB6)2
_chemical_formula_sum   'Nd2 Y4 Th2 Re4 B24'
_cell_volume   408.13328575
_cell_formula_units_Z   2
loop_
 _symmetry_equiv_pos_site_id
 _symmetry_equiv_pos_as_xyz
  1  'x, y, z'
loop_
 _atom_site_type_symbol
 _atom_site_label
 _atom_site_symmetry_multiplicity
 _atom_site_fract_x
 _atom_site_fract_y
 _atom_site_fract_z
 _atom_site_occupancy
  Nd  Nd0  1  0.000000  0.323738  0.414406  1
  Nd  Nd1  1  0.000000  0.676262  0.585594  1
  Y  Y2  1  0.000000  0.443159  0.129727  1
  Y  Y3  1  0.000000  0.556841  0.870273  1
  Y  Y4  1  0.000000  0.942771  0.371166  1
  Y  Y5  1  0.000000  0.057229  0.628834  1
  Th  Th6  1  0.000000  0.821868  0.085990  1
  Th  Th7  1  0.000000  0.178132  0.914010  1
  Re  Re8  1  0.000000  0.137368  0.178951  1
  Re  Re9  1  0.000000  0.862632  0.821049  1
  Re  Re10  1  0.000000  0.640177  0.318849  1
  Re  Re11  1  0.000000  0.359823  0.681151  1
  B  B12  1  0.500000  0.055349  0.070196  1
  B  B13  1  0.500000  0.944651  0.929805  1
  B  B14  1  0.500000  0.555079  0.430853  1
  B  B15  1  0.500000  0.444921  0.569146  1
  B  B16  1  0.500000  0.248918  0.084365  1
  B  B17  1  0.500000  0.751082  0.915635  1
  B  B18  1  0.500000  0.748675  0.416540  1
  B  B19  1  0.500000  0.251325  0.583460  1
  B  B20  1  0.500000  0.290162  0.233833  1
  B  B21  1  0.500000  0.709838  0.766167  1
  B  B22  1  0.500000  0.790327  0.266416  1
  B  B23  1  0.500000  0.209673  0.733584  1
  B  B24  1  0.500000  0.129832  0.313708  1
  B  B25  1  0.500000  0.870168  0.686292  1
  B  B26  1  0.500000  0.630362  0.186794  1
  B  B27  1  0.500000  0.369638  0.813206  1
  B  B28  1  0.500000  0.484840  0.287333  1
  B  B29  1  0.500000  0.515160  0.712667  1
  B  B30  1  0.500000  0.984718  0.213627  1
  B  B31  1  0.500000  0.015282  0.786373  1
  B  B32  1  0.500000  0.098355  0.472535  1
  B  B33  1  0.500000  0.901645  0.527465  1
  B  B34  1  0.500000  0.601193  0.027994  1
  B  B35  1  0.500000  0.398807  0.972006  1
