# generated using pymatgen
data_Tb4Co5Os
_symmetry_space_group_name_H-M   'P 1'
_cell_length_a   5.45743327
_cell_length_b   5.45743357
_cell_length_c   7.06926721
_cell_angle_alpha   90.72200721
_cell_angle_beta   89.27799035
_cell_angle_gamma   121.46388481
_symmetry_Int_Tables_number   1
_chemical_formula_structural   Tb4Co5Os
_chemical_formula_sum   'Tb4 Co5 Os1'
_cell_volume   179.57232098
_cell_formula_units_Z   1
loop_
 _symmetry_equiv_pos_site_id
 _symmetry_equiv_pos_as_xyz
  1  'x, y, z'
loop_
 _atom_site_type_symbol
 _atom_site_label
 _atom_site_symmetry_multiplicity
 _atom_site_fract_x
 _atom_site_fract_y
 _atom_site_fract_z
 _atom_site_occupancy
  Tb  Tb0  1  0.163323  0.836679  0.098103  1
  Tb  Tb1  1  0.660545  0.339456  0.401295  1
  Tb  Tb2  1  0.339456  0.660545  0.598704  1
  Tb  Tb3  1  0.836679  0.163323  0.901897  1
  Co  Co4  1  0.154314  0.330136  0.252621  1
  Co  Co5  1  0.669864  0.845685  0.252621  1
  Co  Co6  1  0.000000  0.000000  0.499999  1
  Co  Co7  1  0.330136  0.154314  0.747379  1
  Co  Co8  1  0.845685  0.669864  0.747379  1
  Os  Os9  1  0.500001  0.500001  0.000000  1
