# generated using pymatgen
data_La20Co3GeSb8
_symmetry_space_group_name_H-M   'P 1'
_cell_length_a   8.35459838
_cell_length_b   9.31095500
_cell_length_c   12.77475928
_cell_angle_alpha   90.00000000
_cell_angle_beta   90.22515937
_cell_angle_gamma   90.00000000
_symmetry_Int_Tables_number   1
_chemical_formula_structural   La20Co3GeSb8
_chemical_formula_sum   'La20 Co3 Ge1 Sb8'
_cell_volume   993.73177526
_cell_formula_units_Z   1
loop_
 _symmetry_equiv_pos_site_id
 _symmetry_equiv_pos_as_xyz
  1  'x, y, z'
loop_
 _atom_site_type_symbol
 _atom_site_label
 _atom_site_symmetry_multiplicity
 _atom_site_fract_x
 _atom_site_fract_y
 _atom_site_fract_z
 _atom_site_occupancy
  La  La0  1  0.147491  0.750000  0.200499  1
  La  La1  1  0.648756  0.250000  0.297614  1
  La  La2  1  0.850542  0.250000  0.799404  1
  La  La3  1  0.337319  0.750000  0.716162  1
  La  La4  1  0.462279  0.750000  0.997822  1
  La  La5  1  0.954790  0.250000  0.501115  1
  La  La6  1  0.552080  0.250000  0.005419  1
  La  La7  1  0.039098  0.750000  0.499136  1
  La  La8  1  0.635704  0.750000  0.288992  1
  La  La9  1  0.122243  0.250000  0.194858  1
  La  La10  1  0.374896  0.250000  0.698927  1
  La  La11  1  0.872060  0.750000  0.800690  1
  La  La12  1  0.816414  0.967838  0.062244  1
  La  La13  1  0.314449  0.048008  0.438688  1
  La  La14  1  0.182022  0.471767  0.939876  1
  La  La15  1  0.689019  0.520926  0.563128  1
  La  La16  1  0.182022  0.028233  0.939876  1
  La  La17  1  0.689019  0.979074  0.563128  1
  La  La18  1  0.816414  0.532162  0.062244  1
  La  La19  1  0.314449  0.451992  0.438688  1
  Co  Co20  1  0.921660  0.250000  0.010996  1
  Co  Co21  1  0.575809  0.250000  0.511273  1
  Co  Co22  1  0.076859  0.750000  0.981997  1
  Ge  Ge23  1  0.436233  0.750000  0.485789  1
  Sb  Sb24  1  0.926536  0.992971  0.326420  1
  Sb  Sb25  1  0.420410  0.006673  0.174895  1
  Sb  Sb26  1  0.074533  0.491610  0.672907  1
  Sb  Sb27  1  0.572706  0.505894  0.826494  1
  Sb  Sb28  1  0.074533  0.008390  0.672907  1
  Sb  Sb29  1  0.572706  0.994106  0.826494  1
  Sb  Sb30  1  0.926536  0.507029  0.326420  1
  Sb  Sb31  1  0.420410  0.493327  0.174895  1
