# generated using pymatgen
data_Sm2Cr3Fe3Ni6P7
_symmetry_space_group_name_H-M   'P 1'
_cell_length_a   9.07776700
_cell_length_b   9.07776790
_cell_length_c   3.68482000
_cell_angle_alpha   90.00000000
_cell_angle_beta   90.00000000
_cell_angle_gamma   120.00000767
_symmetry_Int_Tables_number   1
_chemical_formula_structural   Sm2Cr3Fe3Ni6P7
_chemical_formula_sum   'Sm2 Cr3 Fe3 Ni6 P7'
_cell_volume   262.96925849
_cell_formula_units_Z   1
loop_
 _symmetry_equiv_pos_site_id
 _symmetry_equiv_pos_as_xyz
  1  'x, y, z'
loop_
 _atom_site_type_symbol
 _atom_site_label
 _atom_site_symmetry_multiplicity
 _atom_site_fract_x
 _atom_site_fract_y
 _atom_site_fract_z
 _atom_site_occupancy
  Sm  Sm0  1  0.333333  0.666667  0.000000  1
  Sm  Sm1  1  0.666667  0.333333  0.500000  1
  Cr  Cr2  1  0.212000  0.113958  0.500000  1
  Cr  Cr3  1  0.886042  0.098041  0.500000  1
  Cr  Cr4  1  0.901959  0.788000  0.500000  1
  Fe  Fe5  1  0.153153  0.878221  0.000000  1
  Fe  Fe6  1  0.121779  0.274932  0.000000  1
  Fe  Fe7  1  0.725068  0.846847  0.000000  1
  Ni  Ni8  1  0.433777  0.372927  0.000000  1
  Ni  Ni9  1  0.627073  0.060851  0.000000  1
  Ni  Ni10  1  0.939149  0.566223  0.000000  1
  Ni  Ni11  1  0.384222  0.949069  0.500000  1
  Ni  Ni12  1  0.050931  0.435153  0.500000  1
  Ni  Ni13  1  0.564847  0.615778  0.500000  1
  P  P14  1  0.401140  0.109014  0.000000  1
  P  P15  1  0.890986  0.292126  0.000000  1
  P  P16  1  0.707874  0.598860  0.000000  1
  P  P17  1  0.110597  0.714805  0.500000  1
  P  P18  1  0.285195  0.395792  0.500000  1
  P  P19  1  0.604208  0.889403  0.500000  1
  P  P20  1  0.000000  0.000000  0.000000  1
