# generated using pymatgen
data_Ac14Au51
_symmetry_space_group_name_H-M   'P 1'
_cell_length_a   13.32336300
_cell_length_b   13.32336377
_cell_length_c   9.68260200
_cell_angle_alpha   90.00000000
_cell_angle_beta   90.00000000
_cell_angle_gamma   119.99999560
_symmetry_Int_Tables_number   1
_chemical_formula_structural   Ac14Au51
_chemical_formula_sum   'Ac14 Au51'
_cell_volume   1488.50561715
_cell_formula_units_Z   1
loop_
 _symmetry_equiv_pos_site_id
 _symmetry_equiv_pos_as_xyz
  1  'x, y, z'
loop_
 _atom_site_type_symbol
 _atom_site_label
 _atom_site_symmetry_multiplicity
 _atom_site_fract_x
 _atom_site_fract_y
 _atom_site_fract_z
 _atom_site_occupancy
  Ac  Ac0  1  0.193553  0.992112  0.500000  1
  Ac  Ac1  1  0.007888  0.201442  0.500000  1
  Ac  Ac2  1  0.798558  0.806447  0.500000  1
  Ac  Ac3  1  0.474658  0.340027  0.500000  1
  Ac  Ac4  1  0.659973  0.134631  0.500000  1
  Ac  Ac5  1  0.865369  0.525342  0.500000  1
  Ac  Ac6  1  0.953578  0.398103  0.000000  1
  Ac  Ac7  1  0.601897  0.555476  0.000000  1
  Ac  Ac8  1  0.444524  0.046422  0.000000  1
  Ac  Ac9  1  0.733952  0.950235  0.000000  1
  Ac  Ac10  1  0.049765  0.783718  0.000000  1
  Ac  Ac11  1  0.216282  0.266048  0.000000  1
  Ac  Ac12  1  0.333333  0.666667  0.290051  1
  Ac  Ac13  1  0.333333  0.666667  0.709949  1
  Au  Au14  1  0.000000  0.000000  0.000000  1
  Au  Au15  1  0.666667  0.333333  0.000000  1
  Au  Au16  1  0.893318  0.334153  0.330385  1
  Au  Au17  1  0.665847  0.559164  0.330385  1
  Au  Au18  1  0.440836  0.106682  0.330385  1
  Au  Au19  1  0.776723  0.003160  0.333889  1
  Au  Au20  1  0.996840  0.773562  0.333889  1
  Au  Au21  1  0.226438  0.223277  0.333889  1
  Au  Au22  1  0.776723  0.003160  0.666111  1
  Au  Au23  1  0.996840  0.773562  0.666111  1
  Au  Au24  1  0.226438  0.223277  0.666111  1
  Au  Au25  1  0.893318  0.334153  0.669615  1
  Au  Au26  1  0.665847  0.559164  0.669615  1
  Au  Au27  1  0.440836  0.106682  0.669615  1
  Au  Au28  1  0.217196  0.045276  0.153969  1
  Au  Au29  1  0.954724  0.171921  0.153969  1
  Au  Au30  1  0.828079  0.782804  0.153969  1
  Au  Au31  1  0.451983  0.284597  0.150442  1
  Au  Au32  1  0.715403  0.167386  0.150442  1
  Au  Au33  1  0.832614  0.548017  0.150442  1
  Au  Au34  1  0.451983  0.284597  0.849558  1
  Au  Au35  1  0.715403  0.167386  0.849558  1
  Au  Au36  1  0.832614  0.548017  0.849558  1
  Au  Au37  1  0.217196  0.045276  0.846031  1
  Au  Au38  1  0.954724  0.171921  0.846031  1
  Au  Au39  1  0.828079  0.782804  0.846031  1
  Au  Au40  1  0.059985  0.593564  0.238646  1
  Au  Au41  1  0.406436  0.466421  0.238646  1
  Au  Au42  1  0.533579  0.940015  0.238646  1
  Au  Au43  1  0.603843  0.742744  0.233286  1
  Au  Au44  1  0.257256  0.861100  0.233286  1
  Au  Au45  1  0.138900  0.396157  0.233286  1
  Au  Au46  1  0.603843  0.742744  0.766714  1
  Au  Au47  1  0.257256  0.861100  0.766714  1
  Au  Au48  1  0.138900  0.396157  0.766714  1
  Au  Au49  1  0.059985  0.593564  0.761354  1
  Au  Au50  1  0.406436  0.466421  0.761354  1
  Au  Au51  1  0.533579  0.940015  0.761354  1
  Au  Au52  1  0.000000  0.000000  0.295070  1
  Au  Au53  1  0.666667  0.333333  0.295796  1
  Au  Au54  1  0.666667  0.333333  0.704204  1
  Au  Au55  1  0.000000  0.000000  0.704930  1
  Au  Au56  1  0.094747  0.489583  0.500000  1
  Au  Au57  1  0.510417  0.605163  0.500000  1
  Au  Au58  1  0.394837  0.905253  0.500000  1
  Au  Au59  1  0.573693  0.844917  0.500000  1
  Au  Au60  1  0.155083  0.728776  0.500000  1
  Au  Au61  1  0.271224  0.426307  0.500000  1
  Au  Au62  1  0.220919  0.692968  0.000000  1
  Au  Au63  1  0.307032  0.527951  0.000000  1
  Au  Au64  1  0.472049  0.779081  0.000000  1
