# generated using pymatgen
data_Ni(Pt2Se5)2
_symmetry_space_group_name_H-M   'P 1'
_cell_length_a   16.34253547
_cell_length_b   16.34253600
_cell_length_c   6.62221400
_cell_angle_alpha   87.46670506
_cell_angle_beta   87.46670498
_cell_angle_gamma   13.28228943
_symmetry_Int_Tables_number   1
_chemical_formula_structural   Ni(Pt2Se5)2
_chemical_formula_sum   'Ni1 Pt4 Se10'
_cell_volume   405.94308894
_cell_formula_units_Z   1
loop_
 _symmetry_equiv_pos_site_id
 _symmetry_equiv_pos_as_xyz
  1  'x, y, z'
loop_
 _atom_site_type_symbol
 _atom_site_label
 _atom_site_symmetry_multiplicity
 _atom_site_fract_x
 _atom_site_fract_y
 _atom_site_fract_z
 _atom_site_occupancy
  Ni  Ni0  1  0.405722  0.405722  0.001291  1
  Pt  Pt1  1  0.004168  0.004168  0.003110  1
  Pt  Pt2  1  0.605269  0.605269  0.000734  1
  Pt  Pt3  1  0.206133  0.206133  0.997258  1
  Pt  Pt4  1  0.807265  0.807265  0.997528  1
  Se  Se5  1  0.674846  0.674846  0.806172  1
  Se  Se6  1  0.275925  0.275925  0.805619  1
  Se  Se7  1  0.877662  0.877662  0.817670  1
  Se  Se8  1  0.535687  0.535687  0.194363  1
  Se  Se9  1  0.136577  0.136577  0.191485  1
  Se  Se10  1  0.737217  0.737217  0.189099  1
  Se  Se11  1  0.339098  0.339098  0.185069  1
  Se  Se12  1  0.933893  0.933893  0.184656  1
  Se  Se13  1  0.074035  0.074035  0.809636  1
  Se  Se14  1  0.472226  0.472226  0.816310  1
