# generated using pymatgen
data_CsHgPdF6
_symmetry_space_group_name_H-M   'P 1'
_cell_length_a   7.70379000
_cell_length_b   8.43394300
_cell_length_c   10.61305600
_cell_angle_alpha   90.00000000
_cell_angle_beta   90.00000000
_cell_angle_gamma   90.00000000
_symmetry_Int_Tables_number   1
_chemical_formula_structural   CsHgPdF6
_chemical_formula_sum   'Cs4 Hg4 Pd4 F24'
_cell_volume   689.56554463
_cell_formula_units_Z   4
loop_
 _symmetry_equiv_pos_site_id
 _symmetry_equiv_pos_as_xyz
  1  'x, y, z'
loop_
 _atom_site_type_symbol
 _atom_site_label
 _atom_site_symmetry_multiplicity
 _atom_site_fract_x
 _atom_site_fract_y
 _atom_site_fract_z
 _atom_site_occupancy
  Cs  Cs0  1  0.250000  0.000287  0.599949  1
  Cs  Cs1  1  0.750000  0.999713  0.400051  1
  Cs  Cs2  1  0.250000  0.500287  0.900051  1
  Cs  Cs3  1  0.750000  0.499713  0.099949  1
  Hg  Hg4  1  0.000000  0.500000  0.500000  1
  Hg  Hg5  1  0.500000  0.500000  0.500000  1
  Hg  Hg6  1  0.500000  0.000000  0.000000  1
  Hg  Hg7  1  0.000000  0.000000  0.000000  1
  Pd  Pd8  1  0.250000  0.756214  0.252837  1
  Pd  Pd9  1  0.750000  0.243786  0.747163  1
  Pd  Pd10  1  0.250000  0.256214  0.247163  1
  Pd  Pd11  1  0.750000  0.743786  0.752837  1
  F  F12  1  0.931659  0.250957  0.613787  1
  F  F13  1  0.431659  0.749043  0.386213  1
  F  F14  1  0.568341  0.750957  0.886213  1
  F  F15  1  0.068341  0.249043  0.113787  1
  F  F16  1  0.068341  0.749043  0.386213  1
  F  F17  1  0.568341  0.250957  0.613787  1
  F  F18  1  0.431659  0.249043  0.113787  1
  F  F19  1  0.931659  0.750957  0.886213  1
  F  F20  1  0.933121  0.238246  0.879777  1
  F  F21  1  0.433121  0.761754  0.120223  1
  F  F22  1  0.566879  0.738246  0.620223  1
  F  F23  1  0.066879  0.261754  0.379777  1
  F  F24  1  0.750000  0.993667  0.750127  1
  F  F25  1  0.250000  0.006333  0.249873  1
  F  F26  1  0.750000  0.493667  0.749873  1
  F  F27  1  0.250000  0.506333  0.250127  1
  F  F28  1  0.750000  0.005890  0.105520  1
  F  F29  1  0.250000  0.994110  0.894480  1
  F  F30  1  0.750000  0.505890  0.394480  1
  F  F31  1  0.250000  0.494110  0.605520  1
  F  F32  1  0.933121  0.738246  0.620223  1
  F  F33  1  0.433121  0.261754  0.379777  1
  F  F34  1  0.566879  0.238246  0.879777  1
  F  F35  1  0.066879  0.761754  0.120223  1
