# generated using pymatgen
data_Pr4Ga18Ir2Pt3Rh
_symmetry_space_group_name_H-M   'P 1'
_cell_length_a   7.72146239
_cell_length_b   7.72146647
_cell_length_c   9.64007137
_cell_angle_alpha   89.94201239
_cell_angle_beta   89.94190074
_cell_angle_gamma   119.73818180
_symmetry_Int_Tables_number   1
_chemical_formula_structural   Pr4Ga18Ir2Pt3Rh
_chemical_formula_sum   'Pr4 Ga18 Ir2 Pt3 Rh1'
_cell_volume   499.05578101
_cell_formula_units_Z   1
loop_
 _symmetry_equiv_pos_site_id
 _symmetry_equiv_pos_as_xyz
  1  'x, y, z'
loop_
 _atom_site_type_symbol
 _atom_site_label
 _atom_site_symmetry_multiplicity
 _atom_site_fract_x
 _atom_site_fract_y
 _atom_site_fract_z
 _atom_site_occupancy
  Pr  Pr0  1  0.996120  0.668930  0.249371  1
  Pr  Pr1  1  0.003880  0.331070  0.750629  1
  Pr  Pr2  1  0.668931  0.996119  0.249371  1
  Pr  Pr3  1  0.331069  0.003881  0.750629  1
  Ga  Ga4  1  0.130576  0.130575  0.247566  1
  Ga  Ga5  1  0.869424  0.869425  0.752434  1
  Ga  Ga6  1  0.001670  0.330526  0.078989  1
  Ga  Ga7  1  0.998330  0.669474  0.921011  1
  Ga  Ga8  1  0.000413  0.662131  0.576911  1
  Ga  Ga9  1  0.337869  0.999587  0.423089  1
  Ga  Ga10  1  0.999587  0.337869  0.423089  1
  Ga  Ga11  1  0.662131  0.000413  0.576911  1
  Ga  Ga12  1  0.669475  0.998330  0.921011  1
  Ga  Ga13  1  0.330525  0.001670  0.078989  1
  Ga  Ga14  1  0.334686  0.334686  0.555621  1
  Ga  Ga15  1  0.665314  0.665314  0.444379  1
  Ga  Ga16  1  0.669140  0.669140  0.060970  1
  Ga  Ga17  1  0.330860  0.330860  0.939030  1
  Ga  Ga18  1  0.341643  0.544787  0.253109  1
  Ga  Ga19  1  0.658357  0.455213  0.746891  1
  Ga  Ga20  1  0.544787  0.341643  0.253109  1
  Ga  Ga21  1  0.455213  0.658357  0.746891  1
  Ir  Ir22  1  0.329279  0.670719  0.499999  1
  Ir  Ir23  1  0.670721  0.329281  0.500001  1
  Pt  Pt24  1  0.670921  0.329076  0.000000  1
  Pt  Pt25  1  0.329079  0.670924  0.000000  1
  Pt  Pt26  1  0.000000  0.000000  0.500000  1
  Rh  Rh27  1  0.000000  0.000000  0.000000  1
