# generated using pymatgen
data_Hf6Al8Cu(Si4Ru3)2
_symmetry_space_group_name_H-M   'P 1'
_cell_length_a   8.56883320
_cell_length_b   8.56883284
_cell_length_c   8.56883100
_cell_angle_alpha   59.99999553
_cell_angle_beta   59.99999691
_cell_angle_gamma   59.99998987
_symmetry_Int_Tables_number   1
_chemical_formula_structural   Hf6Al8Cu(Si4Ru3)2
_chemical_formula_sum   'Hf6 Al8 Cu1 Si8 Ru6'
_cell_volume   444.88716991
_cell_formula_units_Z   1
loop_
 _symmetry_equiv_pos_site_id
 _symmetry_equiv_pos_as_xyz
  1  'x, y, z'
loop_
 _atom_site_type_symbol
 _atom_site_label
 _atom_site_symmetry_multiplicity
 _atom_site_fract_x
 _atom_site_fract_y
 _atom_site_fract_z
 _atom_site_occupancy
  Hf  Hf0  1  0.689137  0.310862  0.310862  1
  Hf  Hf1  1  0.310862  0.689137  0.689137  1
  Hf  Hf2  1  0.310862  0.689137  0.310862  1
  Hf  Hf3  1  0.310862  0.310862  0.689137  1
  Hf  Hf4  1  0.689137  0.310862  0.689137  1
  Hf  Hf5  1  0.689137  0.689137  0.310862  1
  Al  Al6  1  0.122393  0.122393  0.122393  1
  Al  Al7  1  0.122393  0.122393  0.632821  1
  Al  Al8  1  0.632821  0.122393  0.122393  1
  Al  Al9  1  0.122393  0.632821  0.122393  1
  Al  Al10  1  0.877606  0.877606  0.877606  1
  Al  Al11  1  0.877606  0.877606  0.367182  1
  Al  Al12  1  0.877606  0.367182  0.877606  1
  Al  Al13  1  0.367182  0.877606  0.877606  1
  Cu  Cu14  1  0.000000  0.000000  0.000000  1
  Si  Si15  1  0.344057  0.344057  0.344057  1
  Si  Si16  1  0.344057  0.344057  0.967828  1
  Si  Si17  1  0.967828  0.344057  0.344057  1
  Si  Si18  1  0.344057  0.967828  0.344057  1
  Si  Si19  1  0.655943  0.655943  0.655943  1
  Si  Si20  1  0.655943  0.655943  0.032172  1
  Si  Si21  1  0.655943  0.032172  0.655943  1
  Si  Si22  1  0.032172  0.655943  0.655943  1
  Ru  Ru23  1  0.500000  0.000000  0.000000  1
  Ru  Ru24  1  0.000000  0.500000  0.500000  1
  Ru  Ru25  1  0.000000  0.500000  0.000000  1
  Ru  Ru26  1  0.000000  0.000000  0.500000  1
  Ru  Ru27  1  0.500000  0.000000  0.500000  1
  Ru  Ru28  1  0.500000  0.500000  0.000000  1
