# generated using pymatgen
data_Tb8Ce3DyCo4
_symmetry_space_group_name_H-M   'P 1'
_cell_length_a   6.28635573
_cell_length_b   6.80665578
_cell_length_c   9.52390042
_cell_angle_alpha   89.99072604
_cell_angle_beta   90.03314986
_cell_angle_gamma   91.97945037
_symmetry_Int_Tables_number   1
_chemical_formula_structural   Tb8Ce3DyCo4
_chemical_formula_sum   'Tb8 Ce3 Dy1 Co4'
_cell_volume   407.27549570
_cell_formula_units_Z   1
loop_
 _symmetry_equiv_pos_site_id
 _symmetry_equiv_pos_as_xyz
  1  'x, y, z'
loop_
 _atom_site_type_symbol
 _atom_site_label
 _atom_site_symmetry_multiplicity
 _atom_site_fract_x
 _atom_site_fract_y
 _atom_site_fract_z
 _atom_site_occupancy
  Tb  Tb0  1  0.673216  0.327624  0.932607  1
  Tb  Tb1  1  0.639121  0.045236  0.250111  1
  Tb  Tb2  1  0.174704  0.170791  0.430361  1
  Tb  Tb3  1  0.830883  0.828042  0.568797  1
  Tb  Tb4  1  0.174390  0.170768  0.069698  1
  Tb  Tb5  1  0.830889  0.828273  0.931009  1
  Tb  Tb6  1  0.673107  0.327632  0.567221  1
  Tb  Tb7  1  0.323395  0.670314  0.066005  1
  Ce  Ce8  1  0.150245  0.438354  0.749797  1
  Ce  Ce9  1  0.356084  0.938232  0.749848  1
  Ce  Ce10  1  0.848859  0.558259  0.250189  1
  Dy  Dy11  1  0.323511  0.670663  0.433943  1
  Co  Co12  1  0.511773  0.633667  0.749444  1
  Co  Co13  1  0.983242  0.136639  0.750035  1
  Co  Co14  1  0.026566  0.855926  0.250469  1
  Co  Co15  1  0.480017  0.399583  0.250467  1
