# generated using pymatgen
data_LaDy(Al3Zn5)2
_symmetry_space_group_name_H-M   'P 1'
_cell_length_a   8.56542251
_cell_length_b   8.56542207
_cell_length_c   10.46785433
_cell_angle_alpha   114.15018444
_cell_angle_beta   114.15017972
_cell_angle_gamma   89.99999644
_symmetry_Int_Tables_number   1
_chemical_formula_structural   LaDy(Al3Zn5)2
_chemical_formula_sum   'La2 Dy2 Al12 Zn20'
_cell_volume   626.38264405
_cell_formula_units_Z   2
loop_
 _symmetry_equiv_pos_site_id
 _symmetry_equiv_pos_as_xyz
  1  'x, y, z'
loop_
 _atom_site_type_symbol
 _atom_site_label
 _atom_site_symmetry_multiplicity
 _atom_site_fract_x
 _atom_site_fract_y
 _atom_site_fract_z
 _atom_site_occupancy
  La  La0  1  0.500000  0.000000  0.000000  1
  La  La1  1  0.000000  0.500000  0.000000  1
  Dy  Dy2  1  0.721481  0.721481  0.442964  1
  Dy  Dy3  1  0.278518  0.278518  0.557036  1
  Al  Al4  1  0.369761  0.139134  0.278269  1
  Al  Al5  1  0.908509  0.139134  0.278269  1
  Al  Al6  1  0.139134  0.369761  0.278269  1
  Al  Al7  1  0.139134  0.908509  0.278269  1
  Al  Al8  1  0.000000  0.000000  0.500000  1
  Al  Al9  1  0.500000  0.000000  0.500000  1
  Al  Al10  1  0.000000  0.500000  0.500000  1
  Al  Al11  1  0.500000  0.500000  0.500000  1
  Al  Al12  1  0.860865  0.091492  0.721730  1
  Al  Al13  1  0.860865  0.630238  0.721730  1
  Al  Al14  1  0.091492  0.860865  0.721730  1
  Al  Al15  1  0.630238  0.860865  0.721730  1
  Zn  Zn16  1  0.152177  0.152177  0.000000  1
  Zn  Zn17  1  0.847823  0.152177  0.000000  1
  Zn  Zn18  1  0.152177  0.847823  0.000000  1
  Zn  Zn19  1  0.847823  0.847823  0.000000  1
  Zn  Zn20  1  0.417086  0.417086  0.157322  1
  Zn  Zn21  1  0.740237  0.417086  0.157322  1
  Zn  Zn22  1  0.417086  0.740237  0.157322  1
  Zn  Zn23  1  0.740237  0.740237  0.157322  1
  Zn  Zn24  1  0.673702  0.022070  0.347405  1
  Zn  Zn25  1  0.673702  0.325335  0.347405  1
  Zn  Zn26  1  0.022070  0.673702  0.347405  1
  Zn  Zn27  1  0.325335  0.673702  0.347405  1
  Zn  Zn28  1  0.674665  0.326298  0.652595  1
  Zn  Zn29  1  0.977930  0.326298  0.652595  1
  Zn  Zn30  1  0.326298  0.674665  0.652595  1
  Zn  Zn31  1  0.326298  0.977930  0.652595  1
  Zn  Zn32  1  0.259764  0.259764  0.842678  1
  Zn  Zn33  1  0.582915  0.259764  0.842678  1
  Zn  Zn34  1  0.259764  0.582915  0.842678  1
  Zn  Zn35  1  0.582915  0.582915  0.842678  1
