# generated using pymatgen
data_Ba5Sr5Bi8
_symmetry_space_group_name_H-M   'P 1'
_cell_length_a   9.89652234
_cell_length_b   9.15833979
_cell_length_c   9.12429361
_cell_angle_alpha   89.55082986
_cell_angle_beta   115.55508846
_cell_angle_gamma   90.31646969
_symmetry_Int_Tables_number   1
_chemical_formula_structural   Ba5Sr5Bi8
_chemical_formula_sum   'Ba5 Sr5 Bi8'
_cell_volume   746.05849453
_cell_formula_units_Z   1
loop_
 _symmetry_equiv_pos_site_id
 _symmetry_equiv_pos_as_xyz
  1  'x, y, z'
loop_
 _atom_site_type_symbol
 _atom_site_label
 _atom_site_symmetry_multiplicity
 _atom_site_fract_x
 _atom_site_fract_y
 _atom_site_fract_z
 _atom_site_occupancy
  Ba  Ba0  1  0.295172  0.670733  0.466108  1
  Ba  Ba1  1  0.702349  0.328120  0.533639  1
  Ba  Ba2  1  0.716454  0.839881  0.699421  1
  Ba  Ba3  1  0.283814  0.338983  0.801788  1
  Ba  Ba4  1  0.297022  0.830552  0.967132  1
  Sr  Sr5  1  0.999929  0.499026  0.002919  1
  Sr  Sr6  1  0.703713  0.169276  0.032737  1
  Sr  Sr7  1  0.714405  0.657620  0.199959  1
  Sr  Sr8  1  0.285706  0.158178  0.298910  1
  Sr  Sr9  1  0.998505  0.001269  0.495935  1
  Bi  Bi10  1  0.000009  0.880926  0.125647  1
  Bi  Bi11  1  0.396865  0.485208  0.193788  1
  Bi  Bi12  1  0.604149  0.988160  0.301711  1
  Bi  Bi13  1  0.997291  0.378565  0.373338  1
  Bi  Bi14  1  0.995100  0.621585  0.615689  1
  Bi  Bi15  1  0.397333  0.017695  0.683779  1
  Bi  Bi16  1  0.610145  0.510693  0.823589  1
  Bi  Bi17  1  0.002041  0.123527  0.883911  1
