# generated using pymatgen
data_HoEr9Os4
_symmetry_space_group_name_H-M   'P 1'
_cell_length_a   6.30341519
_cell_length_b   7.32309213
_cell_length_c   8.35394194
_cell_angle_alpha   96.92221706
_cell_angle_beta   112.21811611
_cell_angle_gamma   90.04732767
_symmetry_Int_Tables_number   1
_chemical_formula_structural   HoEr9Os4
_chemical_formula_sum   'Ho1 Er9 Os4'
_cell_volume   353.93584009
_cell_formula_units_Z   1
loop_
 _symmetry_equiv_pos_site_id
 _symmetry_equiv_pos_as_xyz
  1  'x, y, z'
loop_
 _atom_site_type_symbol
 _atom_site_label
 _atom_site_symmetry_multiplicity
 _atom_site_fract_x
 _atom_site_fract_y
 _atom_site_fract_z
 _atom_site_occupancy
  Ho  Ho0  1  0.792391  0.583784  0.816256  1
  Er  Er1  1  0.976238  0.916011  0.183380  1
  Er  Er2  1  0.207468  0.416001  0.183693  1
  Er  Er3  1  0.024029  0.084038  0.816820  1
  Er  Er4  1  0.203506  0.683297  0.564293  1
  Er  Er5  1  0.639766  0.816755  0.435797  1
  Er  Er6  1  0.796223  0.316562  0.435442  1
  Er  Er7  1  0.360158  0.183339  0.564076  1
  Er  Er8  1  0.420628  0.749804  0.999965  1
  Er  Er9  1  0.579357  0.250205  0.000246  1
  Os  Os10  1  0.602361  0.923105  0.780208  1
  Os  Os11  1  0.822252  0.577469  0.219811  1
  Os  Os12  1  0.397396  0.077189  0.219729  1
  Os  Os13  1  0.178228  0.422440  0.780283  1
