# generated using pymatgen
data_Nd5MnNbO12
_symmetry_space_group_name_H-M   'P 1'
_cell_length_a   7.06700255
_cell_length_b   7.06700354
_cell_length_c   7.63128809
_cell_angle_alpha   74.38349890
_cell_angle_beta   74.38349610
_cell_angle_gamma   50.68302976
_symmetry_Int_Tables_number   1
_chemical_formula_structural   Nd5MnNbO12
_chemical_formula_sum   'Nd5 Mn1 Nb1 O12'
_cell_volume   281.47526871
_cell_formula_units_Z   1
loop_
 _symmetry_equiv_pos_site_id
 _symmetry_equiv_pos_as_xyz
  1  'x, y, z'
loop_
 _atom_site_type_symbol
 _atom_site_label
 _atom_site_symmetry_multiplicity
 _atom_site_fract_x
 _atom_site_fract_y
 _atom_site_fract_z
 _atom_site_occupancy
  Nd  Nd0  1  0.294293  0.315138  0.358055  1
  Nd  Nd1  1  0.684862  0.705707  0.641945  1
  Nd  Nd2  1  0.688534  0.699516  0.165303  1
  Nd  Nd3  1  0.300484  0.311466  0.834697  1
  Nd  Nd4  1  0.002618  0.997382  0.500000  1
  Mn  Mn5  1  0.264695  0.735305  0.000000  1
  Nb  Nb6  1  0.784541  0.215459  0.000000  1
  O  O7  1  0.090053  0.599355  0.577640  1
  O  O8  1  0.009496  0.988886  0.179903  1
  O  O9  1  0.400645  0.909947  0.422360  1
  O  O10  1  0.495451  0.505733  0.172694  1
  O  O11  1  0.102155  0.583752  0.078152  1
  O  O12  1  0.897918  0.406292  0.423368  1
  O  O13  1  0.011114  0.990504  0.820097  1
  O  O14  1  0.593708  0.102081  0.576632  1
  O  O15  1  0.494267  0.504549  0.827306  1
  O  O16  1  0.573893  0.104974  0.079294  1
  O  O17  1  0.416248  0.897845  0.921848  1
  O  O18  1  0.895026  0.426107  0.920706  1
