# generated using pymatgen
data_Pu4MnFe3B16
_symmetry_space_group_name_H-M   'P 1'
_cell_length_a   3.36948300
_cell_length_b   5.92484105
_cell_length_c   11.47475518
_cell_angle_alpha   89.98114684
_cell_angle_beta   90.00000000
_cell_angle_gamma   90.00000000
_symmetry_Int_Tables_number   1
_chemical_formula_structural   Pu4MnFe3B16
_chemical_formula_sum   'Pu4 Mn1 Fe3 B16'
_cell_volume   229.07799744
_cell_formula_units_Z   1
loop_
 _symmetry_equiv_pos_site_id
 _symmetry_equiv_pos_as_xyz
  1  'x, y, z'
loop_
 _atom_site_type_symbol
 _atom_site_label
 _atom_site_symmetry_multiplicity
 _atom_site_fract_x
 _atom_site_fract_y
 _atom_site_fract_z
 _atom_site_occupancy
  Pu  Pu0  1  0.000000  0.126298  0.649800  1
  Pu  Pu1  1  0.000000  0.873796  0.349804  1
  Pu  Pu2  1  0.000000  0.626141  0.849466  1
  Pu  Pu3  1  0.000000  0.374104  0.150780  1
  Mn  Mn4  1  0.000000  0.130514  0.913119  1
  Fe  Fe5  1  0.000000  0.868704  0.087862  1
  Fe  Fe6  1  0.000000  0.630953  0.587184  1
  Fe  Fe7  1  0.000000  0.368873  0.412456  1
  B  B8  1  0.500000  0.361974  0.967095  1
  B  B9  1  0.500000  0.638411  0.033416  1
  B  B10  1  0.500000  0.861342  0.533027  1
  B  B11  1  0.500000  0.138736  0.466891  1
  B  B12  1  0.500000  0.475449  0.689918  1
  B  B13  1  0.500000  0.524552  0.309727  1
  B  B14  1  0.500000  0.974606  0.809652  1
  B  B15  1  0.500000  0.025014  0.190295  1
  B  B16  1  0.500000  0.281464  0.815132  1
  B  B17  1  0.500000  0.719353  0.184368  1
  B  B18  1  0.500000  0.780361  0.684129  1
  B  B19  1  0.500000  0.219583  0.315702  1
  B  B20  1  0.500000  0.387771  0.545855  1
  B  B21  1  0.500000  0.612315  0.453877  1
  B  B22  1  0.500000  0.887323  0.954305  1
  B  B23  1  0.500000  0.112364  0.046142  1
