# generated using pymatgen
data_CsNaCO3
_symmetry_space_group_name_H-M   'P 1'
_cell_length_a   7.43284999
_cell_length_b   8.05323369
_cell_length_c   7.97524400
_cell_angle_alpha   90.00000000
_cell_angle_beta   90.00000000
_cell_angle_gamma   70.42300270
_symmetry_Int_Tables_number   1
_chemical_formula_structural   CsNaCO3
_chemical_formula_sum   'Cs4 Na4 C4 O12'
_cell_volume   449.78926400
_cell_formula_units_Z   4
loop_
 _symmetry_equiv_pos_site_id
 _symmetry_equiv_pos_as_xyz
  1  'x, y, z'
loop_
 _atom_site_type_symbol
 _atom_site_label
 _atom_site_symmetry_multiplicity
 _atom_site_fract_x
 _atom_site_fract_y
 _atom_site_fract_z
 _atom_site_occupancy
  Cs  Cs0  1  0.661404  0.155133  0.134870  1
  Cs  Cs1  1  0.161404  0.655134  0.365128  1
  Cs  Cs2  1  0.837878  0.344995  0.634749  1
  Cs  Cs3  1  0.337878  0.844994  0.865249  1
  Na  Na4  1  0.095488  0.299783  0.075822  1
  Na  Na5  1  0.595488  0.799782  0.424176  1
  Na  Na6  1  0.404195  0.199936  0.576047  1
  Na  Na7  1  0.904195  0.699937  0.923954  1
  C  C8  1  0.705059  0.579564  0.160425  1
  C  C9  1  0.205059  0.079565  0.339573  1
  C  C10  1  0.795188  0.920481  0.660230  1
  C  C11  1  0.295186  0.420482  0.839769  1
  O  O12  1  0.784381  0.473005  0.037266  1
  O  O13  1  0.703369  0.743747  0.153526  1
  O  O14  1  0.130672  0.026902  0.211562  1
  O  O15  1  0.630670  0.526903  0.288437  1
  O  O16  1  0.203371  0.243745  0.346472  1
  O  O17  1  0.284381  0.973006  0.462733  1
  O  O18  1  0.715526  0.027197  0.537218  1
  O  O19  1  0.797084  0.756196  0.653196  1
  O  O20  1  0.369757  0.473060  0.711786  1
  O  O21  1  0.869758  0.973059  0.788213  1
  O  O22  1  0.297085  0.256194  0.846803  1
  O  O23  1  0.215526  0.527198  0.962779  1
