# generated using pymatgen
data_Sm5Dy2Ho13Pt16
_symmetry_space_group_name_H-M   'P 1'
_cell_length_a   7.50251279
_cell_length_b   7.58147395
_cell_length_c   14.79592700
_cell_angle_alpha   89.92387489
_cell_angle_beta   89.88623334
_cell_angle_gamma   90.01483502
_symmetry_Int_Tables_number   1
_chemical_formula_structural   Sm5Dy2Ho13Pt16
_chemical_formula_sum   'Sm5 Dy2 Ho13 Pt16'
_cell_volume   841.59145487
_cell_formula_units_Z   1
loop_
 _symmetry_equiv_pos_site_id
 _symmetry_equiv_pos_as_xyz
  1  'x, y, z'
loop_
 _atom_site_type_symbol
 _atom_site_label
 _atom_site_symmetry_multiplicity
 _atom_site_fract_x
 _atom_site_fract_y
 _atom_site_fract_z
 _atom_site_occupancy
  Sm  Sm0  1  0.499057  0.678864  0.094383  1
  Sm  Sm1  1  0.501311  0.323704  0.593120  1
  Sm  Sm2  1  0.000965  0.176452  0.907059  1
  Sm  Sm3  1  0.000862  0.175859  0.592752  1
  Sm  Sm4  1  0.501175  0.322605  0.906215  1
  Dy  Dy5  1  0.498261  0.680240  0.405631  1
  Dy  Dy6  1  0.998020  0.820535  0.094854  1
  Ho  Ho7  1  0.680531  0.989123  0.250736  1
  Ho  Ho8  1  0.180607  0.510868  0.250943  1
  Ho  Ho9  1  0.819998  0.488450  0.749631  1
  Ho  Ho10  1  0.319814  0.011440  0.749718  1
  Ho  Ho11  1  0.655579  0.831640  0.621501  1
  Ho  Ho12  1  0.155244  0.668737  0.877992  1
  Ho  Ho13  1  0.842790  0.332436  0.377707  1
  Ho  Ho14  1  0.342331  0.167481  0.123080  1
  Ho  Ho15  1  0.342144  0.167007  0.377804  1
  Ho  Ho16  1  0.843798  0.331741  0.123329  1
  Ho  Ho17  1  0.155723  0.668510  0.621510  1
  Ho  Ho18  1  0.656719  0.831991  0.877588  1
  Ho  Ho19  1  0.997547  0.818861  0.405572  1
  Pt  Pt20  1  0.817009  0.642379  0.251643  1
  Pt  Pt21  1  0.313502  0.859172  0.251695  1
  Pt  Pt22  1  0.684813  0.139601  0.749511  1
  Pt  Pt23  1  0.184634  0.360388  0.749623  1
  Pt  Pt24  1  0.547547  0.382206  0.250985  1
  Pt  Pt25  1  0.045981  0.116383  0.250665  1
  Pt  Pt26  1  0.952857  0.879684  0.749428  1
  Pt  Pt27  1  0.452636  0.620417  0.749665  1
  Pt  Pt28  1  0.819690  0.538103  0.539665  1
  Pt  Pt29  1  0.319837  0.964620  0.959023  1
  Pt  Pt30  1  0.684713  0.028927  0.455755  1
  Pt  Pt31  1  0.178773  0.468886  0.044032  1
  Pt  Pt32  1  0.182503  0.471880  0.455426  1
  Pt  Pt33  1  0.683062  0.032250  0.043175  1
  Pt  Pt34  1  0.320075  0.962977  0.539956  1
  Pt  Pt35  1  0.819892  0.535583  0.958620  1
