# generated using pymatgen
data_Er5Tm11Cd4Ni3Os
_symmetry_space_group_name_H-M   'P 1'
_cell_length_a   9.50917680
_cell_length_b   9.50664280
_cell_length_c   9.50664436
_cell_angle_alpha   59.44068844
_cell_angle_beta   59.45236085
_cell_angle_gamma   59.45236859
_symmetry_Int_Tables_number   1
_chemical_formula_structural   Er5Tm11Cd4Ni3Os
_chemical_formula_sum   'Er5 Tm11 Cd4 Ni3 Os1'
_cell_volume   600.06557629
_cell_formula_units_Z   1
loop_
 _symmetry_equiv_pos_site_id
 _symmetry_equiv_pos_as_xyz
  1  'x, y, z'
loop_
 _atom_site_type_symbol
 _atom_site_label
 _atom_site_symmetry_multiplicity
 _atom_site_fract_x
 _atom_site_fract_y
 _atom_site_fract_z
 _atom_site_occupancy
  Er  Er0  1  0.557115  0.939648  0.939648  1
  Er  Er1  1  0.566455  0.935076  0.566401  1
  Er  Er2  1  0.939647  0.557130  0.939464  1
  Er  Er3  1  0.566455  0.566401  0.935076  1
  Er  Er4  1  0.939647  0.939464  0.557130  1
  Tm  Tm5  1  0.347091  0.347187  0.347187  1
  Tm  Tm6  1  0.351774  0.351831  0.953874  1
  Tm  Tm7  1  0.351774  0.953874  0.351831  1
  Tm  Tm8  1  0.953760  0.351877  0.351877  1
  Tm  Tm9  1  0.810413  0.187677  0.187677  1
  Tm  Tm10  1  0.185961  0.811441  0.811441  1
  Tm  Tm11  1  0.187581  0.810374  0.187808  1
  Tm  Tm12  1  0.811526  0.186063  0.811359  1
  Tm  Tm13  1  0.187581  0.187808  0.810374  1
  Tm  Tm14  1  0.811526  0.811359  0.186063  1
  Tm  Tm15  1  0.935324  0.566222  0.566222  1
  Cd  Cd16  1  0.580310  0.580133  0.580133  1
  Cd  Cd17  1  0.579527  0.579569  0.255601  1
  Cd  Cd18  1  0.579527  0.255601  0.579569  1
  Cd  Cd19  1  0.255379  0.579590  0.579590  1
  Ni  Ni20  1  0.141286  0.141383  0.575381  1
  Ni  Ni21  1  0.141286  0.575381  0.141383  1
  Ni  Ni22  1  0.575461  0.141318  0.141318  1
  Os  Os23  1  0.143597  0.143594  0.143594  1
