# generated using pymatgen
data_Hf5GaSn2Sb
_symmetry_space_group_name_H-M   'P 1'
_cell_length_a   8.66359538
_cell_length_b   8.65511845
_cell_length_c   5.79526900
_cell_angle_alpha   90.00000000
_cell_angle_beta   90.00000000
_cell_angle_gamma   119.96763998
_symmetry_Int_Tables_number   1
_chemical_formula_structural   Hf5GaSn2Sb
_chemical_formula_sum   'Hf10 Ga2 Sn4 Sb2'
_cell_volume   376.45834693
_cell_formula_units_Z   2
loop_
 _symmetry_equiv_pos_site_id
 _symmetry_equiv_pos_as_xyz
  1  'x, y, z'
loop_
 _atom_site_type_symbol
 _atom_site_label
 _atom_site_symmetry_multiplicity
 _atom_site_fract_x
 _atom_site_fract_y
 _atom_site_fract_z
 _atom_site_occupancy
  Hf  Hf0  1  0.731550  0.732217  0.750000  1
  Hf  Hf1  1  0.268450  0.000666  0.750000  1
  Hf  Hf2  1  0.000000  0.267102  0.750000  1
  Hf  Hf3  1  0.269803  0.269398  0.250000  1
  Hf  Hf4  1  0.730197  0.999595  0.250000  1
  Hf  Hf5  1  0.000000  0.731402  0.250000  1
  Hf  Hf6  1  0.666061  0.332660  0.000916  1
  Hf  Hf7  1  0.333939  0.666600  0.000916  1
  Hf  Hf8  1  0.333939  0.666600  0.499084  1
  Hf  Hf9  1  0.666061  0.332660  0.499084  1
  Ga  Ga10  1  0.000000  0.999785  0.001438  1
  Ga  Ga11  1  0.000000  0.999785  0.498562  1
  Sn  Sn12  1  0.000000  0.610839  0.750000  1
  Sn  Sn13  1  0.612387  0.611782  0.250000  1
  Sn  Sn14  1  0.387613  0.999395  0.250000  1
  Sn  Sn15  1  0.000000  0.388957  0.250000  1
  Sb  Sb16  1  0.390944  0.390751  0.750000  1
  Sb  Sb17  1  0.609056  0.999807  0.750000  1
