# generated using pymatgen
data_Lu3Ni6B2Ru
_symmetry_space_group_name_H-M   'P 1'
_cell_length_a   4.97125000
_cell_length_b   5.11607495
_cell_length_c   14.26989300
_cell_angle_alpha   90.00000000
_cell_angle_beta   90.00000000
_cell_angle_gamma   119.06793350
_symmetry_Int_Tables_number   1
_chemical_formula_structural   Lu3Ni6B2Ru
_chemical_formula_sum   'Lu6 Ni12 B4 Ru2'
_cell_volume   317.21714303
_cell_formula_units_Z   2
loop_
 _symmetry_equiv_pos_site_id
 _symmetry_equiv_pos_as_xyz
  1  'x, y, z'
loop_
 _atom_site_type_symbol
 _atom_site_label
 _atom_site_symmetry_multiplicity
 _atom_site_fract_x
 _atom_site_fract_y
 _atom_site_fract_z
 _atom_site_occupancy
  Lu  Lu0  1  0.332541  0.665085  0.533828  1
  Lu  Lu1  1  0.667459  0.334915  0.033828  1
  Lu  Lu2  1  0.662238  0.324473  0.466617  1
  Lu  Lu3  1  0.337762  0.675527  0.966617  1
  Lu  Lu4  1  0.332102  0.664205  0.750503  1
  Lu  Lu5  1  0.667898  0.335795  0.250503  1
  Ni  Ni6  1  0.995701  0.991401  0.998121  1
  Ni  Ni7  1  0.004299  0.008599  0.498121  1
  Ni  Ni8  1  0.667609  0.833728  0.147813  1
  Ni  Ni9  1  0.166119  0.833728  0.147813  1
  Ni  Ni10  1  0.833881  0.166272  0.647813  1
  Ni  Ni11  1  0.332391  0.166272  0.647813  1
  Ni  Ni12  1  0.832757  0.665514  0.850779  1
  Ni  Ni13  1  0.832031  0.163030  0.852681  1
  Ni  Ni14  1  0.330999  0.163030  0.852681  1
  Ni  Ni15  1  0.669001  0.836970  0.352681  1
  Ni  Ni16  1  0.167969  0.836970  0.352681  1
  Ni  Ni17  1  0.167243  0.334486  0.350779  1
  B  B18  1  0.336806  0.673613  0.251412  1
  B  B19  1  0.663194  0.326387  0.751412  1
  B  B20  1  0.000350  0.000700  0.251344  1
  B  B21  1  0.999650  0.999300  0.751344  1
  Ru  Ru22  1  0.165579  0.331158  0.146410  1
  Ru  Ru23  1  0.834421  0.668842  0.646410  1
