# generated using pymatgen
data_Sc12Rh3I16
_symmetry_space_group_name_H-M   'P 1'
_cell_length_a   9.09855723
_cell_length_b   12.16873266
_cell_length_c   12.88786882
_cell_angle_alpha   116.66230498
_cell_angle_beta   100.92252773
_cell_angle_gamma   100.39501013
_symmetry_Int_Tables_number   1
_chemical_formula_structural   Sc12Rh3I16
_chemical_formula_sum   'Sc12 Rh3 I16'
_cell_volume   1193.41675942
_cell_formula_units_Z   1
loop_
 _symmetry_equiv_pos_site_id
 _symmetry_equiv_pos_as_xyz
  1  'x, y, z'
loop_
 _atom_site_type_symbol
 _atom_site_label
 _atom_site_symmetry_multiplicity
 _atom_site_fract_x
 _atom_site_fract_y
 _atom_site_fract_z
 _atom_site_occupancy
  Sc  Sc0  1  0.091614  0.278590  0.363634  1
  Sc  Sc1  1  0.908386  0.721410  0.636366  1
  Sc  Sc2  1  0.782795  0.533885  0.335311  1
  Sc  Sc3  1  0.217205  0.466115  0.664689  1
  Sc  Sc4  1  0.272199  0.722001  0.636185  1
  Sc  Sc5  1  0.727801  0.277999  0.363815  1
  Sc  Sc6  1  0.146010  0.534433  0.335039  1
  Sc  Sc7  1  0.853990  0.465567  0.664961  1
  Sc  Sc8  1  0.409505  0.365638  0.283121  1
  Sc  Sc9  1  0.590495  0.634362  0.716879  1
  Sc  Sc10  1  0.461534  0.319233  0.520922  1
  Sc  Sc11  1  0.538466  0.680767  0.479078  1
  Rh  Rh12  1  0.000000  0.500000  0.500000  1
  Rh  Rh13  1  0.339137  0.500184  0.499875  1
  Rh  Rh14  1  0.660864  0.499816  0.500125  1
  I  I15  1  0.389886  0.732498  0.874443  1
  I  I16  1  0.610114  0.267502  0.125557  1
  I  I17  1  0.182810  0.951963  0.775947  1
  I  I18  1  0.817190  0.048037  0.224053  1
  I  I19  1  0.341588  0.107222  0.261799  1
  I  I20  1  0.658412  0.892778  0.738201  1
  I  I21  1  0.561740  0.435184  0.791008  1
  I  I22  1  0.438260  0.564816  0.208992  1
  I  I23  1  0.301013  0.820288  0.462758  1
  I  I24  1  0.698987  0.179712  0.537242  1
  I  I25  1  0.165458  0.180517  0.536908  1
  I  I26  1  0.834542  0.819483  0.463092  1
  I  I27  1  0.927005  0.572029  0.165105  1
  I  I28  1  0.072995  0.427971  0.834895  1
  I  I29  1  0.922638  0.731836  0.874599  1
  I  I30  1  0.077362  0.268164  0.125401  1
