# generated using pymatgen
data_Rb3Tl3(PO4)4
_symmetry_space_group_name_H-M   'P 1'
_cell_length_a   9.78639773
_cell_length_b   9.78639773
_cell_length_c   10.10470000
_cell_angle_alpha   88.72480222
_cell_angle_beta   88.72480222
_cell_angle_gamma   62.85680005
_symmetry_Int_Tables_number   1
_chemical_formula_structural   Rb3Tl3(PO4)4
_chemical_formula_sum   'Rb6 Tl6 P8 O32'
_cell_volume   860.88969428
_cell_formula_units_Z   2
loop_
 _symmetry_equiv_pos_site_id
 _symmetry_equiv_pos_as_xyz
  1  'x, y, z'
loop_
 _atom_site_type_symbol
 _atom_site_label
 _atom_site_symmetry_multiplicity
 _atom_site_fract_x
 _atom_site_fract_y
 _atom_site_fract_z
 _atom_site_occupancy
  Rb  Rb0  1  0.320044  0.442286  0.181864  1
  Rb  Rb1  1  0.557714  0.679956  0.318136  1
  Rb  Rb2  1  0.679956  0.557714  0.818136  1
  Rb  Rb3  1  0.442286  0.320044  0.681864  1
  Rb  Rb4  1  0.000000  0.500000  0.500000  1
  Rb  Rb5  1  0.500000  0.000000  0.000000  1
  Tl  Tl6  1  0.080893  0.919107  0.250000  1
  Tl  Tl7  1  0.919107  0.080893  0.750000  1
  Tl  Tl8  1  0.045106  0.660713  0.835822  1
  Tl  Tl9  1  0.339287  0.954894  0.664178  1
  Tl  Tl10  1  0.954894  0.339287  0.164178  1
  Tl  Tl11  1  0.660713  0.045106  0.335822  1
  P  P12  1  0.217169  0.755979  0.555395  1
  P  P13  1  0.244021  0.782831  0.944605  1
  P  P14  1  0.782831  0.244021  0.444605  1
  P  P15  1  0.755979  0.217169  0.055395  1
  P  P16  1  0.875172  0.719251  0.143605  1
  P  P17  1  0.280749  0.124828  0.356395  1
  P  P18  1  0.124828  0.280749  0.856395  1
  P  P19  1  0.719251  0.875172  0.643605  1
  O  O20  1  0.189432  0.639481  0.642317  1
  O  O21  1  0.360519  0.810568  0.857683  1
  O  O22  1  0.810568  0.360519  0.357683  1
  O  O23  1  0.639481  0.189432  0.142317  1
  O  O24  1  0.122456  0.928646  0.607030  1
  O  O25  1  0.071354  0.877544  0.892970  1
  O  O26  1  0.877544  0.071354  0.392970  1
  O  O27  1  0.928646  0.122456  0.107030  1
  O  O28  1  0.174447  0.738141  0.411661  1
  O  O29  1  0.261859  0.825553  0.088339  1
  O  O30  1  0.825553  0.261859  0.588339  1
  O  O31  1  0.738141  0.174447  0.911661  1
  O  O32  1  0.388385  0.727427  0.561559  1
  O  O33  1  0.272573  0.611615  0.938441  1
  O  O34  1  0.611615  0.272573  0.438441  1
  O  O35  1  0.727427  0.388385  0.061559  1
  O  O36  1  0.721569  0.855326  0.188811  1
  O  O37  1  0.144674  0.278431  0.311189  1
  O  O38  1  0.278431  0.144674  0.811189  1
  O  O39  1  0.855326  0.721569  0.688811  1
  O  O40  1  0.864300  0.693521  0.992666  1
  O  O41  1  0.306479  0.135700  0.507334  1
  O  O42  1  0.135700  0.306479  0.007334  1
  O  O43  1  0.693521  0.864300  0.492666  1
  O  O44  1  0.886165  0.576734  0.224171  1
  O  O45  1  0.423266  0.113835  0.275829  1
  O  O46  1  0.113835  0.423266  0.775829  1
  O  O47  1  0.576734  0.886165  0.724171  1
  O  O48  1  0.016799  0.742588  0.172619  1
  O  O49  1  0.257412  0.983201  0.327381  1
  O  O50  1  0.983201  0.257412  0.827381  1
  O  O51  1  0.742588  0.016799  0.672619  1
