# generated using pymatgen
data_Pr4Co16Si3P9Ru4
_symmetry_space_group_name_H-M   'P 1'
_cell_length_a   3.74754300
_cell_length_b   10.61018003
_cell_length_c   11.95904703
_cell_angle_alpha   89.99204223
_cell_angle_beta   90.00000000
_cell_angle_gamma   90.00000000
_symmetry_Int_Tables_number   1
_chemical_formula_structural   Pr4Co16Si3P9Ru4
_chemical_formula_sum   'Pr4 Co16 Si3 P9 Ru4'
_cell_volume   475.51688964
_cell_formula_units_Z   1
loop_
 _symmetry_equiv_pos_site_id
 _symmetry_equiv_pos_as_xyz
  1  'x, y, z'
loop_
 _atom_site_type_symbol
 _atom_site_label
 _atom_site_symmetry_multiplicity
 _atom_site_fract_x
 _atom_site_fract_y
 _atom_site_fract_z
 _atom_site_occupancy
  Pr  Pr0  1  0.250000  0.587986  0.701210  1
  Pr  Pr1  1  0.250000  0.911420  0.201379  1
  Pr  Pr2  1  0.750000  0.411905  0.299627  1
  Pr  Pr3  1  0.750000  0.088206  0.797963  1
  Co  Co4  1  0.250000  0.408364  0.492461  1
  Co  Co5  1  0.250000  0.091834  0.992230  1
  Co  Co6  1  0.750000  0.591935  0.507663  1
  Co  Co7  1  0.750000  0.907874  0.007791  1
  Co  Co8  1  0.250000  0.212472  0.176828  1
  Co  Co9  1  0.250000  0.286700  0.675791  1
  Co  Co10  1  0.750000  0.787188  0.823769  1
  Co  Co11  1  0.750000  0.719848  0.326427  1
  Co  Co12  1  0.250000  0.887971  0.700778  1
  Co  Co13  1  0.250000  0.614888  0.202801  1
  Co  Co14  1  0.750000  0.111183  0.299232  1
  Co  Co15  1  0.750000  0.386697  0.798916  1
  Co  Co16  1  0.250000  0.466249  0.930803  1
  Co  Co17  1  0.250000  0.029609  0.426957  1
  Co  Co18  1  0.750000  0.533679  0.070556  1
  Co  Co19  1  0.750000  0.964151  0.563864  1
  Si  Si20  1  0.250000  0.414675  0.109308  1
  Si  Si21  1  0.250000  0.085048  0.606445  1
  Si  Si22  1  0.750000  0.585442  0.891841  1
  P  P23  1  0.750000  0.918075  0.388696  1
  P  P24  1  0.250000  0.280655  0.865119  1
  P  P25  1  0.250000  0.219056  0.366339  1
  P  P26  1  0.750000  0.719455  0.135320  1
  P  P27  1  0.750000  0.780724  0.634960  1
  P  P28  1  0.250000  0.599754  0.392235  1
  P  P29  1  0.250000  0.900020  0.891445  1
  P  P30  1  0.750000  0.399808  0.608833  1
  P  P31  1  0.750000  0.099751  0.107980  1
  Ru  Ru32  1  0.250000  0.713199  0.989904  1
  Ru  Ru33  1  0.250000  0.783669  0.493182  1
  Ru  Ru34  1  0.750000  0.286868  0.010708  1
  Ru  Ru35  1  0.750000  0.213642  0.510640  1
