# generated using pymatgen
data_NdDy3(Si5Os3)2
_symmetry_space_group_name_H-M   'P 1'
_cell_length_a   8.16472216
_cell_length_b   8.15269479
_cell_length_c   5.82290949
_cell_angle_alpha   70.51378779
_cell_angle_beta   70.44086334
_cell_angle_gamma   93.88677751
_symmetry_Int_Tables_number   1
_chemical_formula_structural   NdDy3(Si5Os3)2
_chemical_formula_sum   'Nd1 Dy3 Si10 Os6'
_cell_volume   337.21385499
_cell_formula_units_Z   1
loop_
 _symmetry_equiv_pos_site_id
 _symmetry_equiv_pos_as_xyz
  1  'x, y, z'
loop_
 _atom_site_type_symbol
 _atom_site_label
 _atom_site_symmetry_multiplicity
 _atom_site_fract_x
 _atom_site_fract_y
 _atom_site_fract_z
 _atom_site_occupancy
  Nd  Nd0  1  0.867618  0.602805  0.753497  1
  Dy  Dy1  1  0.399138  0.130224  0.746385  1
  Dy  Dy2  1  0.130834  0.398528  0.246601  1
  Dy  Dy3  1  0.602217  0.867523  0.254463  1
  Si  Si4  1  0.069558  0.261685  0.833646  1
  Si  Si5  1  0.737406  0.937064  0.665382  1
  Si  Si6  1  0.933704  0.739232  0.164798  1
  Si  Si7  1  0.260476  0.066964  0.334509  1
  Si  Si8  1  0.208141  0.794414  0.750704  1
  Si  Si9  1  0.793474  0.207249  0.248334  1
  Si  Si10  1  0.509725  0.484597  0.752661  1
  Si  Si11  1  0.486240  0.511375  0.250220  1
  Si  Si12  1  0.773486  0.224313  0.750781  1
  Si  Si13  1  0.227546  0.773900  0.247675  1
  Os  Os14  1  0.257601  0.544160  0.631020  1
  Os  Os15  1  0.457038  0.743998  0.867401  1
  Os  Os16  1  0.742837  0.455306  0.370403  1
  Os  Os17  1  0.542167  0.253382  0.133041  1
  Os  Os18  1  0.002901  0.999449  0.749281  1
  Os  Os19  1  0.997894  0.003833  0.249196  1
