# generated using pymatgen
data_RbZnFeF6
_symmetry_space_group_name_H-M   'P 1'
_cell_length_a   7.44737611
_cell_length_b   7.44737588
_cell_length_c   7.44737558
_cell_angle_alpha   121.26623773
_cell_angle_beta   119.22050894
_cell_angle_gamma   89.58817671
_symmetry_Int_Tables_number   1
_chemical_formula_structural   RbZnFeF6
_chemical_formula_sum   'Rb2 Zn2 Fe2 F12'
_cell_volume   290.87575039
_cell_formula_units_Z   2
loop_
 _symmetry_equiv_pos_site_id
 _symmetry_equiv_pos_as_xyz
  1  'x, y, z'
loop_
 _atom_site_type_symbol
 _atom_site_label
 _atom_site_symmetry_multiplicity
 _atom_site_fract_x
 _atom_site_fract_y
 _atom_site_fract_z
 _atom_site_occupancy
  Rb  Rb0  1  0.363803  0.113803  0.250000  1
  Rb  Rb1  1  0.636197  0.886197  0.750000  1
  Zn  Zn2  1  0.000000  0.500000  0.000000  1
  Zn  Zn3  1  0.000000  0.000000  0.500000  1
  Fe  Fe4  1  0.000000  0.500000  0.500000  1
  Fe  Fe5  1  0.500000  0.500000  0.000000  1
  F  F6  1  0.310412  0.560412  0.750000  1
  F  F7  1  0.922926  0.172926  0.750000  1
  F  F8  1  0.331508  0.186449  0.762911  1
  F  F9  1  0.923539  0.568597  0.737089  1
  F  F10  1  0.331508  0.568597  0.145059  1
  F  F11  1  0.923539  0.186449  0.354941  1
  F  F12  1  0.689588  0.439588  0.250000  1
  F  F13  1  0.077074  0.827074  0.250000  1
  F  F14  1  0.668492  0.813551  0.237089  1
  F  F15  1  0.076461  0.431403  0.262911  1
  F  F16  1  0.668492  0.431403  0.854941  1
  F  F17  1  0.076461  0.813551  0.645059  1
