# generated using pymatgen
data_Sc6Ti4Al12Os2Ru5
_symmetry_space_group_name_H-M   'P 1'
_cell_length_a   8.82948159
_cell_length_b   8.82074010
_cell_length_c   8.82074015
_cell_angle_alpha   60.04290131
_cell_angle_beta   59.93590772
_cell_angle_gamma   59.93591240
_symmetry_Int_Tables_number   1
_chemical_formula_structural   Sc6Ti4Al12Os2Ru5
_chemical_formula_sum   'Sc6 Ti4 Al12 Os2 Ru5'
_cell_volume   485.45525980
_cell_formula_units_Z   1
loop_
 _symmetry_equiv_pos_site_id
 _symmetry_equiv_pos_as_xyz
  1  'x, y, z'
loop_
 _atom_site_type_symbol
 _atom_site_label
 _atom_site_symmetry_multiplicity
 _atom_site_fract_x
 _atom_site_fract_y
 _atom_site_fract_z
 _atom_site_occupancy
  Sc  Sc0  1  0.710947  0.291224  0.291224  1
  Sc  Sc1  1  0.709875  0.289760  0.707915  1
  Sc  Sc2  1  0.709875  0.707915  0.289760  1
  Sc  Sc3  1  0.288413  0.708729  0.708729  1
  Sc  Sc4  1  0.289781  0.709798  0.292896  1
  Sc  Sc5  1  0.289781  0.292896  0.709798  1
  Ti  Ti6  1  0.640745  0.119667  0.119667  1
  Ti  Ti7  1  0.118969  0.640447  0.119283  1
  Ti  Ti8  1  0.118969  0.119283  0.640447  1
  Ti  Ti9  1  0.118605  0.120752  0.120752  1
  Al  Al10  1  0.358039  0.880792  0.880792  1
  Al  Al11  1  0.881388  0.358546  0.880810  1
  Al  Al12  1  0.881388  0.880810  0.358546  1
  Al  Al13  1  0.881429  0.879834  0.879834  1
  Al  Al14  1  0.998295  0.334627  0.334627  1
  Al  Al15  1  0.335006  0.998783  0.333038  1
  Al  Al16  1  0.335006  0.333038  0.998783  1
  Al  Al17  1  0.333509  0.333675  0.333675  1
  Al  Al18  1  0.003246  0.665105  0.665105  1
  Al  Al19  1  0.664473  0.003232  0.665977  1
  Al  Al20  1  0.664473  0.665977  0.003232  1
  Al  Al21  1  0.665411  0.665620  0.665620  1
  Os  Os22  1  0.001147  0.499208  0.001430  1
  Os  Os23  1  0.001147  0.001430  0.499208  1
  Ru  Ru24  1  0.000237  0.999979  0.999979  1
  Ru  Ru25  1  0.500090  0.001089  0.001089  1
  Ru  Ru26  1  0.499512  0.000859  0.498035  1
  Ru  Ru27  1  0.499512  0.498035  0.000859  1
  Ru  Ru28  1  0.000730  0.498893  0.498893  1
