# generated using pymatgen
data_K2FeP2WO10
_symmetry_space_group_name_H-M   'P 1'
_cell_length_a   9.34917000
_cell_length_b   9.34917000
_cell_length_c   10.85535800
_cell_angle_alpha   90.00000000
_cell_angle_beta   90.00000000
_cell_angle_gamma   90.00000000
_symmetry_Int_Tables_number   1
_chemical_formula_structural   K2FeP2WO10
_chemical_formula_sum   'K8 Fe4 P8 W4 O40'
_cell_volume   948.83405622
_cell_formula_units_Z   4
loop_
 _symmetry_equiv_pos_site_id
 _symmetry_equiv_pos_as_xyz
  1  'x, y, z'
loop_
 _atom_site_type_symbol
 _atom_site_label
 _atom_site_symmetry_multiplicity
 _atom_site_fract_x
 _atom_site_fract_y
 _atom_site_fract_z
 _atom_site_occupancy
  K  K0  1  0.710987  0.002368  0.937887  1
  K  K1  1  0.289013  0.997632  0.437887  1
  K  K2  1  0.789013  0.502368  0.312113  1
  K  K3  1  0.210987  0.497632  0.812113  1
  K  K4  1  0.997632  0.289013  0.562113  1
  K  K5  1  0.497632  0.210987  0.187887  1
  K  K6  1  0.002368  0.710987  0.062113  1
  K  K7  1  0.502368  0.789013  0.687887  1
  Fe  Fe8  1  0.861891  0.138109  0.250000  1
  Fe  Fe9  1  0.638109  0.638109  0.000000  1
  Fe  Fe10  1  0.361891  0.361891  0.500000  1
  Fe  Fe11  1  0.138109  0.861891  0.750000  1
  P  P12  1  0.673898  0.829885  0.255304  1
  P  P13  1  0.670115  0.173898  0.505304  1
  P  P14  1  0.826102  0.329885  0.994696  1
  P  P15  1  0.326102  0.170115  0.755304  1
  P  P16  1  0.829885  0.673898  0.744696  1
  P  P17  1  0.170115  0.326102  0.244696  1
  P  P18  1  0.329885  0.826102  0.005304  1
  P  P19  1  0.173898  0.670115  0.494696  1
  W  W20  1  0.388807  0.611193  0.250000  1
  W  W21  1  0.611193  0.388807  0.750000  1
  W  W22  1  0.888807  0.888807  0.500000  1
  W  W23  1  0.111193  0.111193  0.000000  1
  O  O24  1  0.784697  0.755393  0.624725  1
  O  O25  1  0.003241  0.958880  0.619709  1
  O  O26  1  0.255393  0.715303  0.374725  1
  O  O27  1  0.958880  0.003241  0.380291  1
  O  O28  1  0.219078  0.486217  0.218790  1
  O  O29  1  0.744607  0.284697  0.874725  1
  O  O30  1  0.541120  0.503241  0.869709  1
  O  O31  1  0.237023  0.759126  0.600614  1
  O  O32  1  0.986217  0.280922  0.968790  1
  O  O33  1  0.780922  0.513783  0.718790  1
  O  O34  1  0.323835  0.009929  0.732177  1
  O  O35  1  0.262977  0.259126  0.649386  1
  O  O36  1  0.280922  0.986217  0.031210  1
  O  O37  1  0.496759  0.458880  0.630291  1
  O  O38  1  0.715303  0.255393  0.625275  1
  O  O39  1  0.513783  0.780922  0.281210  1
  O  O40  1  0.490071  0.823835  0.982177  1
  O  O41  1  0.244607  0.215303  0.875275  1
  O  O42  1  0.215303  0.244607  0.124725  1
  O  O43  1  0.458880  0.496759  0.369709  1
  O  O44  1  0.041120  0.996759  0.880291  1
  O  O45  1  0.759126  0.237023  0.399386  1
  O  O46  1  0.176165  0.509929  0.517823  1
  O  O47  1  0.013783  0.719078  0.468790  1
  O  O48  1  0.259126  0.262977  0.350614  1
  O  O49  1  0.009929  0.323835  0.267823  1
  O  O50  1  0.719078  0.013783  0.531210  1
  O  O51  1  0.823835  0.490071  0.017823  1
  O  O52  1  0.676165  0.990071  0.232177  1
  O  O53  1  0.762977  0.240874  0.100614  1
  O  O54  1  0.755393  0.784697  0.375275  1
  O  O55  1  0.284697  0.744607  0.125275  1
  O  O56  1  0.990071  0.676165  0.767823  1
  O  O57  1  0.996759  0.041120  0.119709  1
  O  O58  1  0.240874  0.762977  0.899386  1
  O  O59  1  0.503241  0.541120  0.130291  1
  O  O60  1  0.740874  0.737023  0.850614  1
  O  O61  1  0.737023  0.740874  0.149386  1
  O  O62  1  0.509929  0.176165  0.482177  1
  O  O63  1  0.486217  0.219078  0.781210  1
