# generated using pymatgen
data_La2SiTcI
_symmetry_space_group_name_H-M   'P 1'
_cell_length_a   4.30799700
_cell_length_b   4.30799775
_cell_length_c   17.77737400
_cell_angle_alpha   90.00000000
_cell_angle_beta   90.00000000
_cell_angle_gamma   119.99998654
_symmetry_Int_Tables_number   1
_chemical_formula_structural   La2SiTcI
_chemical_formula_sum   'La4 Si2 Tc2 I2'
_cell_volume   285.72560445
_cell_formula_units_Z   2
loop_
 _symmetry_equiv_pos_site_id
 _symmetry_equiv_pos_as_xyz
  1  'x, y, z'
loop_
 _atom_site_type_symbol
 _atom_site_label
 _atom_site_symmetry_multiplicity
 _atom_site_fract_x
 _atom_site_fract_y
 _atom_site_fract_z
 _atom_site_occupancy
  La  La0  1  0.000000  0.000000  0.105134  1
  La  La1  1  0.000000  0.000000  0.605134  1
  La  La2  1  0.000000  0.000000  0.894291  1
  La  La3  1  0.000000  0.000000  0.394291  1
  Si  Si4  1  0.666667  0.333333  0.999486  1
  Si  Si5  1  0.333333  0.666667  0.499486  1
  Tc  Tc6  1  0.333333  0.666667  0.000409  1
  Tc  Tc7  1  0.666667  0.333333  0.500409  1
  I  I8  1  0.666667  0.333333  0.250679  1
  I  I9  1  0.333333  0.666667  0.750679  1
