# generated using pymatgen
data_Sc2Ti2SiAs
_symmetry_space_group_name_H-M   'P 1'
_cell_length_a   3.87969100
_cell_length_b   3.87969100
_cell_length_c   7.22341200
_cell_angle_alpha   90.00000000
_cell_angle_beta   90.00000000
_cell_angle_gamma   90.00000000
_symmetry_Int_Tables_number   1
_chemical_formula_structural   Sc2Ti2SiAs
_chemical_formula_sum   'Sc2 Ti2 Si1 As1'
_cell_volume   108.72681372
_cell_formula_units_Z   1
loop_
 _symmetry_equiv_pos_site_id
 _symmetry_equiv_pos_as_xyz
  1  'x, y, z'
loop_
 _atom_site_type_symbol
 _atom_site_label
 _atom_site_symmetry_multiplicity
 _atom_site_fract_x
 _atom_site_fract_y
 _atom_site_fract_z
 _atom_site_occupancy
  Sc  Sc0  1  0.000000  0.500000  0.345109  1
  Sc  Sc1  1  0.500000  0.000000  0.648363  1
  Ti  Ti2  1  0.000000  0.000000  0.004308  1
  Ti  Ti3  1  0.500000  0.500000  0.004308  1
  Si  Si4  1  0.500000  0.000000  0.259499  1
  As  As5  1  0.000000  0.500000  0.738411  1
