# generated using pymatgen
data_Dy5Er(Co2Si)6
_symmetry_space_group_name_H-M   'P 1'
_cell_length_a   5.20745900
_cell_length_b   5.20745757
_cell_length_c   14.76109500
_cell_angle_alpha   90.00000000
_cell_angle_beta   90.00000000
_cell_angle_gamma   119.99999002
_symmetry_Int_Tables_number   1
_chemical_formula_structural   Dy5Er(Co2Si)6
_chemical_formula_sum   'Dy5 Er1 Co12 Si6'
_cell_volume   346.65769913
_cell_formula_units_Z   1
loop_
 _symmetry_equiv_pos_site_id
 _symmetry_equiv_pos_as_xyz
  1  'x, y, z'
loop_
 _atom_site_type_symbol
 _atom_site_label
 _atom_site_symmetry_multiplicity
 _atom_site_fract_x
 _atom_site_fract_y
 _atom_site_fract_z
 _atom_site_occupancy
  Dy  Dy0  1  0.333333  0.666667  0.538433  1
  Dy  Dy1  1  0.666667  0.333333  0.461773  1
  Dy  Dy2  1  0.666667  0.333333  0.038015  1
  Dy  Dy3  1  0.333333  0.666667  0.750128  1
  Dy  Dy4  1  0.666667  0.333333  0.250095  1
  Er  Er5  1  0.333333  0.666667  0.961914  1
  Co  Co6  1  0.166824  0.333649  0.130728  1
  Co  Co7  1  0.833488  0.666974  0.869085  1
  Co  Co8  1  0.666351  0.833176  0.130728  1
  Co  Co9  1  0.833590  0.667181  0.631266  1
  Co  Co10  1  0.333026  0.166512  0.869085  1
  Co  Co11  1  0.166433  0.332867  0.368837  1
  Co  Co12  1  0.166824  0.833176  0.130728  1
  Co  Co13  1  0.332819  0.166410  0.631266  1
  Co  Co14  1  0.833488  0.166512  0.869085  1
  Co  Co15  1  0.667133  0.833567  0.368837  1
  Co  Co16  1  0.833590  0.166410  0.631266  1
  Co  Co17  1  0.166433  0.833567  0.368837  1
  Si  Si18  1  0.000000  0.000000  0.249672  1
  Si  Si19  1  0.000000  0.000000  0.750238  1
  Si  Si20  1  0.333333  0.666667  0.249974  1
  Si  Si21  1  0.666667  0.333333  0.750114  1
  Si  Si22  1  0.000000  0.000000  0.999853  1
  Si  Si23  1  0.000000  0.000000  0.500040  1
