# generated using pymatgen
data_Tb2Ga3Cu7
_symmetry_space_group_name_H-M   'P 1'
_cell_length_a   4.17952200
_cell_length_b   5.08310711
_cell_length_c   8.84413842
_cell_angle_alpha   90.52990830
_cell_angle_beta   90.00000000
_cell_angle_gamma   90.00000000
_symmetry_Int_Tables_number   1
_chemical_formula_structural   Tb2Ga3Cu7
_chemical_formula_sum   'Tb2 Ga3 Cu7'
_cell_volume   187.88531319
_cell_formula_units_Z   1
loop_
 _symmetry_equiv_pos_site_id
 _symmetry_equiv_pos_as_xyz
  1  'x, y, z'
loop_
 _atom_site_type_symbol
 _atom_site_label
 _atom_site_symmetry_multiplicity
 _atom_site_fract_x
 _atom_site_fract_y
 _atom_site_fract_z
 _atom_site_occupancy
  Tb  Tb0  1  0.000000  0.000895  0.000640  1
  Tb  Tb1  1  0.000000  0.499055  0.499351  1
  Ga  Ga2  1  0.500000  0.514772  0.994723  1
  Ga  Ga3  1  0.500000  0.985169  0.505279  1
  Ga  Ga4  1  0.500000  0.249967  0.249992  1
  Cu  Cu5  1  0.000000  0.996700  0.334093  1
  Cu  Cu6  1  0.000000  0.499421  0.831650  1
  Cu  Cu7  1  0.000000  0.503189  0.165903  1
  Cu  Cu8  1  0.000000  0.000559  0.668352  1
  Cu  Cu9  1  0.500000  0.750063  0.750052  1
  Cu  Cu10  1  0.500000  0.749984  0.249987  1
  Cu  Cu11  1  0.500000  0.250025  0.749978  1
