# generated using pymatgen
data_YbPr3(GaIr2)2
_symmetry_space_group_name_H-M   'P 1'
_cell_length_a   5.78951532
_cell_length_b   5.78109188
_cell_length_c   7.88839164
_cell_angle_alpha   102.05816936
_cell_angle_beta   102.07416152
_cell_angle_gamma   58.65813918
_symmetry_Int_Tables_number   1
_chemical_formula_structural   YbPr3(GaIr2)2
_chemical_formula_sum   'Yb1 Pr3 Ga2 Ir4'
_cell_volume   218.91779483
_cell_formula_units_Z   1
loop_
 _symmetry_equiv_pos_site_id
 _symmetry_equiv_pos_as_xyz
  1  'x, y, z'
loop_
 _atom_site_type_symbol
 _atom_site_label
 _atom_site_symmetry_multiplicity
 _atom_site_fract_x
 _atom_site_fract_y
 _atom_site_fract_z
 _atom_site_occupancy
  Yb  Yb0  1  0.205930  0.500721  0.854693  1
  Pr  Pr1  1  0.789391  0.501525  0.139258  1
  Pr  Pr2  1  0.503016  0.207750  0.353239  1
  Pr  Pr3  1  0.500323  0.791143  0.652459  1
  Ga  Ga4  1  0.119072  0.880646  0.249079  1
  Ga  Ga5  1  0.885394  0.112606  0.750328  1
  Ir  Ir6  1  0.279922  0.995959  0.010520  1
  Ir  Ir7  1  0.005574  0.715795  0.489119  1
  Ir  Ir8  1  0.991832  0.280147  0.510295  1
  Ir  Ir9  1  0.719545  0.013705  0.991009  1
