# generated using pymatgen
data_LaHo2Ga8Ag3
_symmetry_space_group_name_H-M   'P 1'
_cell_length_a   4.39523748
_cell_length_b   8.41728383
_cell_length_c   8.41728319
_cell_angle_alpha   69.08704257
_cell_angle_beta   74.86559498
_cell_angle_gamma   74.86559647
_symmetry_Int_Tables_number   1
_chemical_formula_structural   LaHo2Ga8Ag3
_chemical_formula_sum   'La1 Ho2 Ga8 Ag3'
_cell_volume   275.89193294
_cell_formula_units_Z   1
loop_
 _symmetry_equiv_pos_site_id
 _symmetry_equiv_pos_as_xyz
  1  'x, y, z'
loop_
 _atom_site_type_symbol
 _atom_site_label
 _atom_site_symmetry_multiplicity
 _atom_site_fract_x
 _atom_site_fract_y
 _atom_site_fract_z
 _atom_site_occupancy
  La  La0  1  0.500000  0.500000  0.500000  1
  Ho  Ho1  1  0.200735  0.799265  0.799265  1
  Ho  Ho2  1  0.799265  0.200735  0.200735  1
  Ga  Ga3  1  0.354723  0.362228  0.928324  1
  Ga  Ga4  1  0.645277  0.637772  0.071676  1
  Ga  Ga5  1  0.354723  0.928324  0.362228  1
  Ga  Ga6  1  0.645277  0.071676  0.637772  1
  Ga  Ga7  1  0.160603  0.471918  0.206875  1
  Ga  Ga8  1  0.839397  0.528082  0.793125  1
  Ga  Ga9  1  0.160603  0.206875  0.471918  1
  Ga  Ga10  1  0.839397  0.793125  0.528082  1
  Ag  Ag11  1  0.500000  0.000000  0.000000  1
  Ag  Ag12  1  0.000000  0.808874  0.191126  1
  Ag  Ag13  1  0.000000  0.191126  0.808874  1
