# generated using pymatgen
data_Er3MgIn2(Ni7B2)2
_symmetry_space_group_name_H-M   'P 1'
_cell_length_a   4.97052102
_cell_length_b   4.97126041
_cell_length_c   14.13892501
_cell_angle_alpha   89.99986984
_cell_angle_beta   90.00369492
_cell_angle_gamma   120.00453709
_symmetry_Int_Tables_number   1
_chemical_formula_structural   Er3MgIn2(Ni7B2)2
_chemical_formula_sum   'Er3 Mg1 In2 Ni14 B4'
_cell_volume   302.54890965
_cell_formula_units_Z   1
loop_
 _symmetry_equiv_pos_site_id
 _symmetry_equiv_pos_as_xyz
  1  'x, y, z'
loop_
 _atom_site_type_symbol
 _atom_site_label
 _atom_site_symmetry_multiplicity
 _atom_site_fract_x
 _atom_site_fract_y
 _atom_site_fract_z
 _atom_site_occupancy
  Er  Er0  1  0.333330  0.666661  0.032675  1
  Er  Er1  1  0.666659  0.333333  0.746968  1
  Er  Er2  1  0.333359  0.666677  0.258297  1
  Mg  Mg3  1  0.666779  0.333375  0.526745  1
  In  In4  1  0.333331  0.666661  0.475171  1
  In  In5  1  0.666584  0.333288  0.964798  1
  Ni  Ni6  1  0.833869  0.166151  0.355388  1
  Ni  Ni7  1  0.833869  0.667710  0.355403  1
  Ni  Ni8  1  0.000001  0.000001  0.998886  1
  Ni  Ni9  1  0.000025  0.000022  0.500679  1
  Ni  Ni10  1  0.833669  0.667318  0.148152  1
  Ni  Ni11  1  0.166160  0.833757  0.644996  1
  Ni  Ni12  1  0.667458  0.833733  0.644934  1
  Ni  Ni13  1  0.332700  0.166348  0.148118  1
  Ni  Ni14  1  0.833668  0.166348  0.148160  1
  Ni  Ni15  1  0.166002  0.331993  0.851064  1
  Ni  Ni16  1  0.166000  0.834017  0.851044  1
  Ni  Ni17  1  0.166166  0.332407  0.645007  1
  Ni  Ni18  1  0.668051  0.834033  0.851112  1
  Ni  Ni19  1  0.332321  0.166160  0.355468  1
  B  B20  1  0.666563  0.333299  0.251443  1
  B  B21  1  0.333462  0.666727  0.748519  1
  B  B22  1  0.999888  0.999953  0.746637  1
  B  B23  1  0.000086  0.000027  0.250335  1
