# generated using pymatgen
data_Y4HgRh
_symmetry_space_group_name_H-M   'P 1'
_cell_length_a   9.62298298
_cell_length_b   9.62298301
_cell_length_c   9.62298400
_cell_angle_alpha   60.00000346
_cell_angle_beta   60.00000336
_cell_angle_gamma   60.00000234
_symmetry_Int_Tables_number   1
_chemical_formula_structural   Y4HgRh
_chemical_formula_sum   'Y16 Hg4 Rh4'
_cell_volume   630.10689543
_cell_formula_units_Z   4
loop_
 _symmetry_equiv_pos_site_id
 _symmetry_equiv_pos_as_xyz
  1  'x, y, z'
loop_
 _atom_site_type_symbol
 _atom_site_label
 _atom_site_symmetry_multiplicity
 _atom_site_fract_x
 _atom_site_fract_y
 _atom_site_fract_z
 _atom_site_occupancy
  Y  Y0  1  0.601628  0.601628  0.601628  1
  Y  Y1  1  0.601628  0.601628  0.195117  1
  Y  Y2  1  0.601628  0.195117  0.601628  1
  Y  Y3  1  0.195117  0.601628  0.601628  1
  Y  Y4  1  0.060519  0.439481  0.439481  1
  Y  Y5  1  0.439481  0.060519  0.060519  1
  Y  Y6  1  0.439481  0.060519  0.439481  1
  Y  Y7  1  0.060519  0.439481  0.060519  1
  Y  Y8  1  0.439481  0.439481  0.060519  1
  Y  Y9  1  0.060519  0.060519  0.439481  1
  Y  Y10  1  0.186533  0.813467  0.813467  1
  Y  Y11  1  0.813467  0.186533  0.186533  1
  Y  Y12  1  0.813467  0.186533  0.813467  1
  Y  Y13  1  0.186533  0.813467  0.186533  1
  Y  Y14  1  0.813467  0.813467  0.186533  1
  Y  Y15  1  0.186533  0.186533  0.813467  1
  Hg  Hg16  1  0.834573  0.834573  0.834573  1
  Hg  Hg17  1  0.834573  0.834573  0.496280  1
  Hg  Hg18  1  0.834573  0.496280  0.834573  1
  Hg  Hg19  1  0.496280  0.834573  0.834573  1
  Rh  Rh20  1  0.392854  0.392854  0.392854  1
  Rh  Rh21  1  0.392854  0.392854  0.821439  1
  Rh  Rh22  1  0.392854  0.821439  0.392854  1
  Rh  Rh23  1  0.821439  0.392854  0.392854  1
