# generated using pymatgen
data_NdPa2(AlPt)3
_symmetry_space_group_name_H-M   'P 1'
_cell_length_a   7.16076455
_cell_length_b   7.14369987
_cell_length_c   4.14424100
_cell_angle_alpha   90.00000000
_cell_angle_beta   90.00000000
_cell_angle_gamma   119.92120344
_symmetry_Int_Tables_number   1
_chemical_formula_structural   NdPa2(AlPt)3
_chemical_formula_sum   'Nd1 Pa2 Al3 Pt3'
_cell_volume   183.73949336
_cell_formula_units_Z   1
loop_
 _symmetry_equiv_pos_site_id
 _symmetry_equiv_pos_as_xyz
  1  'x, y, z'
loop_
 _atom_site_type_symbol
 _atom_site_label
 _atom_site_symmetry_multiplicity
 _atom_site_fract_x
 _atom_site_fract_y
 _atom_site_fract_z
 _atom_site_occupancy
  Nd  Nd0  1  0.000000  0.581737  0.500000  1
  Pa  Pa1  1  0.422984  0.420102  0.500000  1
  Pa  Pa2  1  0.577016  0.997116  0.500000  1
  Al  Al3  1  0.766929  0.763395  0.000000  1
  Al  Al4  1  0.233071  0.996467  0.000000  1
  Al  Al5  1  0.000000  0.241058  0.000000  1
  Pt  Pt6  1  0.644754  0.314251  0.000000  1
  Pt  Pt7  1  0.355246  0.669498  0.000000  1
  Pt  Pt8  1  0.000000  0.016376  0.500000  1
