# generated using pymatgen
data_Ho3Lu2Sc3(Co4P3)4
_symmetry_space_group_name_H-M   'P 1'
_cell_length_a   12.18657302
_cell_length_b   12.18549195
_cell_length_c   3.70063600
_cell_angle_alpha   90.00000000
_cell_angle_beta   90.00000000
_cell_angle_gamma   119.99707649
_symmetry_Int_Tables_number   1
_chemical_formula_structural   Ho3Lu2Sc3(Co4P3)4
_chemical_formula_sum   'Ho3 Lu2 Sc3 Co16 P12'
_cell_volume   475.93150715
_cell_formula_units_Z   1
loop_
 _symmetry_equiv_pos_site_id
 _symmetry_equiv_pos_as_xyz
  1  'x, y, z'
loop_
 _atom_site_type_symbol
 _atom_site_label
 _atom_site_symmetry_multiplicity
 _atom_site_fract_x
 _atom_site_fract_y
 _atom_site_fract_z
 _atom_site_occupancy
  Ho  Ho0  1  0.666697  0.333388  0.000000  1
  Ho  Ho1  1  0.333303  0.666692  0.000000  1
  Ho  Ho2  1  0.000000  0.183823  0.500000  1
  Lu  Lu3  1  0.815906  0.815831  0.500000  1
  Lu  Lu4  1  0.184094  0.999925  0.500000  1
  Sc  Sc5  1  0.440389  0.440385  0.000000  1
  Sc  Sc6  1  0.559611  0.999996  0.000000  1
  Sc  Sc7  1  0.000000  0.560197  0.000000  1
  Co  Co8  1  0.875437  0.355322  0.500000  1
  Co  Co9  1  0.645124  0.520662  0.500000  1
  Co  Co10  1  0.479377  0.124370  0.500000  1
  Co  Co11  1  0.354876  0.875538  0.500000  1
  Co  Co12  1  0.520623  0.644993  0.500000  1
  Co  Co13  1  0.124563  0.479885  0.500000  1
  Co  Co14  1  0.805025  0.178737  0.000000  1
  Co  Co15  1  0.821281  0.627146  0.000000  1
  Co  Co16  1  0.373089  0.194058  0.000000  1
  Co  Co17  1  0.178719  0.805864  0.000000  1
  Co  Co18  1  0.626911  0.820969  0.000000  1
  Co  Co19  1  0.194975  0.373712  0.000000  1
  Co  Co20  1  0.278072  0.277453  0.500000  1
  Co  Co21  1  0.721928  0.999381  0.500000  1
  Co  Co22  1  0.000000  0.722735  0.500000  1
  Co  Co23  1  0.000000  0.999100  0.000000  1
  P  P24  1  0.692352  0.170942  0.500000  1
  P  P25  1  0.829011  0.521404  0.500000  1
  P  P26  1  0.478805  0.307755  0.500000  1
  P  P27  1  0.170989  0.692393  0.500000  1
  P  P28  1  0.521195  0.828950  0.500000  1
  P  P29  1  0.307648  0.478590  0.500000  1
  P  P30  1  0.178780  0.177785  0.000000  1
  P  P31  1  0.821220  0.999005  0.000000  1
  P  P32  1  0.000000  0.821906  0.000000  1
  P  P33  1  0.646609  0.646600  0.000000  1
  P  P34  1  0.353391  0.999991  0.000000  1
  P  P35  1  0.000000  0.354514  0.000000  1
