# generated using pymatgen
data_Dy16Al4TcRh3
_symmetry_space_group_name_H-M   'P 1'
_cell_length_a   9.55027799
_cell_length_b   9.55027777
_cell_length_c   9.55027810
_cell_angle_alpha   59.67066157
_cell_angle_beta   59.67066840
_cell_angle_gamma   59.67066079
_symmetry_Int_Tables_number   1
_chemical_formula_structural   Dy16Al4TcRh3
_chemical_formula_sum   'Dy16 Al4 Tc1 Rh3'
_cell_volume   611.32385692
_cell_formula_units_Z   1
loop_
 _symmetry_equiv_pos_site_id
 _symmetry_equiv_pos_as_xyz
  1  'x, y, z'
loop_
 _atom_site_type_symbol
 _atom_site_label
 _atom_site_symmetry_multiplicity
 _atom_site_fract_x
 _atom_site_fract_y
 _atom_site_fract_z
 _atom_site_occupancy
  Dy  Dy0  1  0.693090  0.306871  0.306871  1
  Dy  Dy1  1  0.694198  0.694198  0.308017  1
  Dy  Dy2  1  0.306871  0.693090  0.306871  1
  Dy  Dy3  1  0.935822  0.935822  0.565413  1
  Dy  Dy4  1  0.146864  0.146864  0.556028  1
  Dy  Dy5  1  0.559814  0.943474  0.559814  1
  Dy  Dy6  1  0.148505  0.148505  0.148505  1
  Dy  Dy7  1  0.306871  0.306871  0.693090  1
  Dy  Dy8  1  0.943474  0.559814  0.559814  1
  Dy  Dy9  1  0.559814  0.559814  0.943474  1
  Dy  Dy10  1  0.565413  0.935822  0.935822  1
  Dy  Dy11  1  0.935822  0.565413  0.935822  1
  Dy  Dy12  1  0.146864  0.556028  0.146864  1
  Dy  Dy13  1  0.308017  0.694198  0.694198  1
  Dy  Dy14  1  0.694198  0.308017  0.694198  1
  Dy  Dy15  1  0.556028  0.146864  0.146864  1
  Al  Al16  1  0.923387  0.923387  0.232029  1
  Al  Al17  1  0.232029  0.923387  0.923387  1
  Al  Al18  1  0.923387  0.232029  0.923387  1
  Al  Al19  1  0.923365  0.923365  0.923365  1
  Tc  Tc20  1  0.357656  0.357656  0.357656  1
  Rh  Rh21  1  0.923891  0.357310  0.357310  1
  Rh  Rh22  1  0.357310  0.357310  0.923891  1
  Rh  Rh23  1  0.357310  0.923891  0.357310  1
