# generated using pymatgen
data_Tb3Ho7(Cd2Ni)4
_symmetry_space_group_name_H-M   'P 1'
_cell_length_a   7.82342919
_cell_length_b   18.19463543
_cell_length_c   3.55171000
_cell_angle_alpha   90.00000000
_cell_angle_beta   90.00000000
_cell_angle_gamma   89.97504506
_symmetry_Int_Tables_number   1
_chemical_formula_structural   Tb3Ho7(Cd2Ni)4
_chemical_formula_sum   'Tb3 Ho7 Cd8 Ni4'
_cell_volume   505.56612962
_cell_formula_units_Z   1
loop_
 _symmetry_equiv_pos_site_id
 _symmetry_equiv_pos_as_xyz
  1  'x, y, z'
loop_
 _atom_site_type_symbol
 _atom_site_label
 _atom_site_symmetry_multiplicity
 _atom_site_fract_x
 _atom_site_fract_y
 _atom_site_fract_z
 _atom_site_occupancy
  Tb  Tb0  1  0.500057  0.499993  0.000000  1
  Tb  Tb1  1  0.999999  0.999977  0.000000  1
  Tb  Tb2  1  0.759211  0.278984  0.000000  1
  Ho  Ho3  1  0.240777  0.721156  0.000000  1
  Ho  Ho4  1  0.740616  0.778890  0.000000  1
  Ho  Ho5  1  0.259120  0.221097  0.000000  1
  Ho  Ho6  1  0.621046  0.088604  0.000000  1
  Ho  Ho7  1  0.378879  0.911115  0.000000  1
  Ho  Ho8  1  0.878899  0.588884  0.000000  1
  Ho  Ho9  1  0.121374  0.411332  0.000000  1
  Cd  Cd10  1  0.705568  0.930778  0.500000  1
  Cd  Cd11  1  0.294361  0.069125  0.500000  1
  Cd  Cd12  1  0.794540  0.431131  0.500000  1
  Cd  Cd13  1  0.205571  0.569225  0.500000  1
  Cd  Cd14  1  0.560611  0.651809  0.500000  1
  Cd  Cd15  1  0.438804  0.348357  0.500000  1
  Cd  Cd16  1  0.939801  0.151495  0.500000  1
  Cd  Cd17  1  0.060615  0.848217  0.500000  1
  Ni  Ni18  1  0.539279  0.196235  0.500000  1
  Ni  Ni19  1  0.460096  0.803556  0.500000  1
  Ni  Ni20  1  0.960032  0.696440  0.500000  1
  Ni  Ni21  1  0.040744  0.303600  0.500000  1
