# generated using pymatgen
data_LaNd11Os2I17
_symmetry_space_group_name_H-M   'P 1'
_cell_length_a   10.07807978
_cell_length_b   12.20350123
_cell_length_c   12.15053394
_cell_angle_alpha   73.96982207
_cell_angle_beta   75.25625082
_cell_angle_gamma   65.39884795
_symmetry_Int_Tables_number   1
_chemical_formula_structural   LaNd11Os2I17
_chemical_formula_sum   'La1 Nd11 Os2 I17'
_cell_volume   1289.13339970
_cell_formula_units_Z   1
loop_
 _symmetry_equiv_pos_site_id
 _symmetry_equiv_pos_as_xyz
  1  'x, y, z'
loop_
 _atom_site_type_symbol
 _atom_site_label
 _atom_site_symmetry_multiplicity
 _atom_site_fract_x
 _atom_site_fract_y
 _atom_site_fract_z
 _atom_site_occupancy
  La  La0  1  0.138471  0.713804  0.149805  1
  Nd  Nd1  1  0.454775  0.485165  0.323512  1
  Nd  Nd2  1  0.556931  0.669945  0.006317  1
  Nd  Nd3  1  0.271750  0.990191  0.106473  1
  Nd  Nd4  1  0.864929  0.288435  0.849258  1
  Nd  Nd5  1  0.403645  0.240813  0.717017  1
  Nd  Nd6  1  0.727280  0.014914  0.892730  1
  Nd  Nd7  1  0.546792  0.509220  0.676789  1
  Nd  Nd8  1  0.448213  0.328330  0.990502  1
  Nd  Nd9  1  0.588540  0.758132  0.282093  1
  Nd  Nd10  1  0.821568  0.191493  0.583165  1
  Nd  Nd11  1  0.173431  0.810782  0.420600  1
  Os  Os12  1  0.362155  0.737819  0.212850  1
  Os  Os13  1  0.634584  0.261853  0.786342  1
  I  I14  1  0.055017  0.101984  0.325692  1
  I  I15  1  0.465581  0.948355  0.844864  1
  I  I16  1  0.427566  0.810939  0.535755  1
  I  I17  1  0.571827  0.184944  0.464366  1
  I  I18  1  0.836961  0.712684  0.046450  1
  I  I19  1  0.227422  0.416645  0.240989  1
  I  I20  1  0.687189  0.370692  0.101986  1
  I  I21  1  0.534688  0.049691  0.156932  1
  I  I22  1  0.740894  0.472453  0.416716  1
  I  I23  1  0.886409  0.784272  0.372897  1
  I  I24  1  0.946751  0.899146  0.675193  1
  I  I25  1  0.159337  0.292467  0.954534  1
  I  I26  1  0.319492  0.628956  0.896664  1
  I  I27  1  0.000467  0.003434  0.999881  1
  I  I28  1  0.112360  0.215413  0.631352  1
  I  I29  1  0.777481  0.579944  0.758044  1
  I  I30  1  0.257493  0.527083  0.580232  1
