# generated using pymatgen
data_La2Nd2DyIr2
_symmetry_space_group_name_H-M   'P 1'
_cell_length_a   6.72503110
_cell_length_b   7.25896823
_cell_length_c   9.04094476
_cell_angle_alpha   96.11329063
_cell_angle_beta   111.83413025
_cell_angle_gamma   90.00000364
_symmetry_Int_Tables_number   1
_chemical_formula_structural   La2Nd2DyIr2
_chemical_formula_sum   'La4 Nd4 Dy2 Ir4'
_cell_volume   406.98435600
_cell_formula_units_Z   2
loop_
 _symmetry_equiv_pos_site_id
 _symmetry_equiv_pos_as_xyz
  1  'x, y, z'
loop_
 _atom_site_type_symbol
 _atom_site_label
 _atom_site_symmetry_multiplicity
 _atom_site_fract_x
 _atom_site_fract_y
 _atom_site_fract_z
 _atom_site_occupancy
  La  La0  1  0.792973  0.080843  0.815135  1
  La  La1  1  0.977839  0.419157  0.184865  1
  La  La2  1  0.207027  0.919157  0.184865  1
  La  La3  1  0.022161  0.580843  0.815135  1
  Nd  Nd4  1  0.214112  0.187173  0.569807  1
  Nd  Nd5  1  0.644305  0.312827  0.430193  1
  Nd  Nd6  1  0.785888  0.812827  0.430193  1
  Nd  Nd7  1  0.355695  0.687173  0.569807  1
  Dy  Dy8  1  0.436496  0.250000  0.000000  1
  Dy  Dy9  1  0.563504  0.750000  0.000000  1
  Ir  Ir10  1  0.600161  0.426315  0.786504  1
  Ir  Ir11  1  0.813657  0.073685  0.213496  1
  Ir  Ir12  1  0.399839  0.573685  0.213496  1
  Ir  Ir13  1  0.186343  0.926315  0.786504  1
