# generated using pymatgen
data_TaNb15Ni8CN3
_symmetry_space_group_name_H-M   'P 1'
_cell_length_a   8.27442453
_cell_length_b   8.28876292
_cell_length_c   8.27442400
_cell_angle_alpha   60.05720891
_cell_angle_beta   60.00000213
_cell_angle_gamma   60.05721281
_symmetry_Int_Tables_number   1
_chemical_formula_structural   TaNb15Ni8CN3
_chemical_formula_sum   'Ta1 Nb15 Ni8 C1 N3'
_cell_volume   401.62922719
_cell_formula_units_Z   1
loop_
 _symmetry_equiv_pos_site_id
 _symmetry_equiv_pos_as_xyz
  1  'x, y, z'
loop_
 _atom_site_type_symbol
 _atom_site_label
 _atom_site_symmetry_multiplicity
 _atom_site_fract_x
 _atom_site_fract_y
 _atom_site_fract_z
 _atom_site_occupancy
  Ta  Ta0  1  0.625000  0.125000  0.625000  1
  Nb  Nb1  1  0.431761  0.069017  0.067461  1
  Nb  Nb2  1  0.066631  0.433036  0.433702  1
  Nb  Nb3  1  0.066631  0.433036  0.066631  1
  Nb  Nb4  1  0.067461  0.069017  0.431761  1
  Nb  Nb5  1  0.431761  0.069017  0.431761  1
  Nb  Nb6  1  0.433702  0.433036  0.066631  1
  Nb  Nb7  1  0.183369  0.816964  0.183369  1
  Nb  Nb8  1  0.818239  0.180983  0.818239  1
  Nb  Nb9  1  0.818239  0.180983  0.182539  1
  Nb  Nb10  1  0.182539  0.180983  0.818239  1
  Nb  Nb11  1  0.183369  0.816964  0.816298  1
  Nb  Nb12  1  0.816298  0.816964  0.183369  1
  Nb  Nb13  1  0.625000  0.625000  0.625000  1
  Nb  Nb14  1  0.625000  0.625000  0.125000  1
  Nb  Nb15  1  0.125000  0.625000  0.625000  1
  Ni  Ni16  1  0.828896  0.830997  0.828896  1
  Ni  Ni17  1  0.828896  0.830997  0.511209  1
  Ni  Ni18  1  0.511209  0.830997  0.828896  1
  Ni  Ni19  1  0.830353  0.508942  0.830353  1
  Ni  Ni20  1  0.421104  0.419003  0.421104  1
  Ni  Ni21  1  0.421104  0.419003  0.738791  1
  Ni  Ni22  1  0.419647  0.741058  0.419647  1
  Ni  Ni23  1  0.738791  0.419003  0.421104  1
  C  C24  1  0.125000  0.625000  0.125000  1
  N  N25  1  0.625000  0.125000  0.125000  1
  N  N26  1  0.125000  0.125000  0.625000  1
  N  N27  1  0.125000  0.125000  0.125000  1
