# generated using pymatgen
data_Y3Tm3Sc2(Co4P3)4
_symmetry_space_group_name_H-M   'P 1'
_cell_length_a   3.70594700
_cell_length_b   10.62204345
_cell_length_c   12.31284752
_cell_angle_alpha   89.96670678
_cell_angle_beta   90.00000000
_cell_angle_gamma   90.00000000
_symmetry_Int_Tables_number   1
_chemical_formula_structural   Y3Tm3Sc2(Co4P3)4
_chemical_formula_sum   'Y3 Tm3 Sc2 Co16 P12'
_cell_volume   484.69183695
_cell_formula_units_Z   1
loop_
 _symmetry_equiv_pos_site_id
 _symmetry_equiv_pos_as_xyz
  1  'x, y, z'
loop_
 _atom_site_type_symbol
 _atom_site_label
 _atom_site_symmetry_multiplicity
 _atom_site_fract_x
 _atom_site_fract_y
 _atom_site_fract_z
 _atom_site_occupancy
  Y  Y0  1  0.000000  0.499927  0.528216  1
  Y  Y1  1  0.500000  0.000206  0.472069  1
  Y  Y2  1  0.500000  0.822493  0.205362  1
  Tm  Tm3  1  0.500000  0.177577  0.205425  1
  Tm  Tm4  1  0.000000  0.677218  0.794724  1
  Tm  Tm5  1  0.000000  0.322789  0.794440  1
  Sc  Sc6  1  0.500000  0.499578  0.157392  1
  Sc  Sc7  1  0.000000  0.000009  0.842578  1
  Co  Co8  1  0.500000  0.499893  0.706456  1
  Co  Co9  1  0.000000  0.001555  0.294079  1
  Co  Co10  1  0.000000  0.499726  0.987256  1
  Co  Co11  1  0.500000  0.000337  0.011969  1
  Co  Co12  1  0.500000  0.331148  0.994578  1
  Co  Co13  1  0.500000  0.668480  0.994118  1
  Co  Co14  1  0.000000  0.169186  0.005053  1
  Co  Co15  1  0.000000  0.831132  0.004732  1
  Co  Co16  1  0.500000  0.295234  0.432834  1
  Co  Co17  1  0.500000  0.704540  0.433390  1
  Co  Co18  1  0.000000  0.204919  0.567317  1
  Co  Co19  1  0.000000  0.795114  0.567688  1
  Co  Co20  1  0.500000  0.877338  0.703310  1
  Co  Co21  1  0.500000  0.122755  0.703142  1
  Co  Co22  1  0.000000  0.621800  0.297463  1
  Co  Co23  1  0.000000  0.377189  0.296781  1
  P  P24  1  0.500000  0.499834  0.885170  1
  P  P25  1  0.000000  0.001096  0.114104  1
  P  P26  1  0.500000  0.500080  0.360214  1
  P  P27  1  0.000000  0.000010  0.639917  1
  P  P28  1  0.500000  0.309898  0.616530  1
  P  P29  1  0.500000  0.689920  0.616779  1
  P  P30  1  0.000000  0.190376  0.383594  1
  P  P31  1  0.000000  0.809648  0.384677  1
  P  P32  1  0.500000  0.838666  0.891692  1
  P  P33  1  0.500000  0.161423  0.891548  1
  P  P34  1  0.000000  0.660238  0.107207  1
  P  P35  1  0.000000  0.338671  0.108197  1
