# generated using pymatgen
data_Y4Hf3NbF28
_symmetry_space_group_name_H-M   'P 1'
_cell_length_a   5.69695636
_cell_length_b   9.05125393
_cell_length_c   12.18786953
_cell_angle_alpha   62.61685450
_cell_angle_beta   89.99074840
_cell_angle_gamma   90.05473802
_symmetry_Int_Tables_number   1
_chemical_formula_structural   Y4Hf3NbF28
_chemical_formula_sum   'Y4 Hf3 Nb1 F28'
_cell_volume   558.04343770
_cell_formula_units_Z   1
loop_
 _symmetry_equiv_pos_site_id
 _symmetry_equiv_pos_as_xyz
  1  'x, y, z'
loop_
 _atom_site_type_symbol
 _atom_site_label
 _atom_site_symmetry_multiplicity
 _atom_site_fract_x
 _atom_site_fract_y
 _atom_site_fract_z
 _atom_site_occupancy
  Y  Y0  1  0.255179  0.813996  0.268070  1
  Y  Y1  1  0.743305  0.181673  0.734771  1
  Y  Y2  1  0.757406  0.187989  0.232093  1
  Y  Y3  1  0.242827  0.812785  0.764478  1
  Hf  Hf4  1  0.755416  0.726406  0.044168  1
  Hf  Hf5  1  0.244774  0.273397  0.955037  1
  Hf  Hf6  1  0.256482  0.274096  0.456102  1
  Nb  Nb7  1  0.743821  0.725659  0.544945  1
  F  F8  1  0.948096  0.709846  0.413688  1
  F  F9  1  0.039565  0.289588  0.579882  1
  F  F10  1  0.460937  0.291088  0.078192  1
  F  F11  1  0.536181  0.710099  0.922044  1
  F  F12  1  0.486237  0.733265  0.147953  1
  F  F13  1  0.516948  0.268767  0.851743  1
  F  F14  1  0.983178  0.265903  0.354729  1
  F  F15  1  0.030352  0.729114  0.643188  1
  F  F16  1  0.967017  0.747100  0.169288  1
  F  F17  1  0.036558  0.252963  0.827989  1
  F  F18  1  0.465719  0.253275  0.329388  1
  F  F19  1  0.544893  0.745509  0.677616  1
  F  F20  1  0.772955  0.477620  0.139683  1
  F  F21  1  0.226380  0.521529  0.860418  1
  F  F22  1  0.271370  0.522162  0.359737  1
  F  F23  1  0.732383  0.482016  0.640395  1
  F  F24  1  0.952956  0.277928  0.048034  1
  F  F25  1  0.044401  0.722536  0.949461  1
  F  F26  1  0.443678  0.724464  0.452309  1
  F  F27  1  0.547167  0.281213  0.549172  1
  F  F28  1  0.739180  0.968404  0.448892  1
  F  F29  1  0.261894  0.026532  0.555678  1
  F  F30  1  0.242508  0.026500  0.057530  1
  F  F31  1  0.758617  0.974590  0.942538  1
  F  F32  1  0.573898  0.974119  0.235584  1
  F  F33  1  0.422152  0.028041  0.765797  1
  F  F34  1  0.073505  0.028803  0.268430  1
  F  F35  1  0.922065  0.971024  0.730978  1
