# generated using pymatgen
data_Ho2ThZnAg3Ge2
_symmetry_space_group_name_H-M   'P 1'
_cell_length_a   7.25988923
_cell_length_b   7.25988908
_cell_length_c   4.23903200
_cell_angle_alpha   90.00000000
_cell_angle_beta   90.00000000
_cell_angle_gamma   120.52505405
_symmetry_Int_Tables_number   1
_chemical_formula_structural   Ho2ThZnAg3Ge2
_chemical_formula_sum   'Ho2 Th1 Zn1 Ag3 Ge2'
_cell_volume   192.45763453
_cell_formula_units_Z   1
loop_
 _symmetry_equiv_pos_site_id
 _symmetry_equiv_pos_as_xyz
  1  'x, y, z'
loop_
 _atom_site_type_symbol
 _atom_site_label
 _atom_site_symmetry_multiplicity
 _atom_site_fract_x
 _atom_site_fract_y
 _atom_site_fract_z
 _atom_site_occupancy
  Ho  Ho0  1  0.001046  0.583380  0.000000  1
  Ho  Ho1  1  0.583380  0.001046  0.000000  1
  Th  Th2  1  0.418927  0.418927  0.000000  1
  Zn  Zn3  1  0.993955  0.993955  0.000000  1
  Ag  Ag4  1  0.760188  0.760188  0.500000  1
  Ag  Ag5  1  0.245001  0.996277  0.500000  1
  Ag  Ag6  1  0.996277  0.245001  0.500000  1
  Ge  Ge7  1  0.669589  0.331639  0.500000  1
  Ge  Ge8  1  0.331639  0.669589  0.500000  1
