# generated using pymatgen
data_K6ScAlAs4
_symmetry_space_group_name_H-M   'P 1'
_cell_length_a   9.10064873
_cell_length_b   9.10064854
_cell_length_c   9.10064820
_cell_angle_alpha   136.82934519
_cell_angle_beta   127.93660843
_cell_angle_gamma   69.87261881
_symmetry_Int_Tables_number   1
_chemical_formula_structural   K6ScAlAs4
_chemical_formula_sum   'K6 Sc1 Al1 As4'
_cell_volume   399.04984699
_cell_formula_units_Z   1
loop_
 _symmetry_equiv_pos_site_id
 _symmetry_equiv_pos_as_xyz
  1  'x, y, z'
loop_
 _atom_site_type_symbol
 _atom_site_label
 _atom_site_symmetry_multiplicity
 _atom_site_fract_x
 _atom_site_fract_y
 _atom_site_fract_z
 _atom_site_occupancy
  K  K0  1  0.009299  0.803010  0.185864  1
  K  K1  1  0.500000  0.750000  0.250000  1
  K  K2  1  0.617147  0.323436  0.314136  1
  K  K3  1  0.382853  0.696990  0.706290  1
  K  K4  1  0.500000  0.250000  0.750000  1
  K  K5  1  0.990701  0.176564  0.793710  1
  Sc  Sc6  1  0.000000  0.250000  0.250000  1
  Al  Al7  1  0.000000  0.750000  0.750000  1
  As  As8  1  0.088374  0.417959  0.695871  1
  As  As9  1  0.911626  0.607495  0.329584  1
  As  As10  1  0.277912  0.082041  0.170416  1
  As  As11  1  0.722088  0.892505  0.804129  1
