# generated using pymatgen
data_Tb19YCo3Bi8Ru
_symmetry_space_group_name_H-M   'P 1'
_cell_length_a   8.06229049
_cell_length_b   8.93266500
_cell_length_c   12.49989410
_cell_angle_alpha   90.00000000
_cell_angle_beta   90.13400346
_cell_angle_gamma   90.00000000
_symmetry_Int_Tables_number   1
_chemical_formula_structural   Tb19YCo3Bi8Ru
_chemical_formula_sum   'Tb19 Y1 Co3 Bi8 Ru1'
_cell_volume   900.21166165
_cell_formula_units_Z   1
loop_
 _symmetry_equiv_pos_site_id
 _symmetry_equiv_pos_as_xyz
  1  'x, y, z'
loop_
 _atom_site_type_symbol
 _atom_site_label
 _atom_site_symmetry_multiplicity
 _atom_site_fract_x
 _atom_site_fract_y
 _atom_site_fract_z
 _atom_site_occupancy
  Tb  Tb0  1  0.847811  0.750000  0.800536  1
  Tb  Tb1  1  0.348386  0.250000  0.698724  1
  Tb  Tb2  1  0.652737  0.750000  0.296757  1
  Tb  Tb3  1  0.378277  0.750000  0.693716  1
  Tb  Tb4  1  0.618983  0.250000  0.309641  1
  Tb  Tb5  1  0.880590  0.250000  0.810158  1
  Tb  Tb6  1  0.118659  0.750000  0.188442  1
  Tb  Tb7  1  0.951972  0.750000  0.503718  1
  Tb  Tb8  1  0.047679  0.250000  0.496746  1
  Tb  Tb9  1  0.453620  0.250000  0.997249  1
  Tb  Tb10  1  0.546533  0.750000  0.002502  1
  Tb  Tb11  1  0.677803  0.040426  0.564197  1
  Tb  Tb12  1  0.322212  0.966880  0.436484  1
  Tb  Tb13  1  0.176683  0.966775  0.937219  1
  Tb  Tb14  1  0.322212  0.533120  0.436484  1
  Tb  Tb15  1  0.822687  0.035435  0.062905  1
  Tb  Tb16  1  0.677803  0.459574  0.564197  1
  Tb  Tb17  1  0.822687  0.464565  0.062905  1
  Tb  Tb18  1  0.176683  0.533225  0.937219  1
  Y  Y19  1  0.151732  0.250000  0.199073  1
  Co  Co20  1  0.436664  0.250000  0.490970  1
  Co  Co21  1  0.059339  0.250000  0.991056  1
  Co  Co22  1  0.938992  0.750000  0.007556  1
  Bi  Bi23  1  0.571992  0.491937  0.826591  1
  Bi  Bi24  1  0.427140  0.507351  0.173740  1
  Bi  Bi25  1  0.072180  0.507456  0.674772  1
  Bi  Bi26  1  0.427140  0.992649  0.173740  1
  Bi  Bi27  1  0.929484  0.491899  0.325455  1
  Bi  Bi28  1  0.571992  0.008063  0.826591  1
  Bi  Bi29  1  0.929484  0.008101  0.325455  1
  Bi  Bi30  1  0.072180  0.992544  0.674772  1
  Ru  Ru31  1  0.567660  0.750000  0.510432  1
