# generated using pymatgen
data_ErTmFe7Ni5P7
_symmetry_space_group_name_H-M   'P 1'
_cell_length_a   8.99743001
_cell_length_b   9.02050478
_cell_length_c   3.64017700
_cell_angle_alpha   90.00000000
_cell_angle_beta   90.00000000
_cell_angle_gamma   119.75956874
_symmetry_Int_Tables_number   1
_chemical_formula_structural   ErTmFe7Ni5P7
_chemical_formula_sum   'Er1 Tm1 Fe7 Ni5 P7'
_cell_volume   256.47766148
_cell_formula_units_Z   1
loop_
 _symmetry_equiv_pos_site_id
 _symmetry_equiv_pos_as_xyz
  1  'x, y, z'
loop_
 _atom_site_type_symbol
 _atom_site_label
 _atom_site_symmetry_multiplicity
 _atom_site_fract_x
 _atom_site_fract_y
 _atom_site_fract_z
 _atom_site_occupancy
  Er  Er0  1  0.331823  0.667930  0.500000  1
  Tm  Tm1  1  0.001627  0.998544  0.000000  1
  Fe  Fe2  1  0.823357  0.213535  0.000000  1
  Fe  Fe3  1  0.784221  0.609402  0.000000  1
  Fe  Fe4  1  0.394782  0.179861  0.000000  1
  Fe  Fe5  1  0.231483  0.946042  0.500000  1
  Fe  Fe6  1  0.887049  0.457821  0.500000  1
  Fe  Fe7  1  0.544742  0.429746  0.500000  1
  Fe  Fe8  1  0.572506  0.118867  0.500000  1
  Ni  Ni9  1  0.098259  0.703016  0.000000  1
  Ni  Ni10  1  0.292207  0.393553  0.000000  1
  Ni  Ni11  1  0.602107  0.898018  0.000000  1
  Ni  Ni12  1  0.054957  0.282204  0.500000  1
  Ni  Ni13  1  0.715824  0.771248  0.500000  1
  P  P14  1  0.071685  0.445506  0.000000  1
  P  P15  1  0.551717  0.625260  0.000000  1
  P  P16  1  0.366752  0.926402  0.000000  1
  P  P17  1  0.782115  0.049549  0.500000  1
  P  P18  1  0.955710  0.736826  0.500000  1
  P  P19  1  0.267729  0.211263  0.500000  1
  P  P20  1  0.669348  0.335401  0.000000  1
