# generated using pymatgen
data_DyTm4P12Ir9Ru10
_symmetry_space_group_name_H-M   'P 1'
_cell_length_a   12.59120711
_cell_length_b   12.55651038
_cell_length_c   3.95442700
_cell_angle_alpha   90.00000000
_cell_angle_beta   90.00000000
_cell_angle_gamma   119.81578206
_symmetry_Int_Tables_number   1
_chemical_formula_structural   DyTm4P12Ir9Ru10
_chemical_formula_sum   'Dy1 Tm4 P12 Ir9 Ru10'
_cell_volume   542.44250687
_cell_formula_units_Z   1
loop_
 _symmetry_equiv_pos_site_id
 _symmetry_equiv_pos_as_xyz
  1  'x, y, z'
loop_
 _atom_site_type_symbol
 _atom_site_label
 _atom_site_symmetry_multiplicity
 _atom_site_fract_x
 _atom_site_fract_y
 _atom_site_fract_z
 _atom_site_occupancy
  Dy  Dy0  1  0.000287  0.813957  0.500000  1
  Tm  Tm1  1  0.667602  0.332456  0.000000  1
  Tm  Tm2  1  0.333309  0.666619  0.000000  1
  Tm  Tm3  1  0.812700  0.000965  0.500000  1
  Tm  Tm4  1  0.185218  0.187426  0.500000  1
  P  P5  1  0.632179  0.997593  0.000000  1
  P  P6  1  0.364404  0.370413  0.000000  1
  P  P7  1  0.006208  0.635272  0.000000  1
  P  P8  1  0.689500  0.518924  0.500000  1
  P  P9  1  0.829395  0.306716  0.500000  1
  P  P10  1  0.313208  0.829750  0.500000  1
  P  P11  1  0.516418  0.686515  0.500000  1
  P  P12  1  0.180972  0.001921  0.000000  1
  P  P13  1  0.818950  0.819356  0.000000  1
  P  P14  1  0.996328  0.181188  0.000000  1
  P  P15  1  0.480595  0.168308  0.500000  1
  P  P16  1  0.170508  0.483863  0.500000  1
  Ir  Ir17  1  0.624290  0.804573  0.000000  1
  Ir  Ir18  1  0.180910  0.376107  0.000000  1
  Ir  Ir19  1  0.374154  0.184965  0.000000  1
  Ir  Ir20  1  0.196053  0.820919  0.000000  1
  Ir  Ir21  1  0.809777  0.624919  0.000000  1
  Ir  Ir22  1  0.867894  0.504480  0.500000  1
  Ir  Ir23  1  0.494476  0.361161  0.500000  1
  Ir  Ir24  1  0.636811  0.128825  0.500000  1
  Ir  Ir25  1  0.999396  0.000821  0.000000  1
  Ru  Ru26  1  0.128009  0.640076  0.500000  1
  Ru  Ru27  1  0.361293  0.488586  0.500000  1
  Ru  Ru28  1  0.509984  0.870110  0.500000  1
  Ru  Ru29  1  0.714882  0.713459  0.500000  1
  Ru  Ru30  1  0.000857  0.285911  0.500000  1
  Ru  Ru31  1  0.450848  0.001496  0.000000  1
  Ru  Ru32  1  0.551420  0.547113  0.000000  1
  Ru  Ru33  1  0.998816  0.450021  0.000000  1
  Ru  Ru34  1  0.816156  0.193081  0.000000  1
  Ru  Ru35  1  0.286191  0.002136  0.500000  1
