# generated using pymatgen
data_DyHoTm2(B6Rh)2
_symmetry_space_group_name_H-M   'P 1'
_cell_length_a   3.63731400
_cell_length_b   9.13785501
_cell_length_c   11.47714214
_cell_angle_alpha   89.99323082
_cell_angle_beta   90.00000000
_cell_angle_gamma   90.00000000
_symmetry_Int_Tables_number   1
_chemical_formula_structural   DyHoTm2(B6Rh)2
_chemical_formula_sum   'Dy2 Ho2 Tm4 B24 Rh4'
_cell_volume   381.46861629
_cell_formula_units_Z   2
loop_
 _symmetry_equiv_pos_site_id
 _symmetry_equiv_pos_as_xyz
  1  'x, y, z'
loop_
 _atom_site_type_symbol
 _atom_site_label
 _atom_site_symmetry_multiplicity
 _atom_site_fract_x
 _atom_site_fract_y
 _atom_site_fract_z
 _atom_site_occupancy
  Dy  Dy0  1  0.500000  0.178017  0.913701  1
  Dy  Dy1  1  0.500000  0.821983  0.086299  1
  Ho  Ho2  1  0.500000  0.321865  0.413754  1
  Ho  Ho3  1  0.500000  0.678135  0.586246  1
  Tm  Tm4  1  0.500000  0.444270  0.126857  1
  Tm  Tm5  1  0.500000  0.555730  0.873143  1
  Tm  Tm6  1  0.500000  0.055718  0.626736  1
  Tm  Tm7  1  0.500000  0.944282  0.373264  1
  B  B8  1  0.000000  0.108139  0.470743  1
  B  B9  1  0.000000  0.891861  0.529257  1
  B  B10  1  0.000000  0.392215  0.970846  1
  B  B11  1  0.000000  0.607785  0.029154  1
  B  B12  1  0.000000  0.132746  0.316549  1
  B  B13  1  0.000000  0.867254  0.683451  1
  B  B14  1  0.000000  0.367456  0.816361  1
  B  B15  1  0.000000  0.632544  0.183639  1
  B  B16  1  0.000000  0.054248  0.065624  1
  B  B17  1  0.000000  0.945752  0.934376  1
  B  B18  1  0.000000  0.445844  0.565398  1
  B  B19  1  0.000000  0.554156  0.434602  1
  B  B20  1  0.000000  0.482649  0.286382  1
  B  B21  1  0.000000  0.517351  0.713618  1
  B  B22  1  0.000000  0.017118  0.786189  1
  B  B23  1  0.000000  0.982882  0.213811  1
  B  B24  1  0.000000  0.250178  0.079769  1
  B  B25  1  0.000000  0.749822  0.920231  1
  B  B26  1  0.000000  0.249926  0.579512  1
  B  B27  1  0.000000  0.750074  0.420488  1
  B  B28  1  0.000000  0.294492  0.235984  1
  B  B29  1  0.000000  0.705508  0.764016  1
  B  B30  1  0.000000  0.205641  0.735663  1
  B  B31  1  0.000000  0.794359  0.264337  1
  Rh  Rh32  1  0.500000  0.140113  0.179620  1
  Rh  Rh33  1  0.500000  0.859887  0.820380  1
  Rh  Rh34  1  0.500000  0.360284  0.679216  1
  Rh  Rh35  1  0.500000  0.639716  0.320784  1
