# generated using pymatgen
data_Lu8Cd2IrRu
_symmetry_space_group_name_H-M   'P 1'
_cell_length_a   9.44484969
_cell_length_b   9.44485009
_cell_length_c   9.51015900
_cell_angle_alpha   59.77100013
_cell_angle_beta   59.77099873
_cell_angle_gamma   59.54472982
_symmetry_Int_Tables_number   1
_chemical_formula_structural   Lu8Cd2IrRu
_chemical_formula_sum   'Lu16 Cd4 Ir2 Ru2'
_cell_volume   595.72346880
_cell_formula_units_Z   2
loop_
 _symmetry_equiv_pos_site_id
 _symmetry_equiv_pos_as_xyz
  1  'x, y, z'
loop_
 _atom_site_type_symbol
 _atom_site_label
 _atom_site_symmetry_multiplicity
 _atom_site_fract_x
 _atom_site_fract_y
 _atom_site_fract_z
 _atom_site_occupancy
  Lu  Lu0  1  0.349113  0.349113  0.348419  1
  Lu  Lu1  1  0.349113  0.349113  0.953354  1
  Lu  Lu2  1  0.347204  0.959461  0.346667  1
  Lu  Lu3  1  0.959461  0.347204  0.346667  1
  Lu  Lu4  1  0.811462  0.187795  0.191266  1
  Lu  Lu5  1  0.187795  0.811462  0.809478  1
  Lu  Lu6  1  0.187795  0.811462  0.191266  1
  Lu  Lu7  1  0.811462  0.187795  0.809478  1
  Lu  Lu8  1  0.188524  0.188524  0.811476  1
  Lu  Lu9  1  0.808565  0.808565  0.191435  1
  Lu  Lu10  1  0.938538  0.558801  0.563590  1
  Lu  Lu11  1  0.558801  0.938538  0.939070  1
  Lu  Lu12  1  0.558801  0.938538  0.563590  1
  Lu  Lu13  1  0.938538  0.558801  0.939070  1
  Lu  Lu14  1  0.559737  0.559737  0.940263  1
  Lu  Lu15  1  0.937494  0.937494  0.562506  1
  Cd  Cd16  1  0.580677  0.580677  0.581062  1
  Cd  Cd17  1  0.580677  0.580677  0.257584  1
  Cd  Cd18  1  0.581445  0.256286  0.581135  1
  Cd  Cd19  1  0.256286  0.581445  0.581135  1
  Ir  Ir20  1  0.145062  0.577551  0.138693  1
  Ir  Ir21  1  0.577551  0.145062  0.138693  1
  Ru  Ru22  1  0.142948  0.142948  0.136399  1
  Ru  Ru23  1  0.142948  0.142948  0.577703  1
