# generated using pymatgen
data_Tb4Sm2PtBr10
_symmetry_space_group_name_H-M   'P 1'
_cell_length_a   7.43121647
_cell_length_b   9.31633032
_cell_length_c   9.42571295
_cell_angle_alpha   108.29171964
_cell_angle_beta   96.79001064
_cell_angle_gamma   105.85255790
_symmetry_Int_Tables_number   1
_chemical_formula_structural   Tb4Sm2PtBr10
_chemical_formula_sum   'Tb4 Sm2 Pt1 Br10'
_cell_volume   580.96917054
_cell_formula_units_Z   1
loop_
 _symmetry_equiv_pos_site_id
 _symmetry_equiv_pos_as_xyz
  1  'x, y, z'
loop_
 _atom_site_type_symbol
 _atom_site_label
 _atom_site_symmetry_multiplicity
 _atom_site_fract_x
 _atom_site_fract_y
 _atom_site_fract_z
 _atom_site_occupancy
  Tb  Tb0  1  0.974145  0.301882  0.095761  1
  Tb  Tb1  1  0.025855  0.698118  0.904239  1
  Tb  Tb2  1  0.364115  0.138024  0.179220  1
  Tb  Tb3  1  0.635885  0.861976  0.820780  1
  Sm  Sm4  1  0.127148  0.045880  0.749323  1
  Sm  Sm5  1  0.872852  0.954120  0.250677  1
  Pt  Pt6  1  0.000000  0.000000  0.000000  1
  Br  Br7  1  0.551810  0.177464  0.917595  1
  Br  Br8  1  0.448190  0.822536  0.082405  1
  Br  Br9  1  0.356831  0.455018  0.270881  1
  Br  Br10  1  0.643169  0.544982  0.729119  1
  Br  Br11  1  0.260063  0.085719  0.455044  1
  Br  Br12  1  0.739937  0.914281  0.544956  1
  Br  Br13  1  0.786493  0.261879  0.345871  1
  Br  Br14  1  0.213507  0.738121  0.654129  1
  Br  Br15  1  0.083722  0.371895  0.829586  1
  Br  Br16  1  0.916278  0.628105  0.170414  1
