# generated using pymatgen
data_Gd2FeSi4Ir
_symmetry_space_group_name_H-M   'P 1'
_cell_length_a   3.96740800
_cell_length_b   4.47186942
_cell_length_c   8.15712900
_cell_angle_alpha   77.59672486
_cell_angle_beta   90.00000000
_cell_angle_gamma   90.00000000
_symmetry_Int_Tables_number   1
_chemical_formula_structural   Gd2FeSi4Ir
_chemical_formula_sum   'Gd2 Fe1 Si4 Ir1'
_cell_volume   141.34378308
_cell_formula_units_Z   1
loop_
 _symmetry_equiv_pos_site_id
 _symmetry_equiv_pos_as_xyz
  1  'x, y, z'
loop_
 _atom_site_type_symbol
 _atom_site_label
 _atom_site_symmetry_multiplicity
 _atom_site_fract_x
 _atom_site_fract_y
 _atom_site_fract_z
 _atom_site_occupancy
  Gd  Gd0  1  0.250000  0.591261  0.801172  1
  Gd  Gd1  1  0.750000  0.424709  0.200239  1
  Fe  Fe2  1  0.750000  0.114983  0.608807  1
  Si  Si3  1  0.250000  0.971572  0.083266  1
  Si  Si4  1  0.750000  0.044693  0.900237  1
  Si  Si5  1  0.250000  0.321675  0.498816  1
  Si  Si6  1  0.750000  0.650641  0.523481  1
  Ir  Ir7  1  0.250000  0.880466  0.383980  1
