# generated using pymatgen
data_Hf18Ta2Fe2Re5Os
_symmetry_space_group_name_H-M   'P 1'
_cell_length_a   8.47480500
_cell_length_b   8.66115096
_cell_length_c   8.65772410
_cell_angle_alpha   120.01331412
_cell_angle_beta   90.00000000
_cell_angle_gamma   90.00000000
_symmetry_Int_Tables_number   1
_chemical_formula_structural   Hf18Ta2Fe2Re5Os
_chemical_formula_sum   'Hf18 Ta2 Fe2 Re5 Os1'
_cell_volume   550.27706781
_cell_formula_units_Z   1
loop_
 _symmetry_equiv_pos_site_id
 _symmetry_equiv_pos_as_xyz
  1  'x, y, z'
loop_
 _atom_site_type_symbol
 _atom_site_label
 _atom_site_symmetry_multiplicity
 _atom_site_fract_x
 _atom_site_fract_y
 _atom_site_fract_z
 _atom_site_occupancy
  Hf  Hf0  1  0.560143  0.798181  0.596341  1
  Hf  Hf1  1  0.559840  0.797505  0.201454  1
  Hf  Hf2  1  0.559859  0.403966  0.201460  1
  Hf  Hf3  1  0.438600  0.202431  0.404854  1
  Hf  Hf4  1  0.439967  0.201304  0.798130  1
  Hf  Hf5  1  0.439936  0.596822  0.798125  1
  Hf  Hf6  1  0.061400  0.202431  0.404854  1
  Hf  Hf7  1  0.060033  0.201304  0.798130  1
  Hf  Hf8  1  0.060064  0.596822  0.798125  1
  Hf  Hf9  1  0.939857  0.798181  0.596341  1
  Hf  Hf10  1  0.940160  0.797505  0.201454  1
  Hf  Hf11  1  0.940141  0.403966  0.201460  1
  Hf  Hf12  1  0.750000  0.458501  0.916975  1
  Hf  Hf13  1  0.750000  0.458395  0.541232  1
  Hf  Hf14  1  0.750000  0.082831  0.541222  1
  Hf  Hf15  1  0.250000  0.540970  0.081947  1
  Hf  Hf16  1  0.250000  0.541415  0.458603  1
  Hf  Hf17  1  0.250000  0.917241  0.458630  1
  Ta  Ta18  1  0.500859  0.000757  0.001496  1
  Ta  Ta19  1  0.999141  0.000757  0.001496  1
  Fe  Fe20  1  0.750000  0.665911  0.331782  1
  Fe  Fe21  1  0.250000  0.333408  0.666951  1
  Re  Re22  1  0.750000  0.113447  0.884307  1
  Re  Re23  1  0.750000  0.770849  0.884306  1
  Re  Re24  1  0.250000  0.885619  0.771249  1
  Re  Re25  1  0.250000  0.886361  0.114807  1
  Re  Re26  1  0.250000  0.228434  0.114798  1
  Os  Os27  1  0.750000  0.114686  0.229465  1
