# generated using pymatgen
data_Tb5YRh2
_symmetry_space_group_name_H-M   'P 1'
_cell_length_a   6.28722700
_cell_length_b   7.18000400
_cell_length_c   9.56203700
_cell_angle_alpha   90.00000000
_cell_angle_beta   90.00000000
_cell_angle_gamma   90.00000000
_symmetry_Int_Tables_number   1
_chemical_formula_structural   Tb5YRh2
_chemical_formula_sum   'Tb10 Y2 Rh4'
_cell_volume   431.65248638
_cell_formula_units_Z   2
loop_
 _symmetry_equiv_pos_site_id
 _symmetry_equiv_pos_as_xyz
  1  'x, y, z'
loop_
 _atom_site_type_symbol
 _atom_site_label
 _atom_site_symmetry_multiplicity
 _atom_site_fract_x
 _atom_site_fract_y
 _atom_site_fract_z
 _atom_site_occupancy
  Tb  Tb0  1  0.330353  0.677260  0.063402  1
  Tb  Tb1  1  0.169647  0.177260  0.436598  1
  Tb  Tb2  1  0.669367  0.322521  0.563457  1
  Tb  Tb3  1  0.830633  0.822521  0.936543  1
  Tb  Tb4  1  0.669367  0.322521  0.936543  1
  Tb  Tb5  1  0.830633  0.822521  0.563457  1
  Tb  Tb6  1  0.330353  0.677260  0.436598  1
  Tb  Tb7  1  0.169647  0.177260  0.063402  1
  Tb  Tb8  1  0.134812  0.468210  0.750000  1
  Tb  Tb9  1  0.365188  0.968210  0.750000  1
  Y  Y10  1  0.865257  0.531840  0.250000  1
  Y  Y11  1  0.634743  0.031840  0.250000  1
  Rh  Rh12  1  0.062279  0.882404  0.250000  1
  Rh  Rh13  1  0.437721  0.382404  0.250000  1
  Rh  Rh14  1  0.939001  0.117984  0.750000  1
  Rh  Rh15  1  0.560999  0.617984  0.750000  1
