# generated using pymatgen
data_Zr6GaSe2
_symmetry_space_group_name_H-M   'P 1'
_cell_length_a   3.71198200
_cell_length_b   12.82596700
_cell_length_c   15.74633600
_cell_angle_alpha   90.00000000
_cell_angle_beta   90.00000000
_cell_angle_gamma   90.00000000
_symmetry_Int_Tables_number   1
_chemical_formula_structural   Zr6GaSe2
_chemical_formula_sum   'Zr24 Ga4 Se8'
_cell_volume   749.67925637
_cell_formula_units_Z   4
loop_
 _symmetry_equiv_pos_site_id
 _symmetry_equiv_pos_as_xyz
  1  'x, y, z'
loop_
 _atom_site_type_symbol
 _atom_site_label
 _atom_site_symmetry_multiplicity
 _atom_site_fract_x
 _atom_site_fract_y
 _atom_site_fract_z
 _atom_site_occupancy
  Zr  Zr0  1  0.000000  0.028252  0.107508  1
  Zr  Zr1  1  0.000000  0.971748  0.892492  1
  Zr  Zr2  1  0.500000  0.471748  0.607508  1
  Zr  Zr3  1  0.500000  0.528252  0.392492  1
  Zr  Zr4  1  0.000000  0.408067  0.244297  1
  Zr  Zr5  1  0.000000  0.591933  0.755703  1
  Zr  Zr6  1  0.500000  0.091933  0.744297  1
  Zr  Zr7  1  0.500000  0.908067  0.255703  1
  Zr  Zr8  1  0.000000  0.082184  0.575273  1
  Zr  Zr9  1  0.000000  0.917816  0.424727  1
  Zr  Zr10  1  0.500000  0.417816  0.075273  1
  Zr  Zr11  1  0.500000  0.582184  0.924727  1
  Zr  Zr12  1  0.000000  0.349932  0.479221  1
  Zr  Zr13  1  0.000000  0.650068  0.520779  1
  Zr  Zr14  1  0.500000  0.150068  0.979221  1
  Zr  Zr15  1  0.500000  0.849932  0.020779  1
  Zr  Zr16  1  0.000000  0.691386  0.292797  1
  Zr  Zr17  1  0.000000  0.308614  0.707203  1
  Zr  Zr18  1  0.500000  0.808614  0.792797  1
  Zr  Zr19  1  0.500000  0.191386  0.207203  1
  Zr  Zr20  1  0.000000  0.617042  0.079731  1
  Zr  Zr21  1  0.000000  0.382958  0.920269  1
  Zr  Zr22  1  0.500000  0.882958  0.579731  1
  Zr  Zr23  1  0.500000  0.117042  0.420269  1
  Ga  Ga24  1  0.000000  0.257659  0.086247  1
  Ga  Ga25  1  0.000000  0.742341  0.913753  1
  Ga  Ga26  1  0.500000  0.242341  0.586247  1
  Ga  Ga27  1  0.500000  0.757659  0.413753  1
  Se  Se28  1  0.000000  0.065214  0.289928  1
  Se  Se29  1  0.000000  0.934786  0.710072  1
  Se  Se30  1  0.500000  0.434786  0.789928  1
  Se  Se31  1  0.500000  0.565214  0.210072  1
  Se  Se32  1  0.000000  0.812990  0.149898  1
  Se  Se33  1  0.000000  0.187010  0.850102  1
  Se  Se34  1  0.500000  0.687010  0.649898  1
  Se  Se35  1  0.500000  0.312990  0.350102  1
