# generated using pymatgen
data_Er3Lu2(ReN4)3
_symmetry_space_group_name_H-M   'P 1'
_cell_length_a   10.99682297
_cell_length_b   10.99682276
_cell_length_c   10.99682300
_cell_angle_alpha   109.47122291
_cell_angle_beta   109.47122254
_cell_angle_gamma   109.47121910
_symmetry_Int_Tables_number   1
_chemical_formula_structural   Er3Lu2(ReN4)3
_chemical_formula_sum   'Er12 Lu8 Re12 N48'
_cell_volume   1023.71670256
_cell_formula_units_Z   4
loop_
 _symmetry_equiv_pos_site_id
 _symmetry_equiv_pos_as_xyz
  1  'x, y, z'
loop_
 _atom_site_type_symbol
 _atom_site_label
 _atom_site_symmetry_multiplicity
 _atom_site_fract_x
 _atom_site_fract_y
 _atom_site_fract_z
 _atom_site_occupancy
  Er  Er0  1  0.249999  0.374995  0.124989  1
  Er  Er1  1  0.374979  0.749985  0.124987  1
  Er  Er2  1  0.374989  0.124995  0.249996  1
  Er  Er3  1  0.874996  0.625001  0.250001  1
  Er  Er4  1  0.749998  0.125000  0.374978  1
  Er  Er5  1  0.124999  0.249996  0.375011  1
  Er  Er6  1  0.874983  0.749998  0.624995  1
  Er  Er7  1  0.250001  0.874988  0.625005  1
  Er  Er8  1  0.124999  0.374994  0.750000  1
  Er  Er9  1  0.625015  0.875008  0.750016  1
  Er  Er10  1  0.625009  0.250004  0.875018  1
  Er  Er11  1  0.750009  0.624995  0.875008  1
  Lu  Lu12  1  0.999966  0.999960  0.999978  1
  Lu  Lu13  1  0.500015  0.000010  0.000032  1
  Lu  Lu14  1  0.999959  0.499989  0.999993  1
  Lu  Lu15  1  0.500029  0.499997  0.000010  1
  Lu  Lu16  1  0.999972  0.000001  0.499963  1
  Lu  Lu17  1  0.500003  0.000016  0.499958  1
  Lu  Lu18  1  0.000002  0.500030  0.500003  1
  Lu  Lu19  1  0.499993  0.500002  0.500012  1
  Re  Re20  1  0.875096  0.250061  0.125071  1
  Re  Re21  1  0.750022  0.874968  0.124973  1
  Re  Re22  1  0.624980  0.375027  0.249991  1
  Re  Re23  1  0.124988  0.875022  0.250040  1
  Re  Re24  1  0.249979  0.624967  0.374986  1
  Re  Re25  1  0.624999  0.749993  0.374996  1
  Re  Re26  1  0.374955  0.249980  0.624957  1
  Re  Re27  1  0.750043  0.374984  0.624987  1
  Re  Re28  1  0.875053  0.125043  0.749986  1
  Re  Re29  1  0.374961  0.624946  0.749997  1
  Re  Re30  1  0.249975  0.125022  0.875024  1
  Re  Re31  1  0.124971  0.749937  0.874940  1
  N  N32  1  0.223663  0.126520  0.030164  1
  N  N33  1  0.306502  0.903635  0.030153  1
  N  N34  1  0.873500  0.403683  0.097156  1
  N  N35  1  0.723652  0.693518  0.097140  1
  N  N36  1  0.626518  0.402858  0.096347  1
  N  N37  1  0.969861  0.693529  0.096389  1
  N  N38  1  0.596331  0.902858  0.126509  1
  N  N39  1  0.030161  0.223665  0.126527  1
  N  N40  1  0.223651  0.597122  0.193480  1
  N  N41  1  0.469848  0.596361  0.193521  1
  N  N42  1  0.126525  0.030178  0.223670  1
  N  N43  1  0.597116  0.193484  0.223641  1
  N  N44  1  0.469829  0.373482  0.276343  1
  N  N45  1  0.306515  0.902878  0.276361  1
  N  N46  1  0.902875  0.276350  0.306494  1
  N  N47  1  0.903645  0.030165  0.306492  1
  N  N48  1  0.276348  0.469844  0.373477  1
  N  N49  1  0.597147  0.903657  0.373487  1
  N  N50  1  0.806477  0.530146  0.403620  1
  N  N51  1  0.097144  0.873488  0.403663  1
  N  N52  1  0.096352  0.626511  0.402843  1
  N  N53  1  0.806494  0.776340  0.402870  1
  N  N54  1  0.596379  0.193523  0.469868  1
  N  N55  1  0.373478  0.276336  0.469838  1
  N  N56  1  0.626523  0.723661  0.530180  1
  N  N57  1  0.403649  0.806506  0.530166  1
  N  N58  1  0.193516  0.223652  0.597136  1
  N  N59  1  0.903649  0.373504  0.597165  1
  N  N60  1  0.902854  0.126526  0.596360  1
  N  N61  1  0.193525  0.469861  0.596383  1
  N  N62  1  0.402864  0.096339  0.626518  1
  N  N63  1  0.723661  0.530177  0.626534  1
  N  N64  1  0.097134  0.723655  0.693482  1
  N  N65  1  0.096349  0.969827  0.693501  1
  N  N66  1  0.693465  0.097124  0.723644  1
  N  N67  1  0.530184  0.626525  0.723667  1
  N  N68  1  0.402876  0.806525  0.776362  1
  N  N69  1  0.873470  0.969814  0.776331  1
  N  N70  1  0.530175  0.403652  0.806503  1
  N  N71  1  0.776350  0.402874  0.806534  1
  N  N72  1  0.403669  0.097134  0.873486  1
  N  N73  1  0.969838  0.776329  0.873461  1
  N  N74  1  0.030129  0.306471  0.903618  1
  N  N75  1  0.373479  0.597138  0.903646  1
  N  N76  1  0.276344  0.306479  0.902861  1
  N  N77  1  0.126507  0.596339  0.902836  1
  N  N78  1  0.693508  0.096368  0.969843  1
  N  N79  1  0.776339  0.873479  0.969835  1
