# generated using pymatgen
data_PrSb5(ClO4)2
_symmetry_space_group_name_H-M   'P 1'
_cell_length_a   5.70106400
_cell_length_b   5.67611877
_cell_length_c   9.05505000
_cell_angle_alpha   87.66578121
_cell_angle_beta   90.00000000
_cell_angle_gamma   90.00000000
_symmetry_Int_Tables_number   1
_chemical_formula_structural   PrSb5(ClO4)2
_chemical_formula_sum   'Pr1 Sb5 Cl2 O8'
_cell_volume   292.77752638
_cell_formula_units_Z   1
loop_
 _symmetry_equiv_pos_site_id
 _symmetry_equiv_pos_as_xyz
  1  'x, y, z'
loop_
 _atom_site_type_symbol
 _atom_site_label
 _atom_site_symmetry_multiplicity
 _atom_site_fract_x
 _atom_site_fract_y
 _atom_site_fract_z
 _atom_site_occupancy
  Pr  Pr0  1  0.760074  0.750000  0.500000  1
  Sb  Sb1  1  0.692478  0.297971  0.793845  1
  Sb  Sb2  1  0.166167  0.250000  0.500000  1
  Sb  Sb3  1  0.692478  0.202029  0.206155  1
  Sb  Sb4  1  0.306753  0.692562  0.207957  1
  Sb  Sb5  1  0.306753  0.807438  0.792043  1
  Cl  Cl6  1  0.757379  0.750000  0.000000  1
  Cl  Cl7  1  0.258756  0.250000  0.000000  1
  O  O8  1  0.083624  0.915299  0.634076  1
  O  O9  1  0.083624  0.584701  0.365924  1
  O  O10  1  0.915034  0.102404  0.371101  1
  O  O11  1  0.915034  0.397596  0.628899  1
  O  O12  1  0.479797  0.543671  0.684051  1
  O  O13  1  0.551128  0.476569  0.312735  1
  O  O14  1  0.479797  0.956329  0.315949  1
  O  O15  1  0.551128  0.023431  0.687265  1
