# generated using pymatgen
data_Li3Ca5Y3Si12Pd
_symmetry_space_group_name_H-M   'P 1'
_cell_length_a   4.27276100
_cell_length_b   10.49874827
_cell_length_c   11.01436362
_cell_angle_alpha   89.73420444
_cell_angle_beta   90.00000000
_cell_angle_gamma   90.00000000
_symmetry_Int_Tables_number   1
_chemical_formula_structural   Li3Ca5Y3Si12Pd
_chemical_formula_sum   'Li3 Ca5 Y3 Si12 Pd1'
_cell_volume   494.08407970
_cell_formula_units_Z   1
loop_
 _symmetry_equiv_pos_site_id
 _symmetry_equiv_pos_as_xyz
  1  'x, y, z'
loop_
 _atom_site_type_symbol
 _atom_site_label
 _atom_site_symmetry_multiplicity
 _atom_site_fract_x
 _atom_site_fract_y
 _atom_site_fract_z
 _atom_site_occupancy
  Li  Li0  1  0.500000  0.138413  0.714631  1
  Li  Li1  1  0.000000  0.360770  0.217318  1
  Li  Li2  1  0.000000  0.639722  0.784150  1
  Ca  Ca3  1  0.000000  0.946504  0.850554  1
  Ca  Ca4  1  0.500000  0.825170  0.574032  1
  Ca  Ca5  1  0.500000  0.176520  0.421470  1
  Ca  Ca6  1  0.000000  0.320755  0.923771  1
  Ca  Ca7  1  0.000000  0.677172  0.079757  1
  Y  Y8  1  0.500000  0.558237  0.347263  1
  Y  Y9  1  0.500000  0.449814  0.646750  1
  Y  Y10  1  0.000000  0.049417  0.151331  1
  Si  Si11  1  0.500000  0.890140  0.057208  1
  Si  Si12  1  0.500000  0.105118  0.962768  1
  Si  Si13  1  0.000000  0.396616  0.454396  1
  Si  Si14  1  0.000000  0.609710  0.539803  1
  Si  Si15  1  0.000000  0.969024  0.393500  1
  Si  Si16  1  0.000000  0.033604  0.597073  1
  Si  Si17  1  0.500000  0.463442  0.100892  1
  Si  Si18  1  0.500000  0.532662  0.899160  1
  Si  Si19  1  0.000000  0.258967  0.632664  1
  Si  Si20  1  0.000000  0.745198  0.353592  1
  Si  Si21  1  0.500000  0.754340  0.874199  1
  Si  Si22  1  0.500000  0.241111  0.136455  1
  Pd  Pd23  1  0.500000  0.857573  0.287262  1
