# generated using pymatgen
data_Tb14Ho2MgIn3Ru4
_symmetry_space_group_name_H-M   'P 1'
_cell_length_a   9.68030109
_cell_length_b   9.68335819
_cell_length_c   9.72653300
_cell_angle_alpha   59.85239534
_cell_angle_beta   59.84188574
_cell_angle_gamma   59.76414181
_symmetry_Int_Tables_number   1
_chemical_formula_structural   Tb14Ho2MgIn3Ru4
_chemical_formula_sum   'Tb14 Ho2 Mg1 In3 Ru4'
_cell_volume   642.05775134
_cell_formula_units_Z   1
loop_
 _symmetry_equiv_pos_site_id
 _symmetry_equiv_pos_as_xyz
  1  'x, y, z'
loop_
 _atom_site_type_symbol
 _atom_site_label
 _atom_site_symmetry_multiplicity
 _atom_site_fract_x
 _atom_site_fract_y
 _atom_site_fract_z
 _atom_site_occupancy
  Tb  Tb0  1  0.598856  0.211143  0.595000  1
  Tb  Tb1  1  0.206628  0.598199  0.597587  1
  Tb  Tb2  1  0.057016  0.441402  0.443647  1
  Tb  Tb3  1  0.438698  0.060308  0.061044  1
  Tb  Tb4  1  0.438698  0.060308  0.439950  1
  Tb  Tb5  1  0.057016  0.441402  0.057934  1
  Tb  Tb6  1  0.440184  0.439098  0.060359  1
  Tb  Tb7  1  0.058064  0.057419  0.442259  1
  Tb  Tb8  1  0.189686  0.809229  0.809523  1
  Tb  Tb9  1  0.809317  0.190442  0.191117  1
  Tb  Tb10  1  0.809317  0.190442  0.809125  1
  Tb  Tb11  1  0.189686  0.809229  0.191562  1
  Tb  Tb12  1  0.808549  0.809345  0.191054  1
  Tb  Tb13  1  0.191114  0.190533  0.809177  1
  Ho  Ho14  1  0.597319  0.596523  0.595563  1
  Ho  Ho15  1  0.597319  0.596523  0.210596  1
  Mg  Mg16  1  0.520933  0.825205  0.826931  1
  In  In17  1  0.830580  0.832341  0.833347  1
  In  In18  1  0.830580  0.832341  0.503730  1
  In  In19  1  0.830477  0.502778  0.833371  1
  Ru  Ru20  1  0.388621  0.390996  0.387133  1
  Ru  Ru21  1  0.388621  0.390996  0.833248  1
  Ru  Ru22  1  0.392069  0.830440  0.388745  1
  Ru  Ru23  1  0.830643  0.393360  0.387998  1
