# generated using pymatgen
data_Y20Cd3CoNiAu3
_symmetry_space_group_name_H-M   'P 1'
_cell_length_a   9.63804601
_cell_length_b   9.63807179
_cell_length_c   9.59677300
_cell_angle_alpha   90.00000000
_cell_angle_beta   90.00000000
_cell_angle_gamma   119.99712285
_symmetry_Int_Tables_number   1
_chemical_formula_structural   Y20Cd3CoNiAu3
_chemical_formula_sum   'Y20 Cd3 Co1 Ni1 Au3'
_cell_volume   772.05385553
_cell_formula_units_Z   1
loop_
 _symmetry_equiv_pos_site_id
 _symmetry_equiv_pos_as_xyz
  1  'x, y, z'
loop_
 _atom_site_type_symbol
 _atom_site_label
 _atom_site_symmetry_multiplicity
 _atom_site_fract_x
 _atom_site_fract_y
 _atom_site_fract_z
 _atom_site_occupancy
  Y  Y0  1  0.000018  0.999991  0.459309  1
  Y  Y1  1  0.000018  0.999991  0.040691  1
  Y  Y2  1  0.540965  0.458973  0.250000  1
  Y  Y3  1  0.541017  0.081997  0.250000  1
  Y  Y4  1  0.917995  0.459042  0.250000  1
  Y  Y5  1  0.456778  0.543188  0.750000  1
  Y  Y6  1  0.456831  0.913620  0.750000  1
  Y  Y7  1  0.086374  0.543198  0.750000  1
  Y  Y8  1  0.211405  0.788629  0.435488  1
  Y  Y9  1  0.211353  0.422759  0.435472  1
  Y  Y10  1  0.577244  0.788607  0.435472  1
  Y  Y11  1  0.791084  0.208921  0.560741  1
  Y  Y12  1  0.791063  0.582158  0.560753  1
  Y  Y13  1  0.417844  0.208929  0.560752  1
  Y  Y14  1  0.791084  0.208921  0.939259  1
  Y  Y15  1  0.791063  0.582158  0.939247  1
  Y  Y16  1  0.417844  0.208929  0.939248  1
  Y  Y17  1  0.211405  0.788629  0.064512  1
  Y  Y18  1  0.211353  0.422759  0.064528  1
  Y  Y19  1  0.577244  0.788607  0.064528  1
  Cd  Cd20  1  0.109876  0.890139  0.750000  1
  Cd  Cd21  1  0.109860  0.219713  0.750000  1
  Cd  Cd22  1  0.780290  0.890127  0.750000  1
  Co  Co23  1  0.333325  0.666679  0.250000  1
  Ni  Ni24  1  0.666678  0.333327  0.750000  1
  Au  Au25  1  0.869508  0.130535  0.250000  1
  Au  Au26  1  0.869439  0.738957  0.250000  1
  Au  Au27  1  0.261043  0.130518  0.250000  1
