# generated using pymatgen
data_Ho8Hg3Os
_symmetry_space_group_name_H-M   'P 1'
_cell_length_a   10.08819900
_cell_length_b   10.08819959
_cell_length_c   7.29239100
_cell_angle_alpha   90.00000000
_cell_angle_beta   90.00000000
_cell_angle_gamma   120.00000136
_symmetry_Int_Tables_number   1
_chemical_formula_structural   Ho8Hg3Os
_chemical_formula_sum   'Ho16 Hg6 Os2'
_cell_volume   642.72897440
_cell_formula_units_Z   2
loop_
 _symmetry_equiv_pos_site_id
 _symmetry_equiv_pos_as_xyz
  1  'x, y, z'
loop_
 _atom_site_type_symbol
 _atom_site_label
 _atom_site_symmetry_multiplicity
 _atom_site_fract_x
 _atom_site_fract_y
 _atom_site_fract_z
 _atom_site_occupancy
  Ho  Ho0  1  0.538550  0.077100  0.511036  1
  Ho  Ho1  1  0.922900  0.461450  0.511036  1
  Ho  Ho2  1  0.538550  0.461450  0.511036  1
  Ho  Ho3  1  0.461450  0.922900  0.011036  1
  Ho  Ho4  1  0.077100  0.538550  0.011036  1
  Ho  Ho5  1  0.461450  0.538550  0.011036  1
  Ho  Ho6  1  0.174111  0.348221  0.699991  1
  Ho  Ho7  1  0.651779  0.825889  0.699991  1
  Ho  Ho8  1  0.174111  0.825889  0.699991  1
  Ho  Ho9  1  0.825889  0.651779  0.199991  1
  Ho  Ho10  1  0.348221  0.174111  0.199991  1
  Ho  Ho11  1  0.825889  0.174111  0.199991  1
  Ho  Ho12  1  0.666667  0.333333  0.895694  1
  Ho  Ho13  1  0.333333  0.666667  0.395694  1
  Ho  Ho14  1  0.000000  0.000000  0.479534  1
  Ho  Ho15  1  0.000000  0.000000  0.979534  1
  Hg  Hg16  1  0.832841  0.665682  0.765180  1
  Hg  Hg17  1  0.334318  0.167159  0.765180  1
  Hg  Hg18  1  0.832841  0.167159  0.765180  1
  Hg  Hg19  1  0.167159  0.334318  0.265180  1
  Hg  Hg20  1  0.665682  0.832841  0.265180  1
  Hg  Hg21  1  0.167159  0.832841  0.265180  1
  Os  Os22  1  0.666667  0.333333  0.275175  1
  Os  Os23  1  0.333333  0.666667  0.775175  1
