# generated using pymatgen
data_TbCe2Y(ReB6)2
_symmetry_space_group_name_H-M   'P 1'
_cell_length_a   3.73575900
_cell_length_b   9.23148807
_cell_length_c   11.60951908
_cell_angle_alpha   89.98617783
_cell_angle_beta   90.00000000
_cell_angle_gamma   90.00000000
_symmetry_Int_Tables_number   1
_chemical_formula_structural   TbCe2Y(ReB6)2
_chemical_formula_sum   'Tb2 Ce4 Y2 Re4 B24'
_cell_volume   400.37299906
_cell_formula_units_Z   2
loop_
 _symmetry_equiv_pos_site_id
 _symmetry_equiv_pos_as_xyz
  1  'x, y, z'
loop_
 _atom_site_type_symbol
 _atom_site_label
 _atom_site_symmetry_multiplicity
 _atom_site_fract_x
 _atom_site_fract_y
 _atom_site_fract_z
 _atom_site_occupancy
  Tb  Tb0  1  0.000000  0.444281  0.127174  1
  Tb  Tb1  1  0.000000  0.555719  0.872826  1
  Ce  Ce2  1  0.000000  0.823368  0.085951  1
  Ce  Ce3  1  0.000000  0.176632  0.914049  1
  Ce  Ce4  1  0.000000  0.323273  0.414059  1
  Ce  Ce5  1  0.000000  0.676727  0.585941  1
  Y  Y6  1  0.000000  0.944378  0.373100  1
  Y  Y7  1  0.000000  0.055622  0.626900  1
  Re  Re8  1  0.000000  0.138028  0.178798  1
  Re  Re9  1  0.000000  0.861972  0.821202  1
  Re  Re10  1  0.000000  0.638467  0.321467  1
  Re  Re11  1  0.000000  0.361533  0.678533  1
  B  B12  1  0.500000  0.054175  0.068419  1
  B  B13  1  0.500000  0.945825  0.931582  1
  B  B14  1  0.500000  0.554364  0.431699  1
  B  B15  1  0.500000  0.445636  0.568300  1
  B  B16  1  0.500000  0.247574  0.081316  1
  B  B17  1  0.500000  0.752426  0.918684  1
  B  B18  1  0.500000  0.748051  0.418814  1
  B  B19  1  0.500000  0.251949  0.581186  1
  B  B20  1  0.500000  0.290866  0.233658  1
  B  B21  1  0.500000  0.709134  0.766342  1
  B  B22  1  0.500000  0.791398  0.266401  1
  B  B23  1  0.500000  0.208602  0.733599  1
  B  B24  1  0.500000  0.131850  0.313709  1
  B  B25  1  0.500000  0.868150  0.686291  1
  B  B26  1  0.500000  0.632280  0.186601  1
  B  B27  1  0.500000  0.367720  0.813399  1
  B  B28  1  0.500000  0.484274  0.287328  1
  B  B29  1  0.500000  0.515726  0.712672  1
  B  B30  1  0.500000  0.983915  0.212899  1
  B  B31  1  0.500000  0.016085  0.787101  1
  B  B32  1  0.500000  0.108039  0.470069  1
  B  B33  1  0.500000  0.891961  0.529931  1
  B  B34  1  0.500000  0.608975  0.030178  1
  B  B35  1  0.500000  0.391025  0.969822  1
