# generated using pymatgen
data_Y4LuIrPt2
_symmetry_space_group_name_H-M   'P 1'
_cell_length_a   11.05064200
_cell_length_b   11.05064200
_cell_length_c   6.33321300
_cell_angle_alpha   90.00000000
_cell_angle_beta   90.00000000
_cell_angle_gamma   90.00000000
_symmetry_Int_Tables_number   1
_chemical_formula_structural   Y4LuIrPt2
_chemical_formula_sum   'Y16 Lu4 Ir4 Pt8'
_cell_volume   773.39099984
_cell_formula_units_Z   4
loop_
 _symmetry_equiv_pos_site_id
 _symmetry_equiv_pos_as_xyz
  1  'x, y, z'
loop_
 _atom_site_type_symbol
 _atom_site_label
 _atom_site_symmetry_multiplicity
 _atom_site_fract_x
 _atom_site_fract_y
 _atom_site_fract_z
 _atom_site_occupancy
  Y  Y0  1  0.292875  0.086481  0.376851  1
  Y  Y1  1  0.292875  0.913519  0.876851  1
  Y  Y2  1  0.707125  0.086481  0.876851  1
  Y  Y3  1  0.707125  0.913519  0.376851  1
  Y  Y4  1  0.586481  0.792875  0.876851  1
  Y  Y5  1  0.586481  0.207125  0.376851  1
  Y  Y6  1  0.413519  0.792875  0.376851  1
  Y  Y7  1  0.413519  0.207125  0.876851  1
  Y  Y8  1  0.207125  0.413519  0.623149  1
  Y  Y9  1  0.207125  0.586481  0.123149  1
  Y  Y10  1  0.792875  0.413519  0.123149  1
  Y  Y11  1  0.792875  0.586481  0.623149  1
  Y  Y12  1  0.913519  0.707125  0.123149  1
  Y  Y13  1  0.913519  0.292875  0.623149  1
  Y  Y14  1  0.086481  0.707125  0.623149  1
  Y  Y15  1  0.086481  0.292875  0.123149  1
  Lu  Lu16  1  0.000000  0.000000  0.500000  1
  Lu  Lu17  1  0.000000  0.000000  0.000000  1
  Lu  Lu18  1  0.500000  0.500000  0.000000  1
  Lu  Lu19  1  0.500000  0.500000  0.500000  1
  Ir  Ir20  1  0.500000  0.000000  0.123613  1
  Ir  Ir21  1  0.500000  0.000000  0.623613  1
  Ir  Ir22  1  0.000000  0.500000  0.876387  1
  Ir  Ir23  1  0.000000  0.500000  0.376387  1
  Pt  Pt24  1  0.850155  0.149845  0.250000  1
  Pt  Pt25  1  0.850155  0.850155  0.750000  1
  Pt  Pt26  1  0.149845  0.149845  0.750000  1
  Pt  Pt27  1  0.149845  0.850155  0.250000  1
  Pt  Pt28  1  0.649845  0.350155  0.750000  1
  Pt  Pt29  1  0.649845  0.649845  0.250000  1
  Pt  Pt30  1  0.350155  0.350155  0.250000  1
  Pt  Pt31  1  0.350155  0.649845  0.750000  1
