# generated using pymatgen
data_Tb3BeCo9GeB4
_symmetry_space_group_name_H-M   'P 1'
_cell_length_a   5.09697700
_cell_length_b   5.09720935
_cell_length_c   9.44151201
_cell_angle_alpha   89.99525645
_cell_angle_beta   89.99888292
_cell_angle_gamma   119.99464419
_symmetry_Int_Tables_number   1
_chemical_formula_structural   Tb3BeCo9GeB4
_chemical_formula_sum   'Tb3 Be1 Co9 Ge1 B4'
_cell_volume   212.44218521
_cell_formula_units_Z   1
loop_
 _symmetry_equiv_pos_site_id
 _symmetry_equiv_pos_as_xyz
  1  'x, y, z'
loop_
 _atom_site_type_symbol
 _atom_site_label
 _atom_site_symmetry_multiplicity
 _atom_site_fract_x
 _atom_site_fract_y
 _atom_site_fract_z
 _atom_site_occupancy
  Tb  Tb0  1  0.000038  0.000092  0.000000  1
  Tb  Tb1  1  0.999986  0.999977  0.339324  1
  Tb  Tb2  1  0.999979  0.999964  0.660640  1
  Be  Be3  1  0.666811  0.333455  0.000111  1
  Co  Co4  1  0.499462  0.998960  0.499968  1
  Co  Co5  1  0.499448  0.500458  0.499961  1
  Co  Co6  1  0.000964  0.500453  0.499956  1
  Co  Co7  1  0.501819  0.003630  0.198846  1
  Co  Co8  1  0.501790  0.498202  0.198851  1
  Co  Co9  1  0.996370  0.498175  0.198886  1
  Co  Co10  1  0.501848  0.003653  0.801165  1
  Co  Co11  1  0.501825  0.498206  0.801181  1
  Co  Co12  1  0.996357  0.498173  0.801150  1
  Ge  Ge13  1  0.333268  0.666618  0.999999  1
  B  B14  1  0.333305  0.666685  0.345248  1
  B  B15  1  0.666661  0.333312  0.347089  1
  B  B16  1  0.666673  0.333322  0.652917  1
  B  B17  1  0.333296  0.666664  0.654710  1
