# generated using pymatgen
data_Zr9In14Co3Ru4
_symmetry_space_group_name_H-M   'P 1'
_cell_length_a   9.57294689
_cell_length_b   9.56440354
_cell_length_c   9.57286200
_cell_angle_alpha   59.97097599
_cell_angle_beta   60.00133238
_cell_angle_gamma   59.97085454
_symmetry_Int_Tables_number   1
_chemical_formula_structural   Zr9In14Co3Ru4
_chemical_formula_sum   'Zr9 In14 Co3 Ru4'
_cell_volume   619.50333388
_cell_formula_units_Z   1
loop_
 _symmetry_equiv_pos_site_id
 _symmetry_equiv_pos_as_xyz
  1  'x, y, z'
loop_
 _atom_site_type_symbol
 _atom_site_label
 _atom_site_symmetry_multiplicity
 _atom_site_fract_x
 _atom_site_fract_y
 _atom_site_fract_z
 _atom_site_occupancy
  Zr  Zr0  1  0.122872  0.631382  0.122874  1
  Zr  Zr1  1  0.366332  0.879336  0.877167  1
  Zr  Zr2  1  0.877173  0.879322  0.877175  1
  Zr  Zr3  1  0.635533  0.123369  0.120547  1
  Zr  Zr4  1  0.491068  0.526813  0.491061  1
  Zr  Zr5  1  0.877171  0.879320  0.366338  1
  Zr  Zr6  1  0.120552  0.123376  0.120533  1
  Zr  Zr7  1  0.879120  0.362678  0.879101  1
  Zr  Zr8  1  0.120551  0.123374  0.635540  1
  In  In9  1  0.499539  0.849864  0.151054  1
  In  In10  1  0.499543  0.849859  0.499543  1
  In  In11  1  0.500172  0.162178  0.500182  1
  In  In12  1  0.507180  0.493393  0.842352  1
  In  In13  1  0.157051  0.493425  0.507160  1
  In  In14  1  0.837457  0.162193  0.500199  1
  In  In15  1  0.151054  0.849866  0.499540  1
  In  In16  1  0.500195  0.162185  0.837466  1
  In  In17  1  0.157062  0.493422  0.842359  1
  In  In18  1  0.507162  0.493421  0.157056  1
  In  In19  1  0.842352  0.493394  0.507180  1
  In  In20  1  0.842355  0.493417  0.157072  1
  In  In21  1  0.251066  0.246771  0.251069  1
  In  In22  1  0.750762  0.747704  0.750767  1
  Co  Co23  1  0.219436  0.216753  0.781909  1
  Co  Co24  1  0.781879  0.216783  0.781874  1
  Co  Co25  1  0.781906  0.216759  0.219440  1
  Ru  Ru26  1  0.776718  0.774913  0.224187  1
  Ru  Ru27  1  0.998359  0.004906  0.998355  1
  Ru  Ru28  1  0.224186  0.774915  0.224184  1
  Ru  Ru29  1  0.224192  0.774912  0.776715  1
