# generated using pymatgen
data_Pr6Sn(P3Rh5)4
_symmetry_space_group_name_H-M   'P 1'
_cell_length_a   13.67713700
_cell_length_b   13.67713530
_cell_length_c   3.95714200
_cell_angle_alpha   90.00000000
_cell_angle_beta   90.00000000
_cell_angle_gamma   119.99999685
_symmetry_Int_Tables_number   1
_chemical_formula_structural   Pr6Sn(P3Rh5)4
_chemical_formula_sum   'Pr6 Sn1 P12 Rh20'
_cell_volume   641.06581833
_cell_formula_units_Z   1
loop_
 _symmetry_equiv_pos_site_id
 _symmetry_equiv_pos_as_xyz
  1  'x, y, z'
loop_
 _atom_site_type_symbol
 _atom_site_label
 _atom_site_symmetry_multiplicity
 _atom_site_fract_x
 _atom_site_fract_y
 _atom_site_fract_z
 _atom_site_occupancy
  Pr  Pr0  1  0.529975  0.717391  0.250349  1
  Pr  Pr1  1  0.282609  0.812584  0.250349  1
  Pr  Pr2  1  0.187416  0.470025  0.250349  1
  Pr  Pr3  1  0.470025  0.282609  0.749651  1
  Pr  Pr4  1  0.717391  0.187416  0.749651  1
  Pr  Pr5  1  0.812584  0.529975  0.749651  1
  Sn  Sn6  1  0.000000  0.000000  0.000000  1
  P  P7  1  0.522796  0.134773  0.249795  1
  P  P8  1  0.865227  0.388023  0.249795  1
  P  P9  1  0.611977  0.477204  0.249795  1
  P  P10  1  0.949506  0.719537  0.247587  1
  P  P11  1  0.280463  0.229970  0.247587  1
  P  P12  1  0.770030  0.050494  0.247587  1
  P  P13  1  0.388023  0.522796  0.750205  1
  P  P14  1  0.477204  0.865227  0.750205  1
  P  P15  1  0.134773  0.611977  0.750205  1
  P  P16  1  0.719537  0.770030  0.752413  1
  P  P17  1  0.229970  0.949506  0.752413  1
  P  P18  1  0.050494  0.280463  0.752413  1
  Rh  Rh19  1  0.333333  0.666667  0.752492  1
  Rh  Rh20  1  0.922701  0.253180  0.245857  1
  Rh  Rh21  1  0.746820  0.669521  0.245857  1
  Rh  Rh22  1  0.330479  0.077299  0.245857  1
  Rh  Rh23  1  0.443195  0.026829  0.749371  1
  Rh  Rh24  1  0.973171  0.416369  0.749371  1
  Rh  Rh25  1  0.583631  0.556805  0.749371  1
  Rh  Rh26  1  0.666667  0.333333  0.247508  1
  Rh  Rh27  1  0.098576  0.203944  0.262780  1
  Rh  Rh28  1  0.796056  0.894631  0.262780  1
  Rh  Rh29  1  0.105369  0.901424  0.262780  1
  Rh  Rh30  1  0.026829  0.583631  0.250629  1
  Rh  Rh31  1  0.416369  0.443195  0.250629  1
  Rh  Rh32  1  0.556805  0.973171  0.250629  1
  Rh  Rh33  1  0.669521  0.922701  0.754143  1
  Rh  Rh34  1  0.077299  0.746820  0.754143  1
  Rh  Rh35  1  0.253180  0.330479  0.754143  1
  Rh  Rh36  1  0.901424  0.796056  0.737220  1
  Rh  Rh37  1  0.203944  0.105369  0.737220  1
  Rh  Rh38  1  0.894631  0.098576  0.737220  1
