# generated using pymatgen
data_PrTm4Bi3
_symmetry_space_group_name_H-M   'P 1'
_cell_length_a   8.30771900
_cell_length_b   9.47799000
_cell_length_c   12.11787800
_cell_angle_alpha   90.00000000
_cell_angle_beta   90.00000000
_cell_angle_gamma   90.00000000
_symmetry_Int_Tables_number   1
_chemical_formula_structural   PrTm4Bi3
_chemical_formula_sum   'Pr4 Tm16 Bi12'
_cell_volume   954.16750128
_cell_formula_units_Z   4
loop_
 _symmetry_equiv_pos_site_id
 _symmetry_equiv_pos_as_xyz
  1  'x, y, z'
loop_
 _atom_site_type_symbol
 _atom_site_label
 _atom_site_symmetry_multiplicity
 _atom_site_fract_x
 _atom_site_fract_y
 _atom_site_fract_z
 _atom_site_occupancy
  Pr  Pr0  1  0.331139  0.750000  0.278080  1
  Pr  Pr1  1  0.168861  0.750000  0.778080  1
  Pr  Pr2  1  0.668861  0.250000  0.721920  1
  Pr  Pr3  1  0.831139  0.250000  0.221920  1
  Tm  Tm4  1  0.686559  0.934452  0.437327  1
  Tm  Tm5  1  0.813441  0.565548  0.937327  1
  Tm  Tm6  1  0.313441  0.434452  0.562673  1
  Tm  Tm7  1  0.186559  0.065548  0.062673  1
  Tm  Tm8  1  0.313441  0.065548  0.562673  1
  Tm  Tm9  1  0.186559  0.434452  0.062673  1
  Tm  Tm10  1  0.686559  0.565548  0.437327  1
  Tm  Tm11  1  0.813441  0.934452  0.937327  1
  Tm  Tm12  1  0.020730  0.750000  0.496275  1
  Tm  Tm13  1  0.479270  0.750000  0.996275  1
  Tm  Tm14  1  0.979270  0.250000  0.503725  1
  Tm  Tm15  1  0.520730  0.250000  0.003725  1
  Tm  Tm16  1  0.829800  0.750000  0.212921  1
  Tm  Tm17  1  0.670200  0.750000  0.712921  1
  Tm  Tm18  1  0.170200  0.250000  0.787079  1
  Tm  Tm19  1  0.329800  0.250000  0.287079  1
  Bi  Bi20  1  0.099794  0.750000  0.040070  1
  Bi  Bi21  1  0.400206  0.750000  0.540070  1
  Bi  Bi22  1  0.900206  0.250000  0.959930  1
  Bi  Bi23  1  0.599794  0.250000  0.459930  1
  Bi  Bi24  1  0.563673  0.993756  0.170685  1
  Bi  Bi25  1  0.936327  0.506244  0.670686  1
  Bi  Bi26  1  0.436327  0.493756  0.829314  1
  Bi  Bi27  1  0.063673  0.006244  0.329315  1
  Bi  Bi28  1  0.436327  0.006244  0.829314  1
  Bi  Bi29  1  0.063673  0.493756  0.329315  1
  Bi  Bi30  1  0.563673  0.506244  0.170685  1
  Bi  Bi31  1  0.936327  0.993756  0.670686  1
