# generated using pymatgen
data_FeAs(SeO3)4
_symmetry_space_group_name_H-M   'P 1'
_cell_length_a   8.00782800
_cell_length_b   8.10597108
_cell_length_c   8.02325188
_cell_angle_alpha   89.37596751
_cell_angle_beta   90.00000000
_cell_angle_gamma   90.00000000
_symmetry_Int_Tables_number   1
_chemical_formula_structural   FeAs(SeO3)4
_chemical_formula_sum   'Fe2 As2 Se8 O24'
_cell_volume   520.76819658
_cell_formula_units_Z   2
loop_
 _symmetry_equiv_pos_site_id
 _symmetry_equiv_pos_as_xyz
  1  'x, y, z'
loop_
 _atom_site_type_symbol
 _atom_site_label
 _atom_site_symmetry_multiplicity
 _atom_site_fract_x
 _atom_site_fract_y
 _atom_site_fract_z
 _atom_site_occupancy
  Fe  Fe0  1  0.000000  0.500000  0.000000  1
  Fe  Fe1  1  0.500000  0.500000  0.500000  1
  As  As2  1  0.000000  0.000000  0.500000  1
  As  As3  1  0.500000  0.000000  0.000000  1
  Se  Se4  1  0.336065  0.675100  0.165115  1
  Se  Se5  1  0.836065  0.324900  0.334885  1
  Se  Se6  1  0.679694  0.836388  0.679071  1
  Se  Se7  1  0.179694  0.163612  0.820929  1
  Se  Se8  1  0.663935  0.324900  0.834885  1
  Se  Se9  1  0.163935  0.675100  0.665115  1
  Se  Se10  1  0.320306  0.163612  0.320929  1
  Se  Se11  1  0.820306  0.836388  0.179071  1
  O  O12  1  0.244826  0.547209  0.024679  1
  O  O13  1  0.744826  0.452791  0.475321  1
  O  O14  1  0.768377  0.987180  0.540000  1
  O  O15  1  0.268377  0.012820  0.960000  1
  O  O16  1  0.539097  0.982594  0.768722  1
  O  O17  1  0.479045  0.546841  0.255099  1
  O  O18  1  0.979045  0.453159  0.244901  1
  O  O19  1  0.039097  0.017406  0.731278  1
  O  O20  1  0.984807  0.226409  0.479860  1
  O  O21  1  0.548146  0.747323  0.543923  1
  O  O22  1  0.484807  0.773591  0.020140  1
  O  O23  1  0.048146  0.252677  0.956077  1
  O  O24  1  0.755174  0.452791  0.975321  1
  O  O25  1  0.255174  0.547209  0.524679  1
  O  O26  1  0.231623  0.012820  0.460000  1
  O  O27  1  0.731623  0.987180  0.040000  1
  O  O28  1  0.460903  0.017406  0.231278  1
  O  O29  1  0.520955  0.453159  0.744901  1
  O  O30  1  0.020955  0.546841  0.755099  1
  O  O31  1  0.960903  0.982594  0.268722  1
  O  O32  1  0.015193  0.773591  0.520140  1
  O  O33  1  0.451854  0.252677  0.456077  1
  O  O34  1  0.515193  0.226409  0.979860  1
  O  O35  1  0.951854  0.747323  0.043923  1
