# generated using pymatgen
data_Tb11In9(AgPt)2
_symmetry_space_group_name_H-M   'P 1'
_cell_length_a   13.31369375
_cell_length_b   13.36809809
_cell_length_c   3.67606000
_cell_angle_alpha   90.00000000
_cell_angle_beta   90.00000000
_cell_angle_gamma   110.98692500
_symmetry_Int_Tables_number   1
_chemical_formula_structural   Tb11In9(AgPt)2
_chemical_formula_sum   'Tb11 In9 Ag2 Pt2'
_cell_volume   610.85839410
_cell_formula_units_Z   1
loop_
 _symmetry_equiv_pos_site_id
 _symmetry_equiv_pos_as_xyz
  1  'x, y, z'
loop_
 _atom_site_type_symbol
 _atom_site_label
 _atom_site_symmetry_multiplicity
 _atom_site_fract_x
 _atom_site_fract_y
 _atom_site_fract_z
 _atom_site_occupancy
  Tb  Tb0  1  0.414935  0.063761  0.000000  1
  Tb  Tb1  1  0.585065  0.936239  0.000000  1
  Tb  Tb2  1  0.071596  0.418498  0.000000  1
  Tb  Tb3  1  0.928404  0.581502  0.000000  1
  Tb  Tb4  1  0.157183  0.840624  0.000000  1
  Tb  Tb5  1  0.842817  0.159376  0.000000  1
  Tb  Tb6  1  0.361324  0.623022  0.000000  1
  Tb  Tb7  1  0.638676  0.376978  0.000000  1
  Tb  Tb8  1  0.301824  0.311502  0.000000  1
  Tb  Tb9  1  0.698176  0.688498  0.000000  1
  Tb  Tb10  1  0.000000  0.000000  0.000000  1
  In  In11  1  0.367382  0.841122  0.500000  1
  In  In12  1  0.632618  0.158878  0.500000  1
  In  In13  1  0.846573  0.365182  0.500000  1
  In  In14  1  0.153427  0.634818  0.500000  1
  In  In15  1  0.217376  0.071091  0.500000  1
  In  In16  1  0.782624  0.928909  0.500000  1
  In  In17  1  0.069613  0.215827  0.500000  1
  In  In18  1  0.930387  0.784173  0.500000  1
  In  In19  1  0.500000  0.500000  0.500000  1
  Ag  Ag20  1  0.452662  0.250141  0.500000  1
  Ag  Ag21  1  0.547338  0.749859  0.500000  1
  Pt  Pt22  1  0.247516  0.452102  0.500000  1
  Pt  Pt23  1  0.752484  0.547898  0.500000  1
