# generated using pymatgen
data_Tb2TaFe5Ge4
_symmetry_space_group_name_H-M   'P 1'
_cell_length_a   4.08787400
_cell_length_b   4.08787473
_cell_length_c   13.37893000
_cell_angle_alpha   90.00000000
_cell_angle_beta   90.00000000
_cell_angle_gamma   120.00001026
_symmetry_Int_Tables_number   1
_chemical_formula_structural   Tb2TaFe5Ge4
_chemical_formula_sum   'Tb2 Ta1 Fe5 Ge4'
_cell_volume   193.61858789
_cell_formula_units_Z   1
loop_
 _symmetry_equiv_pos_site_id
 _symmetry_equiv_pos_as_xyz
  1  'x, y, z'
loop_
 _atom_site_type_symbol
 _atom_site_label
 _atom_site_symmetry_multiplicity
 _atom_site_fract_x
 _atom_site_fract_y
 _atom_site_fract_z
 _atom_site_occupancy
  Tb  Tb0  1  0.000000  0.000000  0.253699  1
  Tb  Tb1  1  0.000000  0.000000  0.746301  1
  Ta  Ta2  1  0.000000  0.000000  0.000000  1
  Fe  Fe3  1  0.666667  0.333333  0.065477  1
  Fe  Fe4  1  0.666667  0.333333  0.432023  1
  Fe  Fe5  1  0.000000  0.000000  0.500000  1
  Fe  Fe6  1  0.333333  0.666667  0.567978  1
  Fe  Fe7  1  0.333333  0.666667  0.934523  1
  Ge  Ge8  1  0.333333  0.666667  0.120567  1
  Ge  Ge9  1  0.333333  0.666667  0.387800  1
  Ge  Ge10  1  0.666667  0.333333  0.612201  1
  Ge  Ge11  1  0.666667  0.333333  0.879433  1
