# generated using pymatgen
data_RbPr(NbBr3)6
_symmetry_space_group_name_H-M   'P 1'
_cell_length_a   10.86107623
_cell_length_b   10.86107605
_cell_length_c   10.86107621
_cell_angle_alpha   55.33616785
_cell_angle_beta   55.33617503
_cell_angle_gamma   55.33617331
_symmetry_Int_Tables_number   1
_chemical_formula_structural   RbPr(NbBr3)6
_chemical_formula_sum   'Rb1 Pr1 Nb6 Br18'
_cell_volume   807.77872175
_cell_formula_units_Z   1
loop_
 _symmetry_equiv_pos_site_id
 _symmetry_equiv_pos_as_xyz
  1  'x, y, z'
loop_
 _atom_site_type_symbol
 _atom_site_label
 _atom_site_symmetry_multiplicity
 _atom_site_fract_x
 _atom_site_fract_y
 _atom_site_fract_z
 _atom_site_occupancy
  Rb  Rb0  1  0.221212  0.221212  0.221212  1
  Pr  Pr1  1  0.498417  0.498417  0.498417  1
  Nb  Nb2  1  0.808586  0.141483  0.918587  1
  Nb  Nb3  1  0.918587  0.808586  0.141483  1
  Nb  Nb4  1  0.141483  0.918587  0.808586  1
  Nb  Nb5  1  0.192353  0.858859  0.080804  1
  Nb  Nb6  1  0.080804  0.192353  0.858859  1
  Nb  Nb7  1  0.858859  0.080804  0.192353  1
  Br  Br8  1  0.862654  0.409322  0.729314  1
  Br  Br9  1  0.729314  0.862654  0.409322  1
  Br  Br10  1  0.409322  0.729314  0.862654  1
  Br  Br11  1  0.136878  0.590556  0.272855  1
  Br  Br12  1  0.272855  0.136878  0.590556  1
  Br  Br13  1  0.590556  0.272855  0.136878  1
  Br  Br14  1  0.530711  0.337742  0.814695  1
  Br  Br15  1  0.814695  0.530711  0.337742  1
  Br  Br16  1  0.337742  0.814695  0.530711  1
  Br  Br17  1  0.464738  0.664016  0.188242  1
  Br  Br18  1  0.188242  0.464738  0.664016  1
  Br  Br19  1  0.664016  0.188242  0.464738  1
  Br  Br20  1  0.665865  0.936774  0.072583  1
  Br  Br21  1  0.072583  0.665865  0.936774  1
  Br  Br22  1  0.936774  0.072583  0.665865  1
  Br  Br23  1  0.336308  0.062351  0.925232  1
  Br  Br24  1  0.925232  0.336308  0.062351  1
  Br  Br25  1  0.062351  0.925232  0.336308  1
