# generated using pymatgen
data_Dy9HoBi6
_symmetry_space_group_name_H-M   'P 1'
_cell_length_a   8.26519800
_cell_length_b   9.52552200
_cell_length_c   12.04952800
_cell_angle_alpha   89.99676526
_cell_angle_beta   90.00000000
_cell_angle_gamma   90.00000000
_symmetry_Int_Tables_number   1
_chemical_formula_structural   Dy9HoBi6
_chemical_formula_sum   'Dy18 Ho2 Bi12'
_cell_volume   948.66325940
_cell_formula_units_Z   2
loop_
 _symmetry_equiv_pos_site_id
 _symmetry_equiv_pos_as_xyz
  1  'x, y, z'
loop_
 _atom_site_type_symbol
 _atom_site_label
 _atom_site_symmetry_multiplicity
 _atom_site_fract_x
 _atom_site_fract_y
 _atom_site_fract_z
 _atom_site_occupancy
  Dy  Dy0  1  0.352525  0.749992  0.215173  1
  Dy  Dy1  1  0.852525  0.750008  0.284827  1
  Dy  Dy2  1  0.647395  0.249972  0.784775  1
  Dy  Dy3  1  0.147395  0.250028  0.715225  1
  Dy  Dy4  1  0.307325  0.063826  0.941549  1
  Dy  Dy5  1  0.807325  0.436174  0.558451  1
  Dy  Dy6  1  0.307287  0.436192  0.941541  1
  Dy  Dy7  1  0.807287  0.063808  0.558459  1
  Dy  Dy8  1  0.692718  0.936034  0.058434  1
  Dy  Dy9  1  0.192718  0.563966  0.441566  1
  Dy  Dy10  1  0.475226  0.249938  0.488163  1
  Dy  Dy11  1  0.975226  0.250062  0.011837  1
  Dy  Dy12  1  0.524534  0.750062  0.511805  1
  Dy  Dy13  1  0.024534  0.749938  0.988195  1
  Dy  Dy14  1  0.312600  0.250012  0.218698  1
  Dy  Dy15  1  0.812600  0.249988  0.281302  1
  Dy  Dy16  1  0.687402  0.749960  0.781321  1
  Dy  Dy17  1  0.187402  0.750040  0.718679  1
  Ho  Ho18  1  0.692691  0.564082  0.058475  1
  Ho  Ho19  1  0.192691  0.935918  0.441525  1
  Bi  Bi20  1  0.407478  0.749888  0.956827  1
  Bi  Bi21  1  0.907478  0.750112  0.543173  1
  Bi  Bi22  1  0.592767  0.250325  0.043291  1
  Bi  Bi23  1  0.092767  0.249675  0.456709  1
  Bi  Bi24  1  0.564705  0.995546  0.325251  1
  Bi  Bi25  1  0.064705  0.504454  0.174749  1
  Bi  Bi26  1  0.435275  0.495583  0.674812  1
  Bi  Bi27  1  0.935275  0.004417  0.825188  1
  Bi  Bi28  1  0.435282  0.004436  0.674746  1
  Bi  Bi29  1  0.935282  0.495564  0.825254  1
  Bi  Bi30  1  0.564791  0.504454  0.325176  1
  Bi  Bi31  1  0.064791  0.995546  0.174824  1
