# generated using pymatgen
data_Dy4C2SBr
_symmetry_space_group_name_H-M   'P 1'
_cell_length_a   3.70565200
_cell_length_b   3.70553157
_cell_length_c   13.49969500
_cell_angle_alpha   90.00000000
_cell_angle_beta   90.00000000
_cell_angle_gamma   120.00081857
_symmetry_Int_Tables_number   1
_chemical_formula_structural   Dy4C2SBr
_chemical_formula_sum   'Dy4 C2 S1 Br1'
_cell_volume   160.53367799
_cell_formula_units_Z   1
loop_
 _symmetry_equiv_pos_site_id
 _symmetry_equiv_pos_as_xyz
  1  'x, y, z'
loop_
 _atom_site_type_symbol
 _atom_site_label
 _atom_site_symmetry_multiplicity
 _atom_site_fract_x
 _atom_site_fract_y
 _atom_site_fract_z
 _atom_site_occupancy
  Dy  Dy0  1  0.333323  0.666675  0.081060  1
  Dy  Dy1  1  0.666624  0.333260  0.612397  1
  Dy  Dy2  1  0.666624  0.333260  0.887603  1
  Dy  Dy3  1  0.333323  0.666675  0.418940  1
  C  C4  1  0.999996  0.999996  0.993762  1
  C  C5  1  0.999996  0.999996  0.506238  1
  S  S6  1  0.333261  0.666533  0.750000  1
  Br  Br7  1  0.666853  0.333603  0.250000  1
