# generated using pymatgen
data_ErPa2(ZnPd)3
_symmetry_space_group_name_H-M   'P 1'
_cell_length_a   7.33667260
_cell_length_b   7.33667429
_cell_length_c   3.78583600
_cell_angle_alpha   90.00000000
_cell_angle_beta   90.00000000
_cell_angle_gamma   119.27066742
_symmetry_Int_Tables_number   1
_chemical_formula_structural   ErPa2(ZnPd)3
_chemical_formula_sum   'Er1 Pa2 Zn3 Pd3'
_cell_volume   177.76074175
_cell_formula_units_Z   1
loop_
 _symmetry_equiv_pos_site_id
 _symmetry_equiv_pos_as_xyz
  1  'x, y, z'
loop_
 _atom_site_type_symbol
 _atom_site_label
 _atom_site_symmetry_multiplicity
 _atom_site_fract_x
 _atom_site_fract_y
 _atom_site_fract_z
 _atom_site_occupancy
  Er  Er0  1  0.401481  0.401481  0.000000  1
  Pa  Pa1  1  0.593312  0.002786  0.000000  1
  Pa  Pa2  1  0.002786  0.593312  0.000000  1
  Zn  Zn3  1  0.254707  0.009696  0.500000  1
  Zn  Zn4  1  0.009696  0.254707  0.500000  1
  Zn  Zn5  1  0.736989  0.736989  0.500000  1
  Pd  Pd6  1  0.990621  0.990621  0.000000  1
  Pd  Pd7  1  0.331989  0.678418  0.500000  1
  Pd  Pd8  1  0.678418  0.331989  0.500000  1
