# generated using pymatgen
data_Pr2HgIrO7
_symmetry_space_group_name_H-M   'P 1'
_cell_length_a   6.48677988
_cell_length_b   6.95992987
_cell_length_c   7.77289500
_cell_angle_alpha   90.00000000
_cell_angle_beta   90.00000000
_cell_angle_gamma   114.55941746
_symmetry_Int_Tables_number   1
_chemical_formula_structural   Pr2HgIrO7
_chemical_formula_sum   'Pr4 Hg2 Ir2 O14'
_cell_volume   319.17892186
_cell_formula_units_Z   2
loop_
 _symmetry_equiv_pos_site_id
 _symmetry_equiv_pos_as_xyz
  1  'x, y, z'
loop_
 _atom_site_type_symbol
 _atom_site_label
 _atom_site_symmetry_multiplicity
 _atom_site_fract_x
 _atom_site_fract_y
 _atom_site_fract_z
 _atom_site_occupancy
  Pr  Pr0  1  0.000000  0.000000  0.000000  1
  Pr  Pr1  1  0.000000  0.000000  0.500000  1
  Pr  Pr2  1  0.932734  0.474931  0.750000  1
  Pr  Pr3  1  0.067266  0.525069  0.250000  1
  Hg  Hg4  1  0.478383  0.957496  0.750000  1
  Hg  Hg5  1  0.521617  0.042504  0.250000  1
  Ir  Ir6  1  0.500000  0.500000  0.000000  1
  Ir  Ir7  1  0.500000  0.500000  0.500000  1
  O  O8  1  0.588207  0.544686  0.750000  1
  O  O9  1  0.411793  0.455314  0.250000  1
  O  O10  1  0.832475  0.095796  0.750000  1
  O  O11  1  0.167525  0.904204  0.250000  1
  O  O12  1  0.127422  0.856504  0.750000  1
  O  O13  1  0.872578  0.143496  0.250000  1
  O  O14  1  0.438785  0.211161  0.982281  1
  O  O15  1  0.561215  0.788839  0.482281  1
  O  O16  1  0.166791  0.413753  0.968189  1
  O  O17  1  0.833209  0.586247  0.468189  1
  O  O18  1  0.438785  0.211161  0.517719  1
  O  O19  1  0.561215  0.788839  0.017719  1
  O  O20  1  0.833209  0.586247  0.031811  1
  O  O21  1  0.166791  0.413753  0.531811  1
