# generated using pymatgen
data_Hf3(V2Tc)2
_symmetry_space_group_name_H-M   'P 1'
_cell_length_a   5.14631862
_cell_length_b   5.17203547
_cell_length_c   12.79407934
_cell_angle_alpha   90.78392251
_cell_angle_beta   88.91577215
_cell_angle_gamma   118.96031707
_symmetry_Int_Tables_number   1
_chemical_formula_structural   Hf3(V2Tc)2
_chemical_formula_sum   'Hf6 V8 Tc4'
_cell_volume   297.89931168
_cell_formula_units_Z   2
loop_
 _symmetry_equiv_pos_site_id
 _symmetry_equiv_pos_as_xyz
  1  'x, y, z'
loop_
 _atom_site_type_symbol
 _atom_site_label
 _atom_site_symmetry_multiplicity
 _atom_site_fract_x
 _atom_site_fract_y
 _atom_site_fract_z
 _atom_site_occupancy
  Hf  Hf0  1  0.333943  0.663597  0.917158  1
  Hf  Hf1  1  0.001136  0.002531  0.249175  1
  Hf  Hf2  1  0.666693  0.333282  0.583271  1
  Hf  Hf3  1  0.333307  0.666718  0.666729  1
  Hf  Hf4  1  0.998864  0.997469  0.000824  1
  Hf  Hf5  1  0.666057  0.336403  0.332842  1
  V  V6  1  0.167279  0.335523  0.457954  1
  V  V7  1  0.832721  0.664477  0.792046  1
  V  V8  1  0.332937  0.669698  0.292424  1
  V  V9  1  0.000000  0.000000  0.625000  1
  V  V10  1  0.667063  0.330302  0.957576  1
  V  V11  1  0.000000  0.500000  0.125000  1
  V  V12  1  0.666022  0.834050  0.458287  1
  V  V13  1  0.333978  0.165950  0.791713  1
  Tc  Tc14  1  0.500000  0.500000  0.125000  1
  Tc  Tc15  1  0.166094  0.834673  0.458177  1
  Tc  Tc16  1  0.833906  0.165327  0.791823  1
  Tc  Tc17  1  0.500000  0.000000  0.125000  1
