# generated using pymatgen
data_Er6Tm14Sn7Pb9
_symmetry_space_group_name_H-M   'P 1'
_cell_length_a   8.07428121
_cell_length_b   8.11961617
_cell_length_c   15.39782605
_cell_angle_alpha   90.00901893
_cell_angle_beta   90.00040942
_cell_angle_gamma   90.02370486
_symmetry_Int_Tables_number   1
_chemical_formula_structural   Er6Tm14Sn7Pb9
_chemical_formula_sum   'Er6 Tm14 Sn7 Pb9'
_cell_volume   1009.48236581
_cell_formula_units_Z   1
loop_
 _symmetry_equiv_pos_site_id
 _symmetry_equiv_pos_as_xyz
  1  'x, y, z'
loop_
 _atom_site_type_symbol
 _atom_site_label
 _atom_site_symmetry_multiplicity
 _atom_site_fract_x
 _atom_site_fract_y
 _atom_site_fract_z
 _atom_site_occupancy
  Er  Er0  1  0.464594  0.675161  0.397176  1
  Er  Er1  1  0.959785  0.827126  0.101569  1
  Er  Er2  1  0.464595  0.675180  0.102835  1
  Er  Er3  1  0.959776  0.827111  0.398464  1
  Er  Er4  1  0.537959  0.324893  0.604148  1
  Er  Er5  1  0.038452  0.174589  0.895621  1
  Tm  Tm6  1  0.380112  0.838535  0.876561  1
  Tm  Tm7  1  0.880409  0.661034  0.623556  1
  Tm  Tm8  1  0.619768  0.161160  0.377095  1
  Tm  Tm9  1  0.119604  0.337370  0.123062  1
  Tm  Tm10  1  0.619772  0.161160  0.122879  1
  Tm  Tm11  1  0.119607  0.337364  0.376967  1
  Tm  Tm12  1  0.380099  0.838545  0.623448  1
  Tm  Tm13  1  0.880398  0.661024  0.876438  1
  Tm  Tm14  1  0.537999  0.324919  0.895792  1
  Tm  Tm15  1  0.038483  0.174552  0.604425  1
  Tm  Tm16  1  0.210889  0.503626  0.750003  1
  Tm  Tm17  1  0.710831  0.996284  0.749992  1
  Tm  Tm18  1  0.787309  0.494638  0.250012  1
  Tm  Tm19  1  0.291226  0.006765  0.249995  1
  Sn  Sn20  1  0.575617  0.623391  0.750010  1
  Sn  Sn21  1  0.075726  0.876133  0.749968  1
  Sn  Sn22  1  0.424907  0.375632  0.249988  1
  Sn  Sn23  1  0.924190  0.122575  0.250022  1
  Sn  Sn24  1  0.346467  0.149296  0.750093  1
  Sn  Sn25  1  0.846393  0.350606  0.749897  1
  Sn  Sn26  1  0.654552  0.850380  0.250002  1
  Pb  Pb27  1  0.280735  0.031839  0.040969  1
  Pb  Pb28  1  0.781598  0.467020  0.459031  1
  Pb  Pb29  1  0.718680  0.968383  0.542026  1
  Pb  Pb30  1  0.219492  0.531772  0.958838  1
  Pb  Pb31  1  0.718124  0.968340  0.958008  1
  Pb  Pb32  1  0.218960  0.531802  0.541146  1
  Pb  Pb33  1  0.280588  0.032039  0.459237  1
  Pb  Pb34  1  0.781337  0.466841  0.040724  1
  Pb  Pb35  1  0.150961  0.652912  0.250005  1
