# generated using pymatgen
data_Li3Y4Co10Ni7P12
_symmetry_space_group_name_H-M   'P 1'
_cell_length_a   3.71772100
_cell_length_b   10.34342136
_cell_length_c   11.96884697
_cell_angle_alpha   89.67972979
_cell_angle_beta   90.00000000
_cell_angle_gamma   90.00000000
_symmetry_Int_Tables_number   1
_chemical_formula_structural   Li3Y4Co10Ni7P12
_chemical_formula_sum   'Li3 Y4 Co10 Ni7 P12'
_cell_volume   460.24230987
_cell_formula_units_Z   1
loop_
 _symmetry_equiv_pos_site_id
 _symmetry_equiv_pos_as_xyz
  1  'x, y, z'
loop_
 _atom_site_type_symbol
 _atom_site_label
 _atom_site_symmetry_multiplicity
 _atom_site_fract_x
 _atom_site_fract_y
 _atom_site_fract_z
 _atom_site_occupancy
  Li  Li0  1  0.250000  0.797241  0.492716  1
  Li  Li1  1  0.750000  0.202260  0.508214  1
  Li  Li2  1  0.750000  0.298250  0.008456  1
  Y  Y3  1  0.250000  0.918873  0.205121  1
  Y  Y4  1  0.750000  0.080446  0.795645  1
  Y  Y5  1  0.750000  0.418513  0.295781  1
  Y  Y6  1  0.250000  0.580549  0.704454  1
  Co  Co7  1  0.750000  0.775273  0.828163  1
  Co  Co8  1  0.250000  0.220147  0.173010  1
  Co  Co9  1  0.250000  0.619255  0.196384  1
  Co  Co10  1  0.750000  0.380823  0.801660  1
  Co  Co11  1  0.750000  0.120374  0.301262  1
  Co  Co12  1  0.250000  0.877900  0.702016  1
  Co  Co13  1  0.250000  0.032625  0.433232  1
  Co  Co14  1  0.750000  0.965944  0.568528  1
  Co  Co15  1  0.750000  0.533950  0.066621  1
  Co  Co16  1  0.250000  0.467754  0.933734  1
  Ni  Ni17  1  0.250000  0.710746  0.989726  1
  Ni  Ni18  1  0.250000  0.091733  0.986181  1
  Ni  Ni19  1  0.750000  0.906848  0.015102  1
  Ni  Ni20  1  0.750000  0.594478  0.511129  1
  Ni  Ni21  1  0.250000  0.406898  0.487296  1
  Ni  Ni22  1  0.250000  0.279252  0.673096  1
  Ni  Ni23  1  0.750000  0.721262  0.323756  1
  P  P24  1  0.250000  0.072695  0.614527  1
  P  P25  1  0.750000  0.926024  0.386675  1
  P  P26  1  0.750000  0.575768  0.887358  1
  P  P27  1  0.250000  0.422604  0.114471  1
  P  P28  1  0.250000  0.226146  0.358871  1
  P  P29  1  0.750000  0.772486  0.641687  1
  P  P30  1  0.750000  0.727516  0.134540  1
  P  P31  1  0.250000  0.275301  0.859891  1
  P  P32  1  0.250000  0.893766  0.890799  1
  P  P33  1  0.750000  0.104160  0.112472  1
  P  P34  1  0.750000  0.401060  0.609454  1
  P  P35  1  0.250000  0.601078  0.387969  1
