# generated using pymatgen
data_Y12Th4MgCd3Ir4
_symmetry_space_group_name_H-M   'P 1'
_cell_length_a   9.80198136
_cell_length_b   9.80198138
_cell_length_c   9.80198242
_cell_angle_alpha   59.90161660
_cell_angle_beta   59.90161483
_cell_angle_gamma   59.90161726
_symmetry_Int_Tables_number   1
_chemical_formula_structural   Y12Th4MgCd3Ir4
_chemical_formula_sum   'Y12 Th4 Mg1 Cd3 Ir4'
_cell_volume   664.44072829
_cell_formula_units_Z   1
loop_
 _symmetry_equiv_pos_site_id
 _symmetry_equiv_pos_as_xyz
  1  'x, y, z'
loop_
 _atom_site_type_symbol
 _atom_site_label
 _atom_site_symmetry_multiplicity
 _atom_site_fract_x
 _atom_site_fract_y
 _atom_site_fract_z
 _atom_site_occupancy
  Y  Y0  1  0.811036  0.189210  0.189210  1
  Y  Y1  1  0.187247  0.813269  0.813269  1
  Y  Y2  1  0.189210  0.811036  0.189210  1
  Y  Y3  1  0.813269  0.187247  0.813269  1
  Y  Y4  1  0.189210  0.189210  0.811036  1
  Y  Y5  1  0.813269  0.813269  0.187247  1
  Y  Y6  1  0.939074  0.564571  0.564571  1
  Y  Y7  1  0.563450  0.936924  0.936924  1
  Y  Y8  1  0.564571  0.939074  0.564571  1
  Y  Y9  1  0.936924  0.563450  0.936924  1
  Y  Y10  1  0.564571  0.564571  0.939074  1
  Y  Y11  1  0.936924  0.936924  0.563450  1
  Th  Th12  1  0.348556  0.348556  0.348556  1
  Th  Th13  1  0.349468  0.349468  0.952399  1
  Th  Th14  1  0.349468  0.952399  0.349468  1
  Th  Th15  1  0.952399  0.349468  0.349468  1
  Mg  Mg16  1  0.577237  0.577237  0.577237  1
  Cd  Cd17  1  0.581480  0.581480  0.252043  1
  Cd  Cd18  1  0.581480  0.252043  0.581480  1
  Cd  Cd19  1  0.252043  0.581480  0.581480  1
  Ir  Ir20  1  0.143937  0.143937  0.143937  1
  Ir  Ir21  1  0.143161  0.143161  0.568855  1
  Ir  Ir22  1  0.143161  0.568855  0.143161  1
  Ir  Ir23  1  0.568855  0.143161  0.143161  1
