# generated using pymatgen
data_YPu(Ni2B)12
_symmetry_space_group_name_H-M   'P 1'
_cell_length_a   6.00705185
_cell_length_b   6.00705223
_cell_length_c   10.99675508
_cell_angle_alpha   89.94772457
_cell_angle_beta   89.94772662
_cell_angle_gamma   104.47396796
_symmetry_Int_Tables_number   1
_chemical_formula_structural   YPu(Ni2B)12
_chemical_formula_sum   'Y1 Pu1 Ni24 B12'
_cell_volume   384.21952680
_cell_formula_units_Z   1
loop_
 _symmetry_equiv_pos_site_id
 _symmetry_equiv_pos_as_xyz
  1  'x, y, z'
loop_
 _atom_site_type_symbol
 _atom_site_label
 _atom_site_symmetry_multiplicity
 _atom_site_fract_x
 _atom_site_fract_y
 _atom_site_fract_z
 _atom_site_occupancy
  Y  Y0  1  0.165688  0.165688  0.996146  1
  Pu  Pu1  1  0.833779  0.833779  0.497194  1
  Ni  Ni2  1  0.565070  0.565070  0.918883  1
  Ni  Ni3  1  0.434548  0.434548  0.418613  1
  Ni  Ni4  1  0.781368  0.781368  0.098252  1
  Ni  Ni5  1  0.218398  0.218398  0.598576  1
  Ni  Ni6  1  0.543937  0.805563  0.734167  1
  Ni  Ni7  1  0.805563  0.543937  0.734167  1
  Ni  Ni8  1  0.456212  0.195006  0.233523  1
  Ni  Ni9  1  0.195006  0.456212  0.233523  1
  Ni  Ni10  1  0.145820  0.881624  0.755743  1
  Ni  Ni11  1  0.881624  0.145820  0.755743  1
  Ni  Ni12  1  0.854202  0.118862  0.255200  1
  Ni  Ni13  1  0.118862  0.854202  0.255200  1
  Ni  Ni14  1  0.658321  0.269924  0.567788  1
  Ni  Ni15  1  0.269924  0.658321  0.567788  1
  Ni  Ni16  1  0.341226  0.730417  0.067637  1
  Ni  Ni17  1  0.730417  0.341226  0.067637  1
  Ni  Ni18  1  0.630472  0.996508  0.937444  1
  Ni  Ni19  1  0.996508  0.630472  0.937444  1
  Ni  Ni20  1  0.370318  0.003512  0.437361  1
  Ni  Ni21  1  0.003512  0.370318  0.437361  1
  Ni  Ni22  1  0.473605  0.212118  0.776216  1
  Ni  Ni23  1  0.212118  0.473605  0.776216  1
  Ni  Ni24  1  0.526979  0.787409  0.276273  1
  Ni  Ni25  1  0.787409  0.526979  0.276273  1
  B  B26  1  0.836469  0.836469  0.838249  1
  B  B27  1  0.163195  0.163195  0.337936  1
  B  B28  1  0.488684  0.488684  0.654770  1
  B  B29  1  0.511402  0.511402  0.153481  1
  B  B30  1  0.326391  0.757324  0.885370  1
  B  B31  1  0.757324  0.326391  0.885370  1
  B  B32  1  0.673795  0.242356  0.384911  1
  B  B33  1  0.242356  0.673795  0.384911  1
  B  B34  1  0.401190  0.987498  0.622654  1
  B  B35  1  0.987498  0.401190  0.622654  1
  B  B36  1  0.598871  0.011938  0.122664  1
  B  B37  1  0.011938  0.598871  0.122664  1
