# generated using pymatgen
data_Tm2Ga5Ir3
_symmetry_space_group_name_H-M   'P 1'
_cell_length_a   8.58960398
_cell_length_b   8.58960476
_cell_length_c   5.68501300
_cell_angle_alpha   70.67171906
_cell_angle_beta   70.67170741
_cell_angle_gamma   97.58232569
_symmetry_Int_Tables_number   1
_chemical_formula_structural   Tm2Ga5Ir3
_chemical_formula_sum   'Tm4 Ga10 Ir6'
_cell_volume   359.49950788
_cell_formula_units_Z   2
loop_
 _symmetry_equiv_pos_site_id
 _symmetry_equiv_pos_as_xyz
  1  'x, y, z'
loop_
 _atom_site_type_symbol
 _atom_site_label
 _atom_site_symmetry_multiplicity
 _atom_site_fract_x
 _atom_site_fract_y
 _atom_site_fract_z
 _atom_site_occupancy
  Tm  Tm0  1  0.872659  0.579121  0.774855  1
  Tm  Tm1  1  0.420879  0.127341  0.725145  1
  Tm  Tm2  1  0.127341  0.420879  0.225145  1
  Tm  Tm3  1  0.579121  0.872659  0.274855  1
  Ga  Ga4  1  0.101671  0.265262  0.816146  1
  Ga  Ga5  1  0.734738  0.898329  0.683854  1
  Ga  Ga6  1  0.898329  0.734738  0.183854  1
  Ga  Ga7  1  0.265262  0.101671  0.316146  1
  Ga  Ga8  1  0.198957  0.801043  0.750000  1
  Ga  Ga9  1  0.801043  0.198957  0.250000  1
  Ga  Ga10  1  0.500193  0.499807  0.750000  1
  Ga  Ga11  1  0.499807  0.500193  0.250000  1
  Ga  Ga12  1  0.800859  0.199141  0.750000  1
  Ga  Ga13  1  0.199141  0.800859  0.250000  1
  Ir  Ir14  1  0.260371  0.568042  0.586130  1
  Ir  Ir15  1  0.431958  0.739629  0.913870  1
  Ir  Ir16  1  0.739629  0.431958  0.413870  1
  Ir  Ir17  1  0.568042  0.260371  0.086130  1
  Ir  Ir18  1  0.999994  0.000006  0.750000  1
  Ir  Ir19  1  0.000006  0.999994  0.250000  1
