# generated using pymatgen
data_Y10Ga2SnSb3
_symmetry_space_group_name_H-M   'P 1'
_cell_length_a   8.85685742
_cell_length_b   8.85391630
_cell_length_c   6.49121200
_cell_angle_alpha   90.00000000
_cell_angle_beta   90.00000000
_cell_angle_gamma   120.04625679
_symmetry_Int_Tables_number   1
_chemical_formula_structural   Y10Ga2SnSb3
_chemical_formula_sum   'Y10 Ga2 Sn1 Sb3'
_cell_volume   440.62473266
_cell_formula_units_Z   1
loop_
 _symmetry_equiv_pos_site_id
 _symmetry_equiv_pos_as_xyz
  1  'x, y, z'
loop_
 _atom_site_type_symbol
 _atom_site_label
 _atom_site_symmetry_multiplicity
 _atom_site_fract_x
 _atom_site_fract_y
 _atom_site_fract_z
 _atom_site_occupancy
  Y  Y0  1  0.334385  0.667806  0.000242  1
  Y  Y1  1  0.654859  0.328181  0.499661  1
  Y  Y2  1  0.654859  0.328181  0.000339  1
  Y  Y3  1  0.334385  0.667806  0.499758  1
  Y  Y4  1  0.242208  0.008666  0.250000  1
  Y  Y5  1  0.243371  0.233075  0.750000  1
  Y  Y6  1  0.010523  0.767381  0.750000  1
  Y  Y7  1  0.011755  0.244405  0.250000  1
  Y  Y8  1  0.755509  0.753696  0.250000  1
  Y  Y9  1  0.753264  0.999767  0.750000  1
  Ga  Ga10  1  0.396032  0.398114  0.250000  1
  Ga  Ga11  1  0.397056  0.998790  0.750000  1
  Sn  Sn12  1  0.998086  0.603623  0.250000  1
  Sb  Sb13  1  0.608735  0.000930  0.250000  1
  Sb  Sb14  1  0.606604  0.607092  0.750000  1
  Sb  Sb15  1  0.998372  0.392489  0.750000  1
