# generated using pymatgen
data_HoEr9(SiBi)4
_symmetry_space_group_name_H-M   'P 1'
_cell_length_a   8.58938013
_cell_length_b   8.58777540
_cell_length_c   7.86380610
_cell_angle_alpha   89.98880722
_cell_angle_beta   89.99498694
_cell_angle_gamma   125.62265936
_symmetry_Int_Tables_number   1
_chemical_formula_structural   HoEr9(SiBi)4
_chemical_formula_sum   'Ho1 Er9 Si4 Bi4'
_cell_volume   471.51620960
_cell_formula_units_Z   1
loop_
 _symmetry_equiv_pos_site_id
 _symmetry_equiv_pos_as_xyz
  1  'x, y, z'
loop_
 _atom_site_type_symbol
 _atom_site_label
 _atom_site_symmetry_multiplicity
 _atom_site_fract_x
 _atom_site_fract_y
 _atom_site_fract_z
 _atom_site_occupancy
  Ho  Ho0  1  0.042496  0.286154  0.336031  1
  Er  Er1  1  0.957345  0.714073  0.663902  1
  Er  Er2  1  0.457376  0.214114  0.836095  1
  Er  Er3  1  0.785811  0.542607  0.163878  1
  Er  Er4  1  0.542621  0.785788  0.163888  1
  Er  Er5  1  0.214152  0.457354  0.836114  1
  Er  Er6  1  0.714141  0.957378  0.663907  1
  Er  Er7  1  0.285907  0.042613  0.336135  1
  Er  Er8  1  0.999995  0.999930  0.999881  1
  Er  Er9  1  0.500157  0.500086  0.500055  1
  Si  Si10  1  0.365059  0.364816  0.133849  1
  Si  Si11  1  0.635202  0.635213  0.866011  1
  Si  Si12  1  0.135258  0.135157  0.634192  1
  Si  Si13  1  0.864678  0.864553  0.365995  1
  Bi  Bi14  1  0.792389  0.207348  0.999760  1
  Bi  Bi15  1  0.207417  0.792524  0.000024  1
  Bi  Bi16  1  0.707208  0.292556  0.500111  1
  Bi  Bi17  1  0.292789  0.707736  0.500172  1
