# generated using pymatgen
data_PuMnF6
_symmetry_space_group_name_H-M   'P 1'
_cell_length_a   5.94783634
_cell_length_b   5.94783576
_cell_length_c   5.94783516
_cell_angle_alpha   58.23136072
_cell_angle_beta   58.23135715
_cell_angle_gamma   58.23135000
_symmetry_Int_Tables_number   1
_chemical_formula_structural   PuMnF6
_chemical_formula_sum   'Pu1 Mn1 F6'
_cell_volume   142.75719068
_cell_formula_units_Z   1
loop_
 _symmetry_equiv_pos_site_id
 _symmetry_equiv_pos_as_xyz
  1  'x, y, z'
loop_
 _atom_site_type_symbol
 _atom_site_label
 _atom_site_symmetry_multiplicity
 _atom_site_fract_x
 _atom_site_fract_y
 _atom_site_fract_z
 _atom_site_occupancy
  Pu  Pu0  1  0.500000  0.500000  0.500000  1
  Mn  Mn1  1  0.000000  0.000000  0.000000  1
  F  F2  1  0.672158  0.839350  0.242991  1
  F  F3  1  0.839350  0.242991  0.672158  1
  F  F4  1  0.757009  0.327842  0.160650  1
  F  F5  1  0.160650  0.757009  0.327842  1
  F  F6  1  0.327842  0.160650  0.757009  1
  F  F7  1  0.242991  0.672158  0.839350  1
