# generated using pymatgen
data_Er10GeB16Au3
_symmetry_space_group_name_H-M   'P 1'
_cell_length_a   7.17500729
_cell_length_b   7.17500729
_cell_length_c   8.32908900
_cell_angle_alpha   90.00000000
_cell_angle_beta   90.00000000
_cell_angle_gamma   89.82582094
_symmetry_Int_Tables_number   1
_chemical_formula_structural   Er10GeB16Au3
_chemical_formula_sum   'Er10 Ge1 B16 Au3'
_cell_volume   428.78559721
_cell_formula_units_Z   1
loop_
 _symmetry_equiv_pos_site_id
 _symmetry_equiv_pos_as_xyz
  1  'x, y, z'
loop_
 _atom_site_type_symbol
 _atom_site_label
 _atom_site_symmetry_multiplicity
 _atom_site_fract_x
 _atom_site_fract_y
 _atom_site_fract_z
 _atom_site_occupancy
  Er  Er0  1  0.679869  0.177848  0.213039  1
  Er  Er1  1  0.322152  0.820131  0.786961  1
  Er  Er2  1  0.322152  0.820131  0.213039  1
  Er  Er3  1  0.817739  0.682261  0.213354  1
  Er  Er4  1  0.817739  0.682261  0.786646  1
  Er  Er5  1  0.679869  0.177848  0.786961  1
  Er  Er6  1  0.181076  0.318924  0.788008  1
  Er  Er7  1  0.181076  0.318924  0.211992  1
  Er  Er8  1  0.002294  0.003863  0.500000  1
  Er  Er9  1  0.496137  0.497706  0.500000  1
  Ge  Ge10  1  0.625932  0.874068  0.500000  1
  B  B11  1  0.171706  0.039830  0.000000  1
  B  B12  1  0.828593  0.959589  0.000000  1
  B  B13  1  0.958885  0.172148  0.000000  1
  B  B14  1  0.327852  0.541115  0.000000  1
  B  B15  1  0.040602  0.827354  0.000000  1
  B  B16  1  0.672646  0.459398  0.000000  1
  B  B17  1  0.540411  0.671407  0.000000  1
  B  B18  1  0.460170  0.328294  0.000000  1
  B  B19  1  0.089866  0.589915  0.000000  1
  B  B20  1  0.910085  0.410134  0.000000  1
  B  B21  1  0.409394  0.090606  0.000000  1
  B  B22  1  0.591129  0.908871  0.000000  1
  B  B23  1  0.000586  0.000219  0.159403  1
  B  B24  1  0.000586  0.000219  0.840597  1
  B  B25  1  0.499781  0.499414  0.840597  1
  B  B26  1  0.499781  0.499414  0.159403  1
  Au  Au27  1  0.129643  0.632911  0.500000  1
  Au  Au28  1  0.867089  0.370357  0.500000  1
  Au  Au29  1  0.375159  0.124841  0.500000  1
