# generated using pymatgen
data_Y4In(SiRh2)2
_symmetry_space_group_name_H-M   'P 1'
_cell_length_a   10.98097177
_cell_length_b   10.98097150
_cell_length_c   8.00052900
_cell_angle_alpha   70.12838733
_cell_angle_beta   70.12838784
_cell_angle_gamma   29.91277393
_symmetry_Int_Tables_number   1
_chemical_formula_structural   Y4In(SiRh2)2
_chemical_formula_sum   'Y8 In2 Si4 Rh8'
_cell_volume   450.32709063
_cell_formula_units_Z   2
loop_
 _symmetry_equiv_pos_site_id
 _symmetry_equiv_pos_as_xyz
  1  'x, y, z'
loop_
 _atom_site_type_symbol
 _atom_site_label
 _atom_site_symmetry_multiplicity
 _atom_site_fract_x
 _atom_site_fract_y
 _atom_site_fract_z
 _atom_site_occupancy
  Y  Y0  1  0.211571  0.440081  0.392626  1
  Y  Y1  1  0.559919  0.788429  0.107374  1
  Y  Y2  1  0.440081  0.211571  0.892626  1
  Y  Y3  1  0.916267  0.223287  0.336993  1
  Y  Y4  1  0.776713  0.083733  0.163007  1
  Y  Y5  1  0.083733  0.776713  0.663007  1
  Y  Y6  1  0.223287  0.916267  0.836993  1
  Y  Y7  1  0.788429  0.559919  0.607374  1
  In  In8  1  0.652085  0.347915  0.750000  1
  In  In9  1  0.347915  0.652085  0.250000  1
  Si  Si10  1  0.293033  0.060250  0.442213  1
  Si  Si11  1  0.939750  0.706967  0.057787  1
  Si  Si12  1  0.706967  0.939750  0.557787  1
  Si  Si13  1  0.060250  0.293033  0.942213  1
  Rh  Rh14  1  0.266621  0.590612  0.021427  1
  Rh  Rh15  1  0.590612  0.266621  0.521427  1
  Rh  Rh16  1  0.733379  0.409388  0.978573  1
  Rh  Rh17  1  0.078568  0.364383  0.187450  1
  Rh  Rh18  1  0.635617  0.921432  0.312550  1
  Rh  Rh19  1  0.409388  0.733379  0.478573  1
  Rh  Rh20  1  0.921432  0.635617  0.812550  1
  Rh  Rh21  1  0.364383  0.078568  0.687450  1
