# generated using pymatgen
data_Ac3ZrBi5
_symmetry_space_group_name_H-M   'P 1'
_cell_length_a   10.22323000
_cell_length_b   10.22320997
_cell_length_c   6.62161300
_cell_angle_alpha   89.99979177
_cell_angle_beta   90.00001986
_cell_angle_gamma   120.00014054
_symmetry_Int_Tables_number   1
_chemical_formula_structural   Ac3ZrBi5
_chemical_formula_sum   'Ac6 Zr2 Bi10'
_cell_volume   599.33442473
_cell_formula_units_Z   2
loop_
 _symmetry_equiv_pos_site_id
 _symmetry_equiv_pos_as_xyz
  1  'x, y, z'
loop_
 _atom_site_type_symbol
 _atom_site_label
 _atom_site_symmetry_multiplicity
 _atom_site_fract_x
 _atom_site_fract_y
 _atom_site_fract_z
 _atom_site_occupancy
  Ac  Ac0  1  0.621035  0.000001  0.249999  1
  Ac  Ac1  1  0.378964  0.999998  0.750000  1
  Ac  Ac2  1  0.999998  0.621037  0.250002  1
  Ac  Ac3  1  0.000003  0.378962  0.750001  1
  Ac  Ac4  1  0.378972  0.378975  0.250000  1
  Ac  Ac5  1  0.621028  0.621023  0.749999  1
  Zr  Zr6  1  0.000001  0.000001  0.999999  1
  Zr  Zr7  1  0.000001  0.000001  0.500001  1
  Bi  Bi8  1  0.256118  0.000000  0.249999  1
  Bi  Bi9  1  0.743881  0.000001  0.750000  1
  Bi  Bi10  1  0.000000  0.256119  0.249999  1
  Bi  Bi11  1  0.999999  0.743881  0.750000  1
  Bi  Bi12  1  0.743886  0.743885  0.250000  1
  Bi  Bi13  1  0.256115  0.256117  0.750001  1
  Bi  Bi14  1  0.333335  0.666668  0.000000  1
  Bi  Bi15  1  0.666665  0.333332  0.000000  1
  Bi  Bi16  1  0.666665  0.333332  0.500000  1
  Bi  Bi17  1  0.333335  0.666668  0.500000  1
