# generated using pymatgen
data_Mg4SbPd10Au
_symmetry_space_group_name_H-M   'P 1'
_cell_length_a   4.16691200
_cell_length_b   5.60573046
_cell_length_c   11.12082022
_cell_angle_alpha   92.21848271
_cell_angle_beta   90.00000000
_cell_angle_gamma   90.00000000
_symmetry_Int_Tables_number   1
_chemical_formula_structural   Mg4SbPd10Au
_chemical_formula_sum   'Mg4 Sb1 Pd10 Au1'
_cell_volume   259.57193016
_cell_formula_units_Z   1
loop_
 _symmetry_equiv_pos_site_id
 _symmetry_equiv_pos_as_xyz
  1  'x, y, z'
loop_
 _atom_site_type_symbol
 _atom_site_label
 _atom_site_symmetry_multiplicity
 _atom_site_fract_x
 _atom_site_fract_y
 _atom_site_fract_z
 _atom_site_occupancy
  Mg  Mg0  1  0.500000  0.179045  0.141458  1
  Mg  Mg1  1  0.500000  0.820955  0.858542  1
  Mg  Mg2  1  0.500000  0.288369  0.627952  1
  Mg  Mg3  1  0.500000  0.711631  0.372048  1
  Sb  Sb4  1  0.000000  0.500000  0.000000  1
  Pd  Pd5  1  0.500000  0.223517  0.377346  1
  Pd  Pd6  1  0.500000  0.776483  0.622654  1
  Pd  Pd7  1  0.500000  0.301767  0.885335  1
  Pd  Pd8  1  0.500000  0.698233  0.114665  1
  Pd  Pd9  1  0.000000  0.445278  0.242755  1
  Pd  Pd10  1  0.000000  0.554722  0.757245  1
  Pd  Pd11  1  0.000000  0.057568  0.748742  1
  Pd  Pd12  1  0.000000  0.942432  0.251258  1
  Pd  Pd13  1  0.000000  0.000000  0.000000  1
  Pd  Pd14  1  0.000000  0.500000  0.500000  1
  Au  Au15  1  0.000000  0.000000  0.500000  1
