# generated using pymatgen
data_SmEu3(Mo2O7)2
_symmetry_space_group_name_H-M   'P 1'
_cell_length_a   7.53866286
_cell_length_b   7.53866206
_cell_length_c   7.53866103
_cell_angle_alpha   58.93285117
_cell_angle_beta   58.93285294
_cell_angle_gamma   58.93285395
_symmetry_Int_Tables_number   1
_chemical_formula_structural   SmEu3(Mo2O7)2
_chemical_formula_sum   'Sm1 Eu3 Mo4 O14'
_cell_volume   295.57052901
_cell_formula_units_Z   1
loop_
 _symmetry_equiv_pos_site_id
 _symmetry_equiv_pos_as_xyz
  1  'x, y, z'
loop_
 _atom_site_type_symbol
 _atom_site_label
 _atom_site_symmetry_multiplicity
 _atom_site_fract_x
 _atom_site_fract_y
 _atom_site_fract_z
 _atom_site_occupancy
  Sm  Sm0  1  0.125000  0.125000  0.125000  1
  Eu  Eu1  1  0.125000  0.125000  0.625000  1
  Eu  Eu2  1  0.625000  0.125000  0.125000  1
  Eu  Eu3  1  0.125000  0.625000  0.125000  1
  Mo  Mo4  1  0.625000  0.625000  0.625000  1
  Mo  Mo5  1  0.125000  0.625000  0.625000  1
  Mo  Mo6  1  0.625000  0.125000  0.625000  1
  Mo  Mo7  1  0.625000  0.625000  0.125000  1
  O  O8  1  0.291710  0.291710  0.705190  1
  O  O9  1  0.291710  0.705190  0.291710  1
  O  O10  1  0.958290  0.544810  0.958290  1
  O  O11  1  0.705190  0.291710  0.291710  1
  O  O12  1  0.002079  0.002079  0.002079  1
  O  O13  1  0.546930  0.546930  0.948751  1
  O  O14  1  0.301249  0.703070  0.703070  1
  O  O15  1  0.546930  0.948751  0.546930  1
  O  O16  1  0.544810  0.958290  0.958290  1
  O  O17  1  0.703070  0.703070  0.301249  1
  O  O18  1  0.247921  0.247921  0.247921  1
  O  O19  1  0.958290  0.958290  0.544810  1
  O  O20  1  0.948751  0.546930  0.546930  1
  O  O21  1  0.703070  0.301249  0.703070  1
