# generated using pymatgen
data_DyY2Lu2Si3H
_symmetry_space_group_name_H-M   'P 1'
_cell_length_a   8.39346417
_cell_length_b   8.39346628
_cell_length_c   6.14848400
_cell_angle_alpha   90.00000000
_cell_angle_beta   90.00000000
_cell_angle_gamma   119.97694617
_symmetry_Int_Tables_number   1
_chemical_formula_structural   DyY2Lu2Si3H
_chemical_formula_sum   'Dy2 Y4 Lu4 Si6 H2'
_cell_volume   375.21665910
_cell_formula_units_Z   2
loop_
 _symmetry_equiv_pos_site_id
 _symmetry_equiv_pos_as_xyz
  1  'x, y, z'
loop_
 _atom_site_type_symbol
 _atom_site_label
 _atom_site_symmetry_multiplicity
 _atom_site_fract_x
 _atom_site_fract_y
 _atom_site_fract_z
 _atom_site_occupancy
  Dy  Dy0  1  0.749142  0.999969  0.250000  1
  Dy  Dy1  1  0.999969  0.749142  0.250000  1
  Y  Y2  1  0.749159  0.749159  0.750000  1
  Y  Y3  1  0.250742  0.999926  0.750000  1
  Y  Y4  1  0.999926  0.250742  0.750000  1
  Y  Y5  1  0.250763  0.250763  0.250000  1
  Lu  Lu6  1  0.666685  0.333325  0.999895  1
  Lu  Lu7  1  0.333325  0.666685  0.999895  1
  Lu  Lu8  1  0.333325  0.666685  0.500105  1
  Lu  Lu9  1  0.666685  0.333325  0.500105  1
  Si  Si10  1  0.391407  0.391407  0.750000  1
  Si  Si11  1  0.608694  0.000073  0.750000  1
  Si  Si12  1  0.000073  0.608694  0.750000  1
  Si  Si13  1  0.608661  0.608661  0.250000  1
  Si  Si14  1  0.391577  0.000025  0.250000  1
  Si  Si15  1  0.000025  0.391577  0.250000  1
  H  H16  1  0.999922  0.999922  0.499983  1
  H  H17  1  0.999922  0.999922  0.000017  1
