# generated using pymatgen
data_LiCo20ReB6Mo
_symmetry_space_group_name_H-M   'P 1'
_cell_length_a   7.38770730
_cell_length_b   7.38770675
_cell_length_c   7.38770700
_cell_angle_alpha   59.99999439
_cell_angle_beta   59.99999688
_cell_angle_gamma   59.99999801
_symmetry_Int_Tables_number   1
_chemical_formula_structural   LiCo20ReB6Mo
_chemical_formula_sum   'Li1 Co20 Re1 B6 Mo1'
_cell_volume   285.11099011
_cell_formula_units_Z   1
loop_
 _symmetry_equiv_pos_site_id
 _symmetry_equiv_pos_as_xyz
  1  'x, y, z'
loop_
 _atom_site_type_symbol
 _atom_site_label
 _atom_site_symmetry_multiplicity
 _atom_site_fract_x
 _atom_site_fract_y
 _atom_site_fract_z
 _atom_site_occupancy
  Li  Li0  1  0.000000  0.000000  0.000000  1
  Co  Co1  1  0.617771  0.617771  0.146688  1
  Co  Co2  1  0.617771  0.146688  0.617771  1
  Co  Co3  1  0.146688  0.617771  0.617771  1
  Co  Co4  1  0.617771  0.617771  0.617771  1
  Co  Co5  1  0.381355  0.381355  0.855933  1
  Co  Co6  1  0.381355  0.855933  0.381355  1
  Co  Co7  1  0.855933  0.381355  0.381355  1
  Co  Co8  1  0.381355  0.381355  0.381355  1
  Co  Co9  1  0.000341  0.000341  0.341509  1
  Co  Co10  1  0.657810  0.000341  0.341509  1
  Co  Co11  1  0.000341  0.657810  0.341509  1
  Co  Co12  1  0.657810  0.341509  0.000341  1
  Co  Co13  1  0.000341  0.341509  0.000341  1
  Co  Co14  1  0.000341  0.341509  0.657810  1
  Co  Co15  1  0.341509  0.657810  0.000341  1
  Co  Co16  1  0.341509  0.000341  0.657810  1
  Co  Co17  1  0.341509  0.000341  0.000341  1
  Co  Co18  1  0.000341  0.000341  0.657810  1
  Co  Co19  1  0.000341  0.657810  0.000341  1
  Co  Co20  1  0.657810  0.000341  0.000341  1
  Re  Re21  1  0.250000  0.250000  0.250000  1
  B  B22  1  0.726487  0.726487  0.273513  1
  B  B23  1  0.273513  0.726487  0.273513  1
  B  B24  1  0.726487  0.273513  0.273513  1
  B  B25  1  0.273513  0.273513  0.726487  1
  B  B26  1  0.726487  0.273513  0.726487  1
  B  B27  1  0.273513  0.726487  0.726487  1
  Mo  Mo28  1  0.750000  0.750000  0.750000  1
