# generated using pymatgen
data_BaCo7Ni2Sb2As3
_symmetry_space_group_name_H-M   'P 1'
_cell_length_a   7.04858899
_cell_length_b   7.04858849
_cell_length_c   10.97978856
_cell_angle_alpha   90.06601202
_cell_angle_beta   89.93398918
_cell_angle_gamma   119.87981752
_symmetry_Int_Tables_number   1
_chemical_formula_structural   BaCo7Ni2Sb2As3
_chemical_formula_sum   'Ba2 Co14 Ni4 Sb4 As6'
_cell_volume   472.99139667
_cell_formula_units_Z   2
loop_
 _symmetry_equiv_pos_site_id
 _symmetry_equiv_pos_as_xyz
  1  'x, y, z'
loop_
 _atom_site_type_symbol
 _atom_site_label
 _atom_site_symmetry_multiplicity
 _atom_site_fract_x
 _atom_site_fract_y
 _atom_site_fract_z
 _atom_site_occupancy
  Ba  Ba0  1  0.999620  0.000380  0.997087  1
  Ba  Ba1  1  0.000772  0.999228  0.499747  1
  Co  Co2  1  0.540110  0.459890  0.125567  1
  Co  Co3  1  0.079223  0.540367  0.626929  1
  Co  Co4  1  0.459633  0.920777  0.626929  1
  Co  Co5  1  0.539899  0.079737  0.126052  1
  Co  Co6  1  0.920263  0.460101  0.126052  1
  Co  Co7  1  0.080827  0.538619  0.873197  1
  Co  Co8  1  0.461381  0.919173  0.873197  1
  Co  Co9  1  0.460088  0.539912  0.626872  1
  Co  Co10  1  0.203676  0.796324  0.250097  1
  Co  Co11  1  0.406725  0.203726  0.751272  1
  Co  Co12  1  0.796274  0.593275  0.751272  1
  Co  Co13  1  0.204423  0.409299  0.249568  1
  Co  Co14  1  0.590701  0.795577  0.249568  1
  Co  Co15  1  0.795582  0.204418  0.749884  1
  Ni  Ni16  1  0.461839  0.538161  0.875904  1
  Ni  Ni17  1  0.539469  0.460531  0.375113  1
  Ni  Ni18  1  0.920242  0.460732  0.375629  1
  Ni  Ni19  1  0.539268  0.079758  0.375629  1
  Sb  Sb20  1  0.331945  0.668055  0.060532  1
  Sb  Sb21  1  0.666518  0.333482  0.564300  1
  Sb  Sb22  1  0.669659  0.330341  0.939069  1
  Sb  Sb23  1  0.332408  0.667592  0.441512  1
  As  As24  1  0.840037  0.159963  0.247637  1
  As  As25  1  0.679384  0.840985  0.748384  1
  As  As26  1  0.159015  0.320616  0.748384  1
  As  As27  1  0.840168  0.680645  0.246887  1
  As  As28  1  0.319355  0.159832  0.246887  1
  As  As29  1  0.161496  0.838504  0.750844  1
