# generated using pymatgen
data_Dy4Y4Lu4Co5Sn
_symmetry_space_group_name_H-M   'P 1'
_cell_length_a   8.23347066
_cell_length_b   8.23347005
_cell_length_c   8.23347002
_cell_angle_alpha   107.14827813
_cell_angle_beta   110.52884225
_cell_angle_gamma   110.76131171
_symmetry_Int_Tables_number   1
_chemical_formula_structural   Dy4Y4Lu4Co5Sn
_chemical_formula_sum   'Dy4 Y4 Lu4 Co5 Sn1'
_cell_volume   429.13304881
_cell_formula_units_Z   1
loop_
 _symmetry_equiv_pos_site_id
 _symmetry_equiv_pos_as_xyz
  1  'x, y, z'
loop_
 _atom_site_type_symbol
 _atom_site_label
 _atom_site_symmetry_multiplicity
 _atom_site_fract_x
 _atom_site_fract_y
 _atom_site_fract_z
 _atom_site_occupancy
  Dy  Dy0  1  0.193947  0.211366  0.405313  1
  Dy  Dy1  1  0.806053  0.788634  0.594687  1
  Dy  Dy2  1  0.193947  0.788634  0.982581  1
  Dy  Dy3  1  0.806053  0.211366  0.017419  1
  Y  Y4  1  0.475858  0.289567  0.186291  1
  Y  Y5  1  0.103277  0.289567  0.813709  1
  Y  Y6  1  0.896723  0.710433  0.186291  1
  Y  Y7  1  0.524142  0.710433  0.813709  1
  Lu  Lu8  1  0.308457  0.623666  0.315209  1
  Lu  Lu9  1  0.308457  0.993250  0.684791  1
  Lu  Lu10  1  0.691543  0.376334  0.684791  1
  Lu  Lu11  1  0.691543  0.006750  0.315209  1
  Co  Co12  1  0.500000  0.613539  0.113539  1
  Co  Co13  1  0.500000  0.386461  0.886461  1
  Co  Co14  1  0.378326  0.000000  0.378326  1
  Co  Co15  1  0.621674  0.000000  0.621674  1
  Co  Co16  1  0.000000  0.000000  0.000000  1
  Sn  Sn17  1  0.000000  0.500000  0.500000  1
