# generated using pymatgen
data_Ac8TbHoIn6
_symmetry_space_group_name_H-M   'P 1'
_cell_length_a   6.64144133
_cell_length_b   9.84102230
_cell_length_c   9.84102284
_cell_angle_alpha   83.53801247
_cell_angle_beta   70.09796505
_cell_angle_gamma   70.09796215
_symmetry_Int_Tables_number   1
_chemical_formula_structural   Ac8TbHoIn6
_chemical_formula_sum   'Ac8 Tb1 Ho1 In6'
_cell_volume   568.65705527
_cell_formula_units_Z   1
loop_
 _symmetry_equiv_pos_site_id
 _symmetry_equiv_pos_as_xyz
  1  'x, y, z'
loop_
 _atom_site_type_symbol
 _atom_site_label
 _atom_site_symmetry_multiplicity
 _atom_site_fract_x
 _atom_site_fract_y
 _atom_site_fract_z
 _atom_site_occupancy
  Ac  Ac0  1  0.719748  0.867914  0.693769  1
  Ac  Ac1  1  0.281420  0.132330  0.306389  1
  Ac  Ac2  1  0.780252  0.306231  0.132086  1
  Ac  Ac3  1  0.218580  0.693611  0.867670  1
  Ac  Ac4  1  0.585642  0.694659  0.133197  1
  Ac  Ac5  1  0.412924  0.305613  0.866782  1
  Ac  Ac6  1  0.087076  0.133218  0.694387  1
  Ac  Ac7  1  0.914358  0.866803  0.305341  1
  Tb  Tb8  1  0.750000  0.499678  0.500322  1
  Ho  Ho9  1  0.250000  0.500228  0.499772  1
  In  In10  1  0.155900  0.499718  0.195431  1
  In  In11  1  0.846659  0.499960  0.804367  1
  In  In12  1  0.344100  0.804569  0.500282  1
  In  In13  1  0.653341  0.195633  0.500040  1
  In  In14  1  0.250000  0.999129  0.000871  1
  In  In15  1  0.750000  0.000705  0.999295  1
