# generated using pymatgen
data_Ho9Mg(Co2Rh)2
_symmetry_space_group_name_H-M   'P 1'
_cell_length_a   7.13193566
_cell_length_b   7.13193599
_cell_length_c   8.55955987
_cell_angle_alpha   114.62051796
_cell_angle_beta   114.62052124
_cell_angle_gamma   90.00000294
_symmetry_Int_Tables_number   1
_chemical_formula_structural   Ho9Mg(Co2Rh)2
_chemical_formula_sum   'Ho9 Mg1 Co4 Rh2'
_cell_volume   351.78909546
_cell_formula_units_Z   1
loop_
 _symmetry_equiv_pos_site_id
 _symmetry_equiv_pos_as_xyz
  1  'x, y, z'
loop_
 _atom_site_type_symbol
 _atom_site_label
 _atom_site_symmetry_multiplicity
 _atom_site_fract_x
 _atom_site_fract_y
 _atom_site_fract_z
 _atom_site_occupancy
  Ho  Ho0  1  0.000000  0.000000  0.000000  1
  Ho  Ho1  1  0.463842  0.321375  0.275900  1
  Ho  Ho2  1  0.954526  0.463842  0.275900  1
  Ho  Ho3  1  0.321375  0.812056  0.275900  1
  Ho  Ho4  1  0.812056  0.954526  0.275900  1
  Ho  Ho5  1  0.187943  0.045475  0.724099  1
  Ho  Ho6  1  0.678624  0.187943  0.724099  1
  Ho  Ho7  1  0.045475  0.536157  0.724099  1
  Ho  Ho8  1  0.536157  0.678624  0.724099  1
  Mg  Mg9  1  0.500000  0.500000  0.000000  1
  Co  Co10  1  0.613764  0.112391  0.000000  1
  Co  Co11  1  0.112391  0.386237  0.000000  1
  Co  Co12  1  0.887609  0.613764  0.000000  1
  Co  Co13  1  0.386237  0.887609  0.000000  1
  Rh  Rh14  1  0.247792  0.247792  0.495583  1
  Rh  Rh15  1  0.752208  0.752208  0.504417  1
