# generated using pymatgen
data_LiHo8HgRh2
_symmetry_space_group_name_H-M   'P 1'
_cell_length_a   9.56551545
_cell_length_b   9.56551548
_cell_length_c   9.61017900
_cell_angle_alpha   59.84542625
_cell_angle_beta   59.84542616
_cell_angle_gamma   59.71132186
_symmetry_Int_Tables_number   1
_chemical_formula_structural   LiHo8HgRh2
_chemical_formula_sum   'Li2 Ho16 Hg2 Rh4'
_cell_volume   618.95997576
_cell_formula_units_Z   2
loop_
 _symmetry_equiv_pos_site_id
 _symmetry_equiv_pos_as_xyz
  1  'x, y, z'
loop_
 _atom_site_type_symbol
 _atom_site_label
 _atom_site_symmetry_multiplicity
 _atom_site_fract_x
 _atom_site_fract_y
 _atom_site_fract_z
 _atom_site_occupancy
  Li  Li0  1  0.820100  0.820100  0.825830  1
  Li  Li1  1  0.820100  0.820100  0.533971  1
  Ho  Ho2  1  0.184674  0.184674  0.815326  1
  Ho  Ho3  1  0.599990  0.599990  0.198476  1
  Ho  Ho4  1  0.436748  0.063185  0.438014  1
  Ho  Ho5  1  0.440501  0.440501  0.059499  1
  Ho  Ho6  1  0.814362  0.187648  0.814081  1
  Ho  Ho7  1  0.187648  0.814362  0.183910  1
  Ho  Ho8  1  0.436748  0.063185  0.062054  1
  Ho  Ho9  1  0.187648  0.814362  0.814081  1
  Ho  Ho10  1  0.063185  0.436748  0.062054  1
  Ho  Ho11  1  0.812776  0.812776  0.187224  1
  Ho  Ho12  1  0.208883  0.596104  0.597506  1
  Ho  Ho13  1  0.063185  0.436748  0.438014  1
  Ho  Ho14  1  0.066047  0.066047  0.433953  1
  Ho  Ho15  1  0.814362  0.187648  0.183910  1
  Ho  Ho16  1  0.596104  0.208883  0.597506  1
  Ho  Ho17  1  0.599990  0.599990  0.601545  1
  Hg  Hg18  1  0.497470  0.840550  0.830990  1
  Hg  Hg19  1  0.840550  0.497470  0.830990  1
  Rh  Rh20  1  0.396464  0.822828  0.390354  1
  Rh  Rh21  1  0.394820  0.394820  0.387954  1
  Rh  Rh22  1  0.822828  0.396464  0.390354  1
  Rh  Rh23  1  0.394820  0.394820  0.822407  1
