# generated using pymatgen
data_Ce3Pr7(Al2Os3)2
_symmetry_space_group_name_H-M   'P 1'
_cell_length_a   8.64363018
_cell_length_b   8.64363033
_cell_length_c   8.64363100
_cell_angle_alpha   110.20786858
_cell_angle_beta   110.20786190
_cell_angle_gamma   110.20786538
_symmetry_Int_Tables_number   1
_chemical_formula_structural   Ce3Pr7(Al2Os3)2
_chemical_formula_sum   'Ce3 Pr7 Al4 Os6'
_cell_volume   483.09273388
_cell_formula_units_Z   1
loop_
 _symmetry_equiv_pos_site_id
 _symmetry_equiv_pos_as_xyz
  1  'x, y, z'
loop_
 _atom_site_type_symbol
 _atom_site_label
 _atom_site_symmetry_multiplicity
 _atom_site_fract_x
 _atom_site_fract_y
 _atom_site_fract_z
 _atom_site_occupancy
  Ce  Ce0  1  0.252627  0.198300  0.941228  1
  Ce  Ce1  1  0.941228  0.252627  0.198300  1
  Ce  Ce2  1  0.198300  0.941228  0.252627  1
  Pr  Pr3  1  0.783028  0.783028  0.783028  1
  Pr  Pr4  1  0.312624  0.564948  0.754258  1
  Pr  Pr5  1  0.754258  0.312624  0.564948  1
  Pr  Pr6  1  0.564948  0.754258  0.312624  1
  Pr  Pr7  1  0.722220  0.506686  0.993844  1
  Pr  Pr8  1  0.993844  0.722220  0.506686  1
  Pr  Pr9  1  0.506686  0.993844  0.722220  1
  Al  Al10  1  0.400973  0.400973  0.400973  1
  Al  Al11  1  0.094214  0.495118  0.007083  1
  Al  Al12  1  0.007083  0.094214  0.495118  1
  Al  Al13  1  0.495118  0.007083  0.094214  1
  Os  Os14  1  0.909993  0.125895  0.751354  1
  Os  Os15  1  0.751354  0.909993  0.125895  1
  Os  Os16  1  0.125895  0.751354  0.909993  1
  Os  Os17  1  0.227316  0.593493  0.364797  1
  Os  Os18  1  0.364797  0.227316  0.593493  1
  Os  Os19  1  0.593493  0.364797  0.227316  1
