# generated using pymatgen
data_Dy10PPb6Au
_symmetry_space_group_name_H-M   'P 1'
_cell_length_a   9.20631104
_cell_length_b   9.20631373
_cell_length_c   6.78972101
_cell_angle_alpha   90.00016060
_cell_angle_beta   89.99977153
_cell_angle_gamma   120.00025552
_symmetry_Int_Tables_number   1
_chemical_formula_structural   Dy10PPb6Au
_chemical_formula_sum   'Dy10 P1 Pb6 Au1'
_cell_volume   498.37110760
_cell_formula_units_Z   1
loop_
 _symmetry_equiv_pos_site_id
 _symmetry_equiv_pos_as_xyz
  1  'x, y, z'
loop_
 _atom_site_type_symbol
 _atom_site_label
 _atom_site_symmetry_multiplicity
 _atom_site_fract_x
 _atom_site_fract_y
 _atom_site_fract_z
 _atom_site_occupancy
  Dy  Dy0  1  0.250209  0.999983  0.231365  1
  Dy  Dy1  1  0.749791  0.000017  0.768635  1
  Dy  Dy2  1  0.999983  0.250209  0.231366  1
  Dy  Dy3  1  0.000017  0.749791  0.768634  1
  Dy  Dy4  1  0.749716  0.749716  0.231351  1
  Dy  Dy5  1  0.250284  0.250284  0.768649  1
  Dy  Dy6  1  0.333307  0.666691  0.000000  1
  Dy  Dy7  1  0.666693  0.333309  0.000000  1
  Dy  Dy8  1  0.666606  0.333394  0.500000  1
  Dy  Dy9  1  0.333394  0.666606  0.500000  1
  P  P10  1  0.000000  0.000000  0.000000  1
  Pb  Pb11  1  0.606222  0.000009  0.249462  1
  Pb  Pb12  1  0.393778  0.999991  0.750538  1
  Pb  Pb13  1  0.000009  0.606222  0.249462  1
  Pb  Pb14  1  0.999991  0.393778  0.750538  1
  Pb  Pb15  1  0.393755  0.393753  0.249404  1
  Pb  Pb16  1  0.606245  0.606247  0.750596  1
  Au  Au17  1  0.000000  0.000000  0.500000  1
