# generated using pymatgen
data_Er3(Al3Co)4
_symmetry_space_group_name_H-M   'P 1'
_cell_length_a   8.63269100
_cell_length_b   8.63269014
_cell_length_c   9.26175300
_cell_angle_alpha   90.00000000
_cell_angle_beta   90.00000000
_cell_angle_gamma   119.99999948
_symmetry_Int_Tables_number   1
_chemical_formula_structural   Er3(Al3Co)4
_chemical_formula_sum   'Er6 Al24 Co8'
_cell_volume   597.74530986
_cell_formula_units_Z   2
loop_
 _symmetry_equiv_pos_site_id
 _symmetry_equiv_pos_as_xyz
  1  'x, y, z'
loop_
 _atom_site_type_symbol
 _atom_site_label
 _atom_site_symmetry_multiplicity
 _atom_site_fract_x
 _atom_site_fract_y
 _atom_site_fract_z
 _atom_site_occupancy
  Er  Er0  1  0.195188  0.390377  0.250000  1
  Er  Er1  1  0.804812  0.609623  0.750000  1
  Er  Er2  1  0.609623  0.804812  0.250000  1
  Er  Er3  1  0.390377  0.195188  0.750000  1
  Er  Er4  1  0.195188  0.804812  0.250000  1
  Er  Er5  1  0.804812  0.195188  0.750000  1
  Al  Al6  1  0.333333  0.666667  0.019193  1
  Al  Al7  1  0.666667  0.333333  0.980807  1
  Al  Al8  1  0.666667  0.333333  0.519193  1
  Al  Al9  1  0.333333  0.666667  0.480807  1
  Al  Al10  1  0.162618  0.325237  0.575702  1
  Al  Al11  1  0.837382  0.674763  0.424298  1
  Al  Al12  1  0.674763  0.837382  0.575702  1
  Al  Al13  1  0.837382  0.674763  0.075702  1
  Al  Al14  1  0.325237  0.162618  0.424298  1
  Al  Al15  1  0.162618  0.325237  0.924298  1
  Al  Al16  1  0.162618  0.837382  0.575702  1
  Al  Al17  1  0.325237  0.162618  0.075702  1
  Al  Al18  1  0.837382  0.162618  0.424298  1
  Al  Al19  1  0.674763  0.837382  0.924298  1
  Al  Al20  1  0.837382  0.162618  0.075702  1
  Al  Al21  1  0.162618  0.837382  0.924298  1
  Al  Al22  1  0.559320  0.118640  0.250000  1
  Al  Al23  1  0.440680  0.881360  0.750000  1
  Al  Al24  1  0.881360  0.440680  0.250000  1
  Al  Al25  1  0.118640  0.559320  0.750000  1
  Al  Al26  1  0.559320  0.440680  0.250000  1
  Al  Al27  1  0.440680  0.559320  0.750000  1
  Al  Al28  1  0.000000  0.000000  0.250000  1
  Al  Al29  1  0.000000  0.000000  0.750000  1
  Co  Co30  1  0.500000  0.000000  0.000000  1
  Co  Co31  1  0.000000  0.500000  0.000000  1
  Co  Co32  1  0.500000  0.000000  0.500000  1
  Co  Co33  1  0.500000  0.500000  0.000000  1
  Co  Co34  1  0.000000  0.500000  0.500000  1
  Co  Co35  1  0.500000  0.500000  0.500000  1
  Co  Co36  1  0.000000  0.000000  0.000000  1
  Co  Co37  1  0.000000  0.000000  0.500000  1
