# generated using pymatgen
data_ErLu(HfPt)2
_symmetry_space_group_name_H-M   'P 1'
_cell_length_a   4.63094000
_cell_length_b   6.99673129
_cell_length_c   8.18374515
_cell_angle_alpha   89.90330746
_cell_angle_beta   90.00000000
_cell_angle_gamma   90.00000000
_symmetry_Int_Tables_number   1
_chemical_formula_structural   ErLu(HfPt)2
_chemical_formula_sum   'Er2 Lu2 Hf4 Pt4'
_cell_volume   265.16477303
_cell_formula_units_Z   2
loop_
 _symmetry_equiv_pos_site_id
 _symmetry_equiv_pos_as_xyz
  1  'x, y, z'
loop_
 _atom_site_type_symbol
 _atom_site_label
 _atom_site_symmetry_multiplicity
 _atom_site_fract_x
 _atom_site_fract_y
 _atom_site_fract_z
 _atom_site_occupancy
  Er  Er0  1  0.750000  0.016043  0.678113  1
  Er  Er1  1  0.250000  0.983957  0.321887  1
  Lu  Lu2  1  0.750000  0.516338  0.823118  1
  Lu  Lu3  1  0.250000  0.483662  0.176882  1
  Hf  Hf4  1  0.750000  0.645362  0.422078  1
  Hf  Hf5  1  0.250000  0.354638  0.577922  1
  Hf  Hf6  1  0.750000  0.146725  0.077290  1
  Hf  Hf7  1  0.250000  0.853275  0.922710  1
  Pt  Pt8  1  0.750000  0.266867  0.402991  1
  Pt  Pt9  1  0.250000  0.733133  0.597009  1
  Pt  Pt10  1  0.750000  0.764882  0.095309  1
  Pt  Pt11  1  0.250000  0.235118  0.904691  1
