# generated using pymatgen
data_Ta(ZnRu)2
_symmetry_space_group_name_H-M   'P 1'
_cell_length_a   3.16682300
_cell_length_b   3.16682300
_cell_length_c   14.80053100
_cell_angle_alpha   90.00000000
_cell_angle_beta   90.00000000
_cell_angle_gamma   90.00000000
_symmetry_Int_Tables_number   1
_chemical_formula_structural   Ta(ZnRu)2
_chemical_formula_sum   'Ta2 Zn4 Ru4'
_cell_volume   148.43109039
_cell_formula_units_Z   2
loop_
 _symmetry_equiv_pos_site_id
 _symmetry_equiv_pos_as_xyz
  1  'x, y, z'
loop_
 _atom_site_type_symbol
 _atom_site_label
 _atom_site_symmetry_multiplicity
 _atom_site_fract_x
 _atom_site_fract_y
 _atom_site_fract_z
 _atom_site_occupancy
  Ta  Ta0  1  0.000000  0.000000  0.298987  1
  Ta  Ta1  1  0.000000  0.000000  0.701013  1
  Zn  Zn2  1  0.000000  0.000000  0.899826  1
  Zn  Zn3  1  0.000000  0.000000  0.100174  1
  Zn  Zn4  1  0.000000  0.000000  0.500000  1
  Zn  Zn5  1  0.500000  0.500000  0.000000  1
  Ru  Ru6  1  0.500000  0.500000  0.193703  1
  Ru  Ru7  1  0.500000  0.500000  0.401237  1
  Ru  Ru8  1  0.500000  0.500000  0.598763  1
  Ru  Ru9  1  0.500000  0.500000  0.806297  1
