# generated using pymatgen
data_Tb16Sc4Si11Ir
_symmetry_space_group_name_H-M   'P 1'
_cell_length_a   11.05651506
_cell_length_b   11.05651506
_cell_length_c   6.17155736
_cell_angle_alpha   89.67197912
_cell_angle_beta   89.67197912
_cell_angle_gamma   89.94902935
_symmetry_Int_Tables_number   1
_chemical_formula_structural   Tb16Sc4Si11Ir
_chemical_formula_sum   'Tb16 Sc4 Si11 Ir1'
_cell_volume   754.42643837
_cell_formula_units_Z   1
loop_
 _symmetry_equiv_pos_site_id
 _symmetry_equiv_pos_as_xyz
  1  'x, y, z'
loop_
 _atom_site_type_symbol
 _atom_site_label
 _atom_site_symmetry_multiplicity
 _atom_site_fract_x
 _atom_site_fract_y
 _atom_site_fract_z
 _atom_site_occupancy
  Tb  Tb0  1  0.281729  0.086380  0.348544  1
  Tb  Tb1  1  0.289254  0.909267  0.849806  1
  Tb  Tb2  1  0.713901  0.084251  0.846422  1
  Tb  Tb3  1  0.717005  0.913531  0.346692  1
  Tb  Tb4  1  0.578564  0.786868  0.852402  1
  Tb  Tb5  1  0.586949  0.217621  0.344051  1
  Tb  Tb6  1  0.411492  0.780191  0.357395  1
  Tb  Tb7  1  0.414487  0.215436  0.845783  1
  Tb  Tb8  1  0.213132  0.421436  0.647598  1
  Tb  Tb9  1  0.219809  0.588508  0.142605  1
  Tb  Tb10  1  0.782379  0.413051  0.155949  1
  Tb  Tb11  1  0.784564  0.585513  0.654217  1
  Tb  Tb12  1  0.913620  0.718271  0.151456  1
  Tb  Tb13  1  0.915749  0.286099  0.653578  1
  Tb  Tb14  1  0.090733  0.710746  0.650194  1
  Tb  Tb15  1  0.086469  0.282995  0.153308  1
  Sc  Sc16  1  0.998797  0.999879  0.501430  1
  Sc  Sc17  1  0.000121  0.001203  0.998570  1
  Sc  Sc18  1  0.500069  0.504755  0.000297  1
  Sc  Sc19  1  0.495245  0.499931  0.499703  1
  Si  Si20  1  0.846794  0.153206  0.250000  1
  Si  Si21  1  0.847460  0.845860  0.749003  1
  Si  Si22  1  0.154140  0.152540  0.750997  1
  Si  Si23  1  0.150091  0.849909  0.250000  1
  Si  Si24  1  0.653294  0.346706  0.750000  1
  Si  Si25  1  0.656283  0.652974  0.248158  1
  Si  Si26  1  0.347026  0.343717  0.251842  1
  Si  Si27  1  0.500366  0.002553  0.106950  1
  Si  Si28  1  0.499779  0.002063  0.575211  1
  Si  Si29  1  0.997937  0.500221  0.924789  1
  Si  Si30  1  0.997447  0.499634  0.393050  1
  Ir  Ir31  1  0.355317  0.644683  0.750000  1
