# generated using pymatgen
data_Tb3Pa(SnPd2)2
_symmetry_space_group_name_H-M   'P 1'
_cell_length_a   3.70042100
_cell_length_b   7.79119337
_cell_length_c   7.79119289
_cell_angle_alpha   91.44983789
_cell_angle_beta   90.00000000
_cell_angle_gamma   90.00000000
_symmetry_Int_Tables_number   1
_chemical_formula_structural   Tb3Pa(SnPd2)2
_chemical_formula_sum   'Tb3 Pa1 Sn2 Pd4'
_cell_volume   224.55359860
_cell_formula_units_Z   1
loop_
 _symmetry_equiv_pos_site_id
 _symmetry_equiv_pos_as_xyz
  1  'x, y, z'
loop_
 _atom_site_type_symbol
 _atom_site_label
 _atom_site_symmetry_multiplicity
 _atom_site_fract_x
 _atom_site_fract_y
 _atom_site_fract_z
 _atom_site_occupancy
  Tb  Tb0  1  0.500000  0.823564  0.323564  1
  Tb  Tb1  1  0.500000  0.328031  0.173863  1
  Tb  Tb2  1  0.500000  0.673863  0.828031  1
  Pa  Pa3  1  0.500000  0.170875  0.670875  1
  Sn  Sn4  1  0.000000  0.998538  0.004532  1
  Sn  Sn5  1  0.000000  0.504532  0.498538  1
  Pd  Pd6  1  0.000000  0.622600  0.122600  1
  Pd  Pd7  1  0.000000  0.362672  0.862672  1
  Pd  Pd8  1  0.000000  0.882636  0.632689  1
  Pd  Pd9  1  0.000000  0.132689  0.382636  1
