# generated using pymatgen
data_Tb2Er2TcOs7
_symmetry_space_group_name_H-M   'P 1'
_cell_length_a   5.30415810
_cell_length_b   5.30415826
_cell_length_c   8.82658911
_cell_angle_alpha   89.98412099
_cell_angle_beta   90.01587552
_cell_angle_gamma   118.76454464
_symmetry_Int_Tables_number   1
_chemical_formula_structural   Tb2Er2TcOs7
_chemical_formula_sum   'Tb2 Er2 Tc1 Os7'
_cell_volume   217.68553979
_cell_formula_units_Z   1
loop_
 _symmetry_equiv_pos_site_id
 _symmetry_equiv_pos_as_xyz
  1  'x, y, z'
loop_
 _atom_site_type_symbol
 _atom_site_label
 _atom_site_symmetry_multiplicity
 _atom_site_fract_x
 _atom_site_fract_y
 _atom_site_fract_z
 _atom_site_occupancy
  Tb  Tb0  1  0.331700  0.668300  0.435724  1
  Tb  Tb1  1  0.666368  0.333632  0.565671  1
  Er  Er2  1  0.666470  0.333530  0.934894  1
  Er  Er3  1  0.331470  0.668530  0.064030  1
  Tc  Tc4  1  0.830521  0.169479  0.248569  1
  Os  Os5  1  0.996395  0.003605  0.500068  1
  Os  Os6  1  0.996284  0.003716  0.999728  1
  Os  Os7  1  0.826945  0.652783  0.248023  1
  Os  Os8  1  0.347217  0.173055  0.248023  1
  Os  Os9  1  0.175867  0.824133  0.751625  1
  Os  Os10  1  0.171518  0.340756  0.751823  1
  Os  Os11  1  0.659244  0.828482  0.751823  1
