# generated using pymatgen
data_TbYbPaRh3
_symmetry_space_group_name_H-M   'P 1'
_cell_length_a   5.35980483
_cell_length_b   5.35980435
_cell_length_c   5.35980400
_cell_angle_alpha   65.77203643
_cell_angle_beta   65.77203876
_cell_angle_gamma   65.77204333
_symmetry_Int_Tables_number   1
_chemical_formula_structural   TbYbPaRh3
_chemical_formula_sum   'Tb1 Yb1 Pa1 Rh3'
_cell_volume   122.50429205
_cell_formula_units_Z   1
loop_
 _symmetry_equiv_pos_site_id
 _symmetry_equiv_pos_as_xyz
  1  'x, y, z'
loop_
 _atom_site_type_symbol
 _atom_site_label
 _atom_site_symmetry_multiplicity
 _atom_site_fract_x
 _atom_site_fract_y
 _atom_site_fract_z
 _atom_site_occupancy
  Tb  Tb0  1  0.503820  0.503820  0.503820  1
  Yb  Yb1  1  0.751502  0.751502  0.751502  1
  Pa  Pa2  1  0.122737  0.122737  0.122737  1
  Rh  Rh3  1  0.623797  0.124073  0.124073  1
  Rh  Rh4  1  0.124073  0.124073  0.623797  1
  Rh  Rh5  1  0.124073  0.623797  0.124073  1
