# generated using pymatgen
data_Ca2Ni12P5
_symmetry_space_group_name_H-M   'P 1'
_cell_length_a   3.63011400
_cell_length_b   10.89069971
_cell_length_c   13.23525287
_cell_angle_alpha   72.08934825
_cell_angle_beta   90.00000000
_cell_angle_gamma   90.00000000
_symmetry_Int_Tables_number   1
_chemical_formula_structural   Ca2Ni12P5
_chemical_formula_sum   'Ca4 Ni24 P10'
_cell_volume   497.89077957
_cell_formula_units_Z   2
loop_
 _symmetry_equiv_pos_site_id
 _symmetry_equiv_pos_as_xyz
  1  'x, y, z'
loop_
 _atom_site_type_symbol
 _atom_site_label
 _atom_site_symmetry_multiplicity
 _atom_site_fract_x
 _atom_site_fract_y
 _atom_site_fract_z
 _atom_site_occupancy
  Ca  Ca0  1  0.250000  0.745490  0.188274  1
  Ca  Ca1  1  0.750000  0.254510  0.811726  1
  Ca  Ca2  1  0.250000  0.780633  0.682721  1
  Ca  Ca3  1  0.750000  0.219367  0.317279  1
  Ni  Ni4  1  0.250000  0.573262  0.012953  1
  Ni  Ni5  1  0.250000  0.566739  0.448318  1
  Ni  Ni6  1  0.750000  0.506084  0.340640  1
  Ni  Ni7  1  0.250000  0.493916  0.659360  1
  Ni  Ni8  1  0.750000  0.511264  0.151206  1
  Ni  Ni9  1  0.250000  0.488736  0.848794  1
  Ni  Ni10  1  0.750000  0.433261  0.551682  1
  Ni  Ni11  1  0.250000  0.345112  0.135213  1
  Ni  Ni12  1  0.750000  0.656737  0.561351  1
  Ni  Ni13  1  0.250000  0.343263  0.438649  1
  Ni  Ni14  1  0.750000  0.903486  0.303927  1
  Ni  Ni15  1  0.250000  0.096514  0.696073  1
  Ni  Ni16  1  0.750000  0.916248  0.992982  1
  Ni  Ni17  1  0.250000  0.083752  0.007018  1
  Ni  Ni18  1  0.750000  0.922515  0.490111  1
  Ni  Ni19  1  0.250000  0.077485  0.509889  1
  Ni  Ni20  1  0.750000  0.937963  0.795874  1
  Ni  Ni21  1  0.250000  0.062037  0.204126  1
  Ni  Ni22  1  0.250000  0.788285  0.439615  1
  Ni  Ni23  1  0.750000  0.211715  0.560385  1
  Ni  Ni24  1  0.250000  0.799247  0.916129  1
  Ni  Ni25  1  0.750000  0.200753  0.083871  1
  Ni  Ni26  1  0.750000  0.654888  0.864787  1
  Ni  Ni27  1  0.750000  0.426738  0.987047  1
  P  P28  1  0.250000  0.009839  0.870628  1
  P  P29  1  0.750000  0.990161  0.129372  1
  P  P30  1  0.250000  0.298938  0.983484  1
  P  P31  1  0.750000  0.701062  0.016516  1
  P  P32  1  0.250000  0.446147  0.261374  1
  P  P33  1  0.750000  0.553853  0.738626  1
  P  P34  1  0.250000  0.995396  0.377811  1
  P  P35  1  0.750000  0.004604  0.622189  1
  P  P36  1  0.250000  0.310227  0.613425  1
  P  P37  1  0.750000  0.689773  0.386575  1
