# generated using pymatgen
data_Be8Tc3Mo
_symmetry_space_group_name_H-M   'P 1'
_cell_length_a   4.38329600
_cell_length_b   4.38329627
_cell_length_c   7.16033700
_cell_angle_alpha   90.00000000
_cell_angle_beta   90.00000000
_cell_angle_gamma   119.99999796
_symmetry_Int_Tables_number   1
_chemical_formula_structural   Be8Tc3Mo
_chemical_formula_sum   'Be8 Tc3 Mo1'
_cell_volume   119.14223106
_cell_formula_units_Z   1
loop_
 _symmetry_equiv_pos_site_id
 _symmetry_equiv_pos_as_xyz
  1  'x, y, z'
loop_
 _atom_site_type_symbol
 _atom_site_label
 _atom_site_symmetry_multiplicity
 _atom_site_fract_x
 _atom_site_fract_y
 _atom_site_fract_z
 _atom_site_occupancy
  Be  Be0  1  0.000000  0.000000  0.501725  1
  Be  Be1  1  0.000000  0.000000  0.999233  1
  Be  Be2  1  0.831202  0.168798  0.251909  1
  Be  Be3  1  0.831202  0.662403  0.251909  1
  Be  Be4  1  0.337597  0.168798  0.251909  1
  Be  Be5  1  0.168721  0.831279  0.748043  1
  Be  Be6  1  0.168721  0.337442  0.748043  1
  Be  Be7  1  0.662558  0.831279  0.748043  1
  Tc  Tc8  1  0.333333  0.666667  0.437875  1
  Tc  Tc9  1  0.666667  0.333333  0.561856  1
  Tc  Tc10  1  0.666667  0.333333  0.937828  1
  Mo  Mo11  1  0.333333  0.666667  0.061625  1
