# generated using pymatgen
data_Dy7LuTi11Si16Hg
_symmetry_space_group_name_H-M   'P 1'
_cell_length_a   7.07702851
_cell_length_b   7.07425084
_cell_length_c   12.91620273
_cell_angle_alpha   89.92468728
_cell_angle_beta   90.10836435
_cell_angle_gamma   89.60680362
_symmetry_Int_Tables_number   1
_chemical_formula_structural   Dy7LuTi11Si16Hg
_chemical_formula_sum   'Dy7 Lu1 Ti11 Si16 Hg1'
_cell_volume   646.62853709
_cell_formula_units_Z   1
loop_
 _symmetry_equiv_pos_site_id
 _symmetry_equiv_pos_as_xyz
  1  'x, y, z'
loop_
 _atom_site_type_symbol
 _atom_site_label
 _atom_site_symmetry_multiplicity
 _atom_site_fract_x
 _atom_site_fract_y
 _atom_site_fract_z
 _atom_site_occupancy
  Dy  Dy0  1  0.998894  0.342689  0.531499  1
  Dy  Dy1  1  0.659381  0.998235  0.967147  1
  Dy  Dy2  1  0.159442  0.502743  0.784340  1
  Dy  Dy3  1  0.843091  0.498121  0.284808  1
  Dy  Dy4  1  0.502697  0.159839  0.215495  1
  Dy  Dy5  1  0.498177  0.842882  0.715152  1
  Dy  Dy6  1  0.342760  0.998965  0.468372  1
  Lu  Lu7  1  0.999962  0.658398  0.033232  1
  Ti  Ti8  1  0.349364  0.504628  0.376397  1
  Ti  Ti9  1  0.853032  0.990464  0.376571  1
  Ti  Ti10  1  0.009133  0.149673  0.125309  1
  Ti  Ti11  1  0.990208  0.852572  0.623090  1
  Ti  Ti12  1  0.503841  0.349620  0.623275  1
  Ti  Ti13  1  0.149472  0.008992  0.875043  1
  Ti  Ti14  1  0.826289  0.173650  0.750947  1
  Ti  Ti15  1  0.173794  0.825463  0.248976  1
  Ti  Ti16  1  0.327504  0.327901  0.999919  1
  Ti  Ti17  1  0.493224  0.649178  0.123896  1
  Ti  Ti18  1  0.649518  0.494583  0.876708  1
  Si  Si19  1  0.066901  0.713784  0.432404  1
  Si  Si20  1  0.952951  0.292589  0.936659  1
  Si  Si21  1  0.713549  0.067010  0.567562  1
  Si  Si22  1  0.208936  0.454203  0.184552  1
  Si  Si23  1  0.793170  0.541381  0.694969  1
  Si  Si24  1  0.453889  0.210191  0.814636  1
  Si  Si25  1  0.541944  0.793514  0.305010  1
  Si  Si26  1  0.289661  0.951204  0.063914  1
  Si  Si27  1  0.800042  0.866514  0.182987  1
  Si  Si28  1  0.274459  0.625674  0.572767  1
  Si  Si29  1  0.708058  0.370485  0.067647  1
  Si  Si30  1  0.625613  0.274758  0.427123  1
  Si  Si31  1  0.367301  0.706000  0.933095  1
  Si  Si32  1  0.132885  0.201233  0.316496  1
  Si  Si33  1  0.201052  0.132790  0.683473  1
  Si  Si34  1  0.867936  0.798088  0.816612  1
  Hg  Hg35  1  0.671872  0.671986  0.499918  1
