# generated using pymatgen
data_Ba2Zr6CBr17
_symmetry_space_group_name_H-M   'P 1'
_cell_length_a   10.20834776
_cell_length_b   10.20836072
_cell_length_c   10.20833988
_cell_angle_alpha   105.19002776
_cell_angle_beta   118.42126773
_cell_angle_gamma   105.19041545
_symmetry_Int_Tables_number   1
_chemical_formula_structural   Ba2Zr6CBr17
_chemical_formula_sum   'Ba2 Zr6 C1 Br17'
_cell_volume   803.72895301
_cell_formula_units_Z   1
loop_
 _symmetry_equiv_pos_site_id
 _symmetry_equiv_pos_as_xyz
  1  'x, y, z'
loop_
 _atom_site_type_symbol
 _atom_site_label
 _atom_site_symmetry_multiplicity
 _atom_site_fract_x
 _atom_site_fract_y
 _atom_site_fract_z
 _atom_site_occupancy
  Ba  Ba0  1  0.750001  0.500001  0.250001  1
  Ba  Ba1  1  0.249999  0.500001  0.749999  1
  Zr  Zr2  1  0.174972  0.234300  0.059327  1
  Zr  Zr3  1  0.940671  0.115644  0.174971  1
  Zr  Zr4  1  0.221255  0.000000  0.221255  1
  Zr  Zr5  1  0.778745  0.000000  0.778745  1
  Zr  Zr6  1  0.059328  0.884356  0.825028  1
  Zr  Zr7  1  0.825028  0.765700  0.940672  1
  C  C8  1  0.000000  0.000000  0.000000  1
  Br  Br9  1  0.326554  0.865677  0.049590  1
  Br  Br10  1  0.401215  0.530995  0.129779  1
  Br  Br11  1  0.725301  0.860563  0.135265  1
  Br  Br12  1  0.049589  0.723035  0.183913  1
  Br  Br13  1  0.135264  0.409963  0.274699  1
  Br  Br14  1  0.460878  0.276966  0.326555  1
  Br  Br15  1  0.870218  0.271433  0.401215  1
  Br  Br16  1  0.183913  0.134323  0.460878  1
  Br  Br17  1  0.500000  0.000000  0.500000  1
  Br  Br18  1  0.816088  0.865677  0.539123  1
  Br  Br19  1  0.129781  0.728567  0.598785  1
  Br  Br20  1  0.539123  0.723035  0.673447  1
  Br  Br21  1  0.864735  0.590035  0.725300  1
  Br  Br22  1  0.950411  0.276966  0.816087  1
  Br  Br23  1  0.274700  0.139436  0.864734  1
  Br  Br24  1  0.598784  0.469004  0.870220  1
  Br  Br25  1  0.673446  0.134323  0.950410  1
