# generated using pymatgen
data_HoU(FeSi)2
_symmetry_space_group_name_H-M   'P 1'
_cell_length_a   4.24371500
_cell_length_b   7.00081406
_cell_length_c   6.77268606
_cell_angle_alpha   95.07894129
_cell_angle_beta   90.00000000
_cell_angle_gamma   90.00000000
_symmetry_Int_Tables_number   1
_chemical_formula_structural   HoU(FeSi)2
_chemical_formula_sum   'Ho2 U2 Fe4 Si4'
_cell_volume   200.42281518
_cell_formula_units_Z   2
loop_
 _symmetry_equiv_pos_site_id
 _symmetry_equiv_pos_as_xyz
  1  'x, y, z'
loop_
 _atom_site_type_symbol
 _atom_site_label
 _atom_site_symmetry_multiplicity
 _atom_site_fract_x
 _atom_site_fract_y
 _atom_site_fract_z
 _atom_site_occupancy
  Ho  Ho0  1  0.250000  0.976837  0.278094  1
  Ho  Ho1  1  0.750000  0.023163  0.721906  1
  U  U2  1  0.250000  0.483304  0.196447  1
  U  U3  1  0.750000  0.516696  0.803553  1
  Fe  Fe4  1  0.750000  0.737997  0.044825  1
  Fe  Fe5  1  0.250000  0.262003  0.955175  1
  Fe  Fe6  1  0.750000  0.365832  0.461542  1
  Fe  Fe7  1  0.250000  0.634168  0.538458  1
  Si  Si8  1  0.250000  0.798072  0.886213  1
  Si  Si9  1  0.750000  0.201928  0.113787  1
  Si  Si10  1  0.250000  0.297107  0.598394  1
  Si  Si11  1  0.750000  0.702893  0.401606  1
