# generated using pymatgen
data_Yb2Tm2PtRh3O14
_symmetry_space_group_name_H-M   'P 1'
_cell_length_a   7.20667602
_cell_length_b   7.17204047
_cell_length_c   7.18765336
_cell_angle_alpha   60.07183528
_cell_angle_beta   60.11532494
_cell_angle_gamma   60.15885605
_symmetry_Int_Tables_number   1
_chemical_formula_structural   Yb2Tm2PtRh3O14
_chemical_formula_sum   'Yb2 Tm2 Pt1 Rh3 O14'
_cell_volume   263.37996560
_cell_formula_units_Z   1
loop_
 _symmetry_equiv_pos_site_id
 _symmetry_equiv_pos_as_xyz
  1  'x, y, z'
loop_
 _atom_site_type_symbol
 _atom_site_label
 _atom_site_symmetry_multiplicity
 _atom_site_fract_x
 _atom_site_fract_y
 _atom_site_fract_z
 _atom_site_occupancy
  Yb  Yb0  1  0.625000  0.625000  0.125000  1
  Yb  Yb1  1  0.125000  0.625000  0.625000  1
  Tm  Tm2  1  0.625000  0.625000  0.625000  1
  Tm  Tm3  1  0.625000  0.125000  0.625000  1
  Pt  Pt4  1  0.125000  0.125000  0.625000  1
  Rh  Rh5  1  0.125000  0.125000  0.125000  1
  Rh  Rh6  1  0.625000  0.125000  0.125000  1
  Rh  Rh7  1  0.125000  0.625000  0.125000  1
  O  O8  1  0.031503  0.460434  0.460118  1
  O  O9  1  0.793164  0.794203  0.213006  1
  O  O10  1  0.793164  0.199627  0.213006  1
  O  O11  1  0.461989  0.038217  0.461577  1
  O  O12  1  0.031503  0.047945  0.460118  1
  O  O13  1  0.044124  0.453962  0.047952  1
  O  O14  1  0.742808  0.756898  0.743395  1
  O  O15  1  0.507192  0.493102  0.506605  1
  O  O16  1  0.788011  0.211783  0.788423  1
  O  O17  1  0.205876  0.796038  0.202048  1
  O  O18  1  0.218497  0.202055  0.789882  1
  O  O19  1  0.456836  0.050373  0.036994  1
  O  O20  1  0.456836  0.455797  0.036994  1
  O  O21  1  0.218497  0.789566  0.789882  1
