# generated using pymatgen
data_Sc10Ga2SnBi3
_symmetry_space_group_name_H-M   'P 1'
_cell_length_a   8.41859058
_cell_length_b   8.43982765
_cell_length_c   6.07494900
_cell_angle_alpha   90.00000000
_cell_angle_beta   90.00000000
_cell_angle_gamma   120.07003727
_symmetry_Int_Tables_number   1
_chemical_formula_structural   Sc10Ga2SnBi3
_chemical_formula_sum   'Sc10 Ga2 Sn1 Bi3'
_cell_volume   373.54188161
_cell_formula_units_Z   1
loop_
 _symmetry_equiv_pos_site_id
 _symmetry_equiv_pos_as_xyz
  1  'x, y, z'
loop_
 _atom_site_type_symbol
 _atom_site_label
 _atom_site_symmetry_multiplicity
 _atom_site_fract_x
 _atom_site_fract_y
 _atom_site_fract_z
 _atom_site_occupancy
  Sc  Sc0  1  0.332570  0.668668  0.002573  1
  Sc  Sc1  1  0.647313  0.324992  0.497662  1
  Sc  Sc2  1  0.647313  0.324992  0.002338  1
  Sc  Sc3  1  0.332570  0.668668  0.497427  1
  Sc  Sc4  1  0.239042  0.011260  0.250000  1
  Sc  Sc5  1  0.242261  0.224537  0.750000  1
  Sc  Sc6  1  0.018168  0.776440  0.750000  1
  Sc  Sc7  1  0.019508  0.244744  0.250000  1
  Sc  Sc8  1  0.759091  0.753091  0.250000  1
  Sc  Sc9  1  0.754853  0.999432  0.750000  1
  Ga  Ga10  1  0.394559  0.398602  0.250000  1
  Ga  Ga11  1  0.396380  0.997198  0.750000  1
  Sn  Sn12  1  0.996996  0.606276  0.250000  1
  Bi  Bi13  1  0.613047  0.002028  0.250000  1
  Bi  Bi14  1  0.609020  0.608890  0.750000  1
  Bi  Bi15  1  0.997309  0.390182  0.750000  1
