# generated using pymatgen
data_Y6Ho10Cd4IrPd3
_symmetry_space_group_name_H-M   'P 1'
_cell_length_a   9.67952667
_cell_length_b   9.65817474
_cell_length_c   9.65817400
_cell_angle_alpha   59.99999569
_cell_angle_beta   60.07293902
_cell_angle_gamma   60.07294719
_symmetry_Int_Tables_number   1
_chemical_formula_structural   Y6Ho10Cd4IrPd3
_chemical_formula_sum   'Y6 Ho10 Cd4 Ir1 Pd3'
_cell_volume   639.15639505
_cell_formula_units_Z   1
loop_
 _symmetry_equiv_pos_site_id
 _symmetry_equiv_pos_as_xyz
  1  'x, y, z'
loop_
 _atom_site_type_symbol
 _atom_site_label
 _atom_site_symmetry_multiplicity
 _atom_site_fract_x
 _atom_site_fract_y
 _atom_site_fract_z
 _atom_site_occupancy
  Y  Y0  1  0.933869  0.566139  0.566139  1
  Y  Y1  1  0.567292  0.934871  0.934871  1
  Y  Y2  1  0.567292  0.934871  0.562967  1
  Y  Y3  1  0.933869  0.566139  0.933853  1
  Y  Y4  1  0.567292  0.562967  0.934871  1
  Y  Y5  1  0.933869  0.933853  0.566139  1
  Ho  Ho6  1  0.356043  0.349378  0.349378  1
  Ho  Ho7  1  0.356043  0.349378  0.945202  1
  Ho  Ho8  1  0.356043  0.945202  0.349378  1
  Ho  Ho9  1  0.937746  0.354085  0.354085  1
  Ho  Ho10  1  0.807670  0.188028  0.188028  1
  Ho  Ho11  1  0.189471  0.810918  0.810918  1
  Ho  Ho12  1  0.189471  0.810918  0.188694  1
  Ho  Ho13  1  0.807670  0.188028  0.816272  1
  Ho  Ho14  1  0.189471  0.188694  0.810918  1
  Ho  Ho15  1  0.807670  0.816272  0.188028  1
  Cd  Cd16  1  0.581678  0.581962  0.581962  1
  Cd  Cd17  1  0.581678  0.581962  0.254400  1
  Cd  Cd18  1  0.581678  0.254400  0.581962  1
  Cd  Cd19  1  0.255448  0.581518  0.581518  1
  Ir  Ir20  1  0.571011  0.142997  0.142997  1
  Pd  Pd21  1  0.142577  0.144439  0.144439  1
  Pd  Pd22  1  0.142577  0.144439  0.568545  1
  Pd  Pd23  1  0.142577  0.568545  0.144439  1
