# generated using pymatgen
data_Y2ThScAl2Ir3
_symmetry_space_group_name_H-M   'P 1'
_cell_length_a   7.17864455
_cell_length_b   7.20547104
_cell_length_c   4.11033100
_cell_angle_alpha   90.00000000
_cell_angle_beta   90.00000000
_cell_angle_gamma   118.68084123
_symmetry_Int_Tables_number   1
_chemical_formula_structural   Y2ThScAl2Ir3
_chemical_formula_sum   'Y2 Th1 Sc1 Al2 Ir3'
_cell_volume   186.52328970
_cell_formula_units_Z   1
loop_
 _symmetry_equiv_pos_site_id
 _symmetry_equiv_pos_as_xyz
  1  'x, y, z'
loop_
 _atom_site_type_symbol
 _atom_site_label
 _atom_site_symmetry_multiplicity
 _atom_site_fract_x
 _atom_site_fract_y
 _atom_site_fract_z
 _atom_site_occupancy
  Y  Y0  1  0.397079  0.997668  0.500000  1
  Y  Y1  1  0.012833  0.430771  0.500000  1
  Th  Th2  1  0.575196  0.567075  0.500000  1
  Sc  Sc3  1  0.767254  0.012897  0.000000  1
  Al  Al4  1  0.006390  0.757639  0.000000  1
  Al  Al5  1  0.232310  0.231629  0.000000  1
  Ir  Ir6  1  0.343169  0.664694  0.000000  1
  Ir  Ir7  1  0.664643  0.344244  0.000000  1
  Ir  Ir8  1  0.001126  0.993383  0.500000  1
