# generated using pymatgen
data_K7La(USe5)2
_symmetry_space_group_name_H-M   'P 1'
_cell_length_a   8.03112091
_cell_length_b   12.01830020
_cell_length_c   7.77175100
_cell_angle_alpha   102.01473359
_cell_angle_beta   100.47554528
_cell_angle_gamma   109.93379640
_symmetry_Int_Tables_number   1
_chemical_formula_structural   K7La(USe5)2
_chemical_formula_sum   'K7 La1 U2 Se10'
_cell_volume   663.16484592
_cell_formula_units_Z   1
loop_
 _symmetry_equiv_pos_site_id
 _symmetry_equiv_pos_as_xyz
  1  'x, y, z'
loop_
 _atom_site_type_symbol
 _atom_site_label
 _atom_site_symmetry_multiplicity
 _atom_site_fract_x
 _atom_site_fract_y
 _atom_site_fract_z
 _atom_site_occupancy
  K  K0  1  0.000025  0.499844  0.000114  1
  K  K1  1  0.415811  0.904543  0.203241  1
  K  K2  1  0.594764  0.593732  0.294178  1
  K  K3  1  0.792357  0.302976  0.418534  1
  K  K4  1  0.207710  0.696961  0.581144  1
  K  K5  1  0.404882  0.405920  0.705673  1
  K  K6  1  0.584469  0.095958  0.796891  1
  La  La7  1  0.000180  0.000207  0.500092  1
  U  U8  1  0.192374  0.198115  0.101146  1
  U  U9  1  0.807452  0.801694  0.898761  1
  Se  Se10  1  0.526160  0.314807  0.060174  1
  Se  Se11  1  0.843081  0.037781  0.137638  1
  Se  Se12  1  0.987284  0.774620  0.223385  1
  Se  Se13  1  0.178847  0.403143  0.308691  1
  Se  Se14  1  0.348022  0.144403  0.411952  1
  Se  Se15  1  0.652203  0.855793  0.588147  1
  Se  Se16  1  0.821100  0.596618  0.691297  1
  Se  Se17  1  0.012752  0.225546  0.776730  1
  Se  Se18  1  0.156871  0.962271  0.862362  1
  Se  Se19  1  0.473658  0.685065  0.939851  1
