# generated using pymatgen
data_CaNd6ReBr12
_symmetry_space_group_name_H-M   'P 1'
_cell_length_a   9.64550813
_cell_length_b   9.66073485
_cell_length_c   9.67858992
_cell_angle_alpha   107.20336807
_cell_angle_beta   107.10691103
_cell_angle_gamma   107.16270798
_symmetry_Int_Tables_number   1
_chemical_formula_structural   CaNd6ReBr12
_chemical_formula_sum   'Ca1 Nd6 Re1 Br12'
_cell_volume   747.83762479
_cell_formula_units_Z   1
loop_
 _symmetry_equiv_pos_site_id
 _symmetry_equiv_pos_as_xyz
  1  'x, y, z'
loop_
 _atom_site_type_symbol
 _atom_site_label
 _atom_site_symmetry_multiplicity
 _atom_site_fract_x
 _atom_site_fract_y
 _atom_site_fract_z
 _atom_site_occupancy
  Ca  Ca0  1  0.500000  0.500000  0.500000  1
  Nd  Nd1  1  0.313274  0.106625  0.026363  1
  Nd  Nd2  1  0.026302  0.313787  0.106879  1
  Nd  Nd3  1  0.107230  0.026500  0.314452  1
  Nd  Nd4  1  0.892770  0.973500  0.685549  1
  Nd  Nd5  1  0.973698  0.686214  0.893122  1
  Nd  Nd6  1  0.686727  0.893375  0.973638  1
  Re  Re7  1  0.000000  0.000000  0.000000  1
  Br  Br8  1  0.686545  0.216301  0.069536  1
  Br  Br9  1  0.376535  0.455771  0.166977  1
  Br  Br10  1  0.069742  0.686340  0.216981  1
  Br  Br11  1  0.784280  0.930599  0.314033  1
  Br  Br12  1  0.455898  0.167318  0.377846  1
  Br  Br13  1  0.168129  0.377581  0.456911  1
  Br  Br14  1  0.831871  0.622420  0.543089  1
  Br  Br15  1  0.544102  0.832683  0.622154  1
  Br  Br16  1  0.215721  0.069402  0.685967  1
  Br  Br17  1  0.930258  0.313660  0.783020  1
  Br  Br18  1  0.623466  0.544229  0.833023  1
  Br  Br19  1  0.313456  0.783699  0.930464  1
