# generated using pymatgen
data_Tb6Dy3Ho(CoBi2)2
_symmetry_space_group_name_H-M   'P 1'
_cell_length_a   8.04468435
_cell_length_b   8.89818425
_cell_length_c   12.46300263
_cell_angle_alpha   90.02133019
_cell_angle_beta   89.97058094
_cell_angle_gamma   89.98283150
_symmetry_Int_Tables_number   1
_chemical_formula_structural   Tb6Dy3Ho(CoBi2)2
_chemical_formula_sum   'Tb12 Dy6 Ho2 Co4 Bi8'
_cell_volume   892.13994017
_cell_formula_units_Z   2
loop_
 _symmetry_equiv_pos_site_id
 _symmetry_equiv_pos_as_xyz
  1  'x, y, z'
loop_
 _atom_site_type_symbol
 _atom_site_label
 _atom_site_symmetry_multiplicity
 _atom_site_fract_x
 _atom_site_fract_y
 _atom_site_fract_z
 _atom_site_occupancy
  Tb  Tb0  1  0.848638  0.749924  0.801875  1
  Tb  Tb1  1  0.151362  0.250076  0.198125  1
  Tb  Tb2  1  0.348464  0.250028  0.698248  1
  Tb  Tb3  1  0.651536  0.749972  0.301752  1
  Tb  Tb4  1  0.379515  0.750007  0.689525  1
  Tb  Tb5  1  0.620485  0.249993  0.310475  1
  Tb  Tb6  1  0.879611  0.250148  0.810645  1
  Tb  Tb7  1  0.120389  0.749852  0.189355  1
  Tb  Tb8  1  0.954159  0.750003  0.502454  1
  Tb  Tb9  1  0.045841  0.249997  0.497546  1
  Tb  Tb10  1  0.454100  0.250106  0.997532  1
  Tb  Tb11  1  0.545900  0.749894  0.002468  1
  Dy  Dy12  1  0.675886  0.033866  0.562669  1
  Dy  Dy13  1  0.324114  0.966134  0.437331  1
  Dy  Dy14  1  0.175823  0.966156  0.937351  1
  Dy  Dy15  1  0.324117  0.533868  0.437328  1
  Dy  Dy16  1  0.824177  0.033844  0.062649  1
  Dy  Dy17  1  0.675883  0.466132  0.562672  1
  Ho  Ho18  1  0.824848  0.466141  0.062562  1
  Ho  Ho19  1  0.175152  0.533859  0.937438  1
  Co  Co20  1  0.558850  0.750001  0.507911  1
  Co  Co21  1  0.441150  0.249999  0.492089  1
  Co  Co22  1  0.058720  0.250338  0.992155  1
  Co  Co23  1  0.941280  0.749662  0.007845  1
  Bi  Bi24  1  0.569959  0.492445  0.825746  1
  Bi  Bi25  1  0.430041  0.507555  0.174254  1
  Bi  Bi26  1  0.070215  0.507580  0.674393  1
  Bi  Bi27  1  0.429840  0.992417  0.174323  1
  Bi  Bi28  1  0.929785  0.492420  0.325607  1
  Bi  Bi29  1  0.570160  0.007583  0.825677  1
  Bi  Bi30  1  0.929836  0.007587  0.325667  1
  Bi  Bi31  1  0.070164  0.992413  0.674333  1
