# generated using pymatgen
data_CePrCo9P6Ru
_symmetry_space_group_name_H-M   'P 1'
_cell_length_a   3.71780800
_cell_length_b   10.48847600
_cell_length_c   11.83933800
_cell_angle_alpha   90.00000000
_cell_angle_beta   90.00000000
_cell_angle_gamma   90.00000000
_symmetry_Int_Tables_number   1
_chemical_formula_structural   CePrCo9P6Ru
_chemical_formula_sum   'Ce2 Pr2 Co18 P12 Ru2'
_cell_volume   461.66480325
_cell_formula_units_Z   2
loop_
 _symmetry_equiv_pos_site_id
 _symmetry_equiv_pos_as_xyz
  1  'x, y, z'
loop_
 _atom_site_type_symbol
 _atom_site_label
 _atom_site_symmetry_multiplicity
 _atom_site_fract_x
 _atom_site_fract_y
 _atom_site_fract_z
 _atom_site_occupancy
  Ce  Ce0  1  0.750000  0.413312  0.296793  1
  Ce  Ce1  1  0.750000  0.086688  0.796793  1
  Pr  Pr2  1  0.250000  0.582715  0.701431  1
  Pr  Pr3  1  0.250000  0.917285  0.201431  1
  Co  Co4  1  0.750000  0.284603  0.009323  1
  Co  Co5  1  0.750000  0.215397  0.509323  1
  Co  Co6  1  0.250000  0.404218  0.485520  1
  Co  Co7  1  0.250000  0.095782  0.985520  1
  Co  Co8  1  0.750000  0.590198  0.505934  1
  Co  Co9  1  0.750000  0.909802  0.005934  1
  Co  Co10  1  0.250000  0.221168  0.175827  1
  Co  Co11  1  0.250000  0.278832  0.675827  1
  Co  Co12  1  0.750000  0.779476  0.824011  1
  Co  Co13  1  0.750000  0.720524  0.324011  1
  Co  Co14  1  0.250000  0.890353  0.701944  1
  Co  Co15  1  0.250000  0.609647  0.201944  1
  Co  Co16  1  0.750000  0.119033  0.302626  1
  Co  Co17  1  0.750000  0.380967  0.802626  1
  Co  Co18  1  0.250000  0.465254  0.932999  1
  Co  Co19  1  0.250000  0.034746  0.432999  1
  Co  Co20  1  0.750000  0.530322  0.070110  1
  Co  Co21  1  0.750000  0.969678  0.570110  1
  P  P22  1  0.250000  0.415649  0.109798  1
  P  P23  1  0.250000  0.084351  0.609798  1
  P  P24  1  0.750000  0.579116  0.890282  1
  P  P25  1  0.750000  0.920884  0.390282  1
  P  P26  1  0.250000  0.275441  0.869044  1
  P  P27  1  0.250000  0.224559  0.369044  1
  P  P28  1  0.750000  0.722546  0.132610  1
  P  P29  1  0.750000  0.777454  0.632610  1
  P  P30  1  0.250000  0.598998  0.391769  1
  P  P31  1  0.250000  0.901002  0.891769  1
  P  P32  1  0.750000  0.392990  0.606794  1
  P  P33  1  0.750000  0.107010  0.106794  1
  Ru  Ru34  1  0.250000  0.714024  0.993184  1
  Ru  Ru35  1  0.250000  0.785976  0.493184  1
