# generated using pymatgen
data_Ga3Ag4RhO8
_symmetry_space_group_name_H-M   'P 1'
_cell_length_a   5.30484946
_cell_length_b   6.12189746
_cell_length_c   7.22562104
_cell_angle_alpha   64.80968919
_cell_angle_beta   104.28403081
_cell_angle_gamma   90.00684296
_symmetry_Int_Tables_number   1
_chemical_formula_structural   Ga3Ag4RhO8
_chemical_formula_sum   'Ga3 Ag4 Rh1 O8'
_cell_volume   204.29919691
_cell_formula_units_Z   1
loop_
 _symmetry_equiv_pos_site_id
 _symmetry_equiv_pos_as_xyz
  1  'x, y, z'
loop_
 _atom_site_type_symbol
 _atom_site_label
 _atom_site_symmetry_multiplicity
 _atom_site_fract_x
 _atom_site_fract_y
 _atom_site_fract_z
 _atom_site_occupancy
  Ga  Ga0  1  0.000008  0.002067  0.499997  1
  Ga  Ga1  1  0.500008  0.249993  0.500003  1
  Ga  Ga2  1  0.000014  0.498012  0.499990  1
  Ag  Ag3  1  0.998752  0.000093  0.999619  1
  Ag  Ag4  1  0.499948  0.249962  0.000007  1
  Ag  Ag5  1  0.001212  0.499928  0.000356  1
  Ag  Ag6  1  0.500021  0.749970  0.000007  1
  Rh  Rh7  1  0.500008  0.749966  0.500016  1
  O  O8  1  0.893558  0.669144  0.661103  1
  O  O9  1  0.384375  0.923457  0.660742  1
  O  O10  1  0.886578  0.169387  0.660557  1
  O  O11  1  0.384338  0.414928  0.660781  1
  O  O12  1  0.106456  0.830919  0.338895  1
  O  O13  1  0.615654  0.084986  0.339244  1
  O  O14  1  0.113438  0.330694  0.339415  1
  O  O15  1  0.615636  0.576495  0.339269  1
