# generated using pymatgen
data_TbPr5Al24(Ru3Rh)2
_symmetry_space_group_name_H-M   'P 1'
_cell_length_a   8.90612600
_cell_length_b   8.90614214
_cell_length_c   9.68813800
_cell_angle_alpha   90.00000000
_cell_angle_beta   90.00000000
_cell_angle_gamma   119.99994006
_symmetry_Int_Tables_number   1
_chemical_formula_structural   TbPr5Al24(Ru3Rh)2
_chemical_formula_sum   'Tb1 Pr5 Al24 Ru6 Rh2'
_cell_volume   665.50246347
_cell_formula_units_Z   1
loop_
 _symmetry_equiv_pos_site_id
 _symmetry_equiv_pos_as_xyz
  1  'x, y, z'
loop_
 _atom_site_type_symbol
 _atom_site_label
 _atom_site_symmetry_multiplicity
 _atom_site_fract_x
 _atom_site_fract_y
 _atom_site_fract_z
 _atom_site_occupancy
  Tb  Tb0  1  0.193770  0.387539  0.250000  1
  Pr  Pr1  1  0.807429  0.614858  0.750000  1
  Pr  Pr2  1  0.616905  0.806147  0.250000  1
  Pr  Pr3  1  0.382851  0.193607  0.750000  1
  Pr  Pr4  1  0.189243  0.806147  0.250000  1
  Pr  Pr5  1  0.810755  0.193607  0.750000  1
  Al  Al6  1  0.331789  0.663580  0.013531  1
  Al  Al7  1  0.667368  0.334734  0.989426  1
  Al  Al8  1  0.667368  0.334734  0.510574  1
  Al  Al9  1  0.331789  0.663580  0.486469  1
  Al  Al10  1  0.163340  0.326680  0.573739  1
  Al  Al11  1  0.836561  0.673122  0.423044  1
  Al  Al12  1  0.674331  0.835872  0.575696  1
  Al  Al13  1  0.836561  0.673122  0.076956  1
  Al  Al14  1  0.324409  0.165163  0.422592  1
  Al  Al15  1  0.163340  0.326680  0.926261  1
  Al  Al16  1  0.161542  0.835872  0.575696  1
  Al  Al17  1  0.324409  0.165163  0.077408  1
  Al  Al18  1  0.840753  0.165163  0.422592  1
  Al  Al19  1  0.674331  0.835872  0.924304  1
  Al  Al20  1  0.840753  0.165163  0.077408  1
  Al  Al21  1  0.161542  0.835872  0.924304  1
  Al  Al22  1  0.562468  0.124934  0.250000  1
  Al  Al23  1  0.437541  0.875083  0.750000  1
  Al  Al24  1  0.875894  0.435714  0.250000  1
  Al  Al25  1  0.126559  0.563413  0.750000  1
  Al  Al26  1  0.559820  0.435714  0.250000  1
  Al  Al27  1  0.436854  0.563413  0.750000  1
  Al  Al28  1  0.001593  0.003186  0.250000  1
  Al  Al29  1  0.000304  0.000609  0.750000  1
  Ru  Ru30  1  0.000900  0.499222  0.001299  1
  Ru  Ru31  1  0.498322  0.499222  0.001299  1
  Ru  Ru32  1  0.000900  0.499222  0.498701  1
  Ru  Ru33  1  0.498322  0.499222  0.498701  1
  Ru  Ru34  1  0.000020  0.000040  0.000318  1
  Ru  Ru35  1  0.000020  0.000040  0.499682  1
  Rh  Rh36  1  0.499672  0.999344  0.000406  1
  Rh  Rh37  1  0.499672  0.999344  0.499594  1
