# generated using pymatgen
data_YEr4Lu7Co4
_symmetry_space_group_name_H-M   'P 1'
_cell_length_a   6.14205563
_cell_length_b   6.87177400
_cell_length_c   9.17525848
_cell_angle_alpha   90.00894711
_cell_angle_beta   90.12356489
_cell_angle_gamma   90.08288315
_symmetry_Int_Tables_number   1
_chemical_formula_structural   YEr4Lu7Co4
_chemical_formula_sum   'Y1 Er4 Lu7 Co4'
_cell_volume   387.25715613
_cell_formula_units_Z   1
loop_
 _symmetry_equiv_pos_site_id
 _symmetry_equiv_pos_as_xyz
  1  'x, y, z'
loop_
 _atom_site_type_symbol
 _atom_site_label
 _atom_site_symmetry_multiplicity
 _atom_site_fract_x
 _atom_site_fract_y
 _atom_site_fract_z
 _atom_site_occupancy
  Y  Y0  1  0.323198  0.676307  0.065198  1
  Er  Er1  1  0.864520  0.540091  0.251206  1
  Er  Er2  1  0.635820  0.041922  0.250517  1
  Er  Er3  1  0.133955  0.458347  0.748766  1
  Er  Er4  1  0.366239  0.959472  0.748843  1
  Lu  Lu5  1  0.176663  0.175853  0.433150  1
  Lu  Lu6  1  0.676257  0.324142  0.566701  1
  Lu  Lu7  1  0.823979  0.824816  0.932303  1
  Lu  Lu8  1  0.677156  0.323401  0.932734  1
  Lu  Lu9  1  0.824166  0.824432  0.566497  1
  Lu  Lu10  1  0.324155  0.675808  0.434836  1
  Lu  Lu11  1  0.175533  0.175633  0.066721  1
  Co  Co12  1  0.045123  0.889068  0.252012  1
  Co  Co13  1  0.452680  0.386302  0.251724  1
  Co  Co14  1  0.952796  0.112220  0.750228  1
  Co  Co15  1  0.547762  0.612188  0.748567  1
