# generated using pymatgen
data_Tm9Lu3(ThPb2)8
_symmetry_space_group_name_H-M   'P 1'
_cell_length_a   8.23636500
_cell_length_b   8.36793902
_cell_length_c   15.71973400
_cell_angle_alpha   90.00000000
_cell_angle_beta   90.00000000
_cell_angle_gamma   90.12215849
_symmetry_Int_Tables_number   1
_chemical_formula_structural   Tm9Lu3(ThPb2)8
_chemical_formula_sum   'Tm9 Lu3 Th8 Pb16'
_cell_volume   1083.42361337
_cell_formula_units_Z   1
loop_
 _symmetry_equiv_pos_site_id
 _symmetry_equiv_pos_as_xyz
  1  'x, y, z'
loop_
 _atom_site_type_symbol
 _atom_site_label
 _atom_site_symmetry_multiplicity
 _atom_site_fract_x
 _atom_site_fract_y
 _atom_site_fract_z
 _atom_site_occupancy
  Tm  Tm0  1  0.645010  0.156875  0.624916  1
  Tm  Tm1  1  0.144977  0.343028  0.875181  1
  Tm  Tm2  1  0.354853  0.843031  0.124735  1
  Tm  Tm3  1  0.855258  0.657122  0.375260  1
  Tm  Tm4  1  0.354853  0.843031  0.375265  1
  Tm  Tm5  1  0.855258  0.657122  0.124740  1
  Tm  Tm6  1  0.645010  0.156875  0.875084  1
  Tm  Tm7  1  0.144977  0.343028  0.624819  1
  Tm  Tm8  1  0.687660  0.000689  0.250000  1
  Lu  Lu9  1  0.812171  0.500339  0.750000  1
  Lu  Lu10  1  0.312329  0.999914  0.750000  1
  Lu  Lu11  1  0.187823  0.499701  0.250000  1
  Th  Th12  1  0.478972  0.676798  0.594631  1
  Th  Th13  1  0.978971  0.822949  0.905208  1
  Th  Th14  1  0.521067  0.322674  0.094771  1
  Th  Th15  1  0.020877  0.177147  0.405108  1
  Th  Th16  1  0.521067  0.322674  0.405229  1
  Th  Th17  1  0.020877  0.177147  0.094892  1
  Th  Th18  1  0.478972  0.676798  0.905369  1
  Th  Th19  1  0.978971  0.822949  0.594792  1
  Pb  Pb20  1  0.700749  0.957377  0.456372  1
  Pb  Pb21  1  0.200764  0.542213  0.043958  1
  Pb  Pb22  1  0.299320  0.042668  0.956128  1
  Pb  Pb23  1  0.799359  0.457566  0.543978  1
  Pb  Pb24  1  0.299320  0.042668  0.543872  1
  Pb  Pb25  1  0.799359  0.457566  0.956022  1
  Pb  Pb26  1  0.700749  0.957377  0.043628  1
  Pb  Pb27  1  0.200764  0.542213  0.456042  1
  Pb  Pb28  1  0.451790  0.371631  0.750000  1
  Pb  Pb29  1  0.951808  0.128268  0.750000  1
  Pb  Pb30  1  0.548229  0.628219  0.250000  1
  Pb  Pb31  1  0.048715  0.871410  0.250000  1
  Pb  Pb32  1  0.669204  0.847930  0.750000  1
  Pb  Pb33  1  0.169618  0.651882  0.750000  1
  Pb  Pb34  1  0.329778  0.151829  0.250000  1
  Pb  Pb35  1  0.830520  0.349293  0.250000  1
