# generated using pymatgen
data_Sm6Nb2Fe(Co5P4)3
_symmetry_space_group_name_H-M   'P 1'
_cell_length_a   3.74941200
_cell_length_b   10.74206400
_cell_length_c   12.45067000
_cell_angle_alpha   90.00000000
_cell_angle_beta   90.00000000
_cell_angle_gamma   90.00000000
_symmetry_Int_Tables_number   1
_chemical_formula_structural   Sm6Nb2Fe(Co5P4)3
_chemical_formula_sum   'Sm6 Nb2 Fe1 Co15 P12'
_cell_volume   501.46845985
_cell_formula_units_Z   1
loop_
 _symmetry_equiv_pos_site_id
 _symmetry_equiv_pos_as_xyz
  1  'x, y, z'
loop_
 _atom_site_type_symbol
 _atom_site_label
 _atom_site_symmetry_multiplicity
 _atom_site_fract_x
 _atom_site_fract_y
 _atom_site_fract_z
 _atom_site_occupancy
  Sm  Sm0  1  0.000000  0.500000  0.525891  1
  Sm  Sm1  1  0.500000  0.000000  0.474221  1
  Sm  Sm2  1  0.500000  0.819024  0.205076  1
  Sm  Sm3  1  0.500000  0.180976  0.205076  1
  Sm  Sm4  1  0.000000  0.679529  0.795387  1
  Sm  Sm5  1  0.000000  0.320471  0.795387  1
  Nb  Nb6  1  0.500000  0.500000  0.154704  1
  Nb  Nb7  1  0.000000  0.000000  0.844797  1
  Fe  Fe8  1  0.000000  0.500000  0.987167  1
  Co  Co9  1  0.500000  0.500000  0.701569  1
  Co  Co10  1  0.000000  0.000000  0.297723  1
  Co  Co11  1  0.500000  0.000000  0.013567  1
  Co  Co12  1  0.500000  0.330657  0.993052  1
  Co  Co13  1  0.500000  0.669343  0.993052  1
  Co  Co14  1  0.000000  0.166436  0.007422  1
  Co  Co15  1  0.000000  0.833564  0.007422  1
  Co  Co16  1  0.500000  0.295246  0.432295  1
  Co  Co17  1  0.500000  0.704754  0.432295  1
  Co  Co18  1  0.000000  0.204796  0.567966  1
  Co  Co19  1  0.000000  0.795204  0.567966  1
  Co  Co20  1  0.500000  0.879105  0.704936  1
  Co  Co21  1  0.500000  0.120895  0.704936  1
  Co  Co22  1  0.000000  0.621189  0.295063  1
  Co  Co23  1  0.000000  0.378811  0.295063  1
  P  P24  1  0.500000  0.500000  0.885988  1
  P  P25  1  0.000000  0.000000  0.116161  1
  P  P26  1  0.500000  0.500000  0.353113  1
  P  P27  1  0.000000  0.000000  0.646908  1
  P  P28  1  0.500000  0.308095  0.614829  1
  P  P29  1  0.500000  0.691905  0.614829  1
  P  P30  1  0.000000  0.191842  0.385342  1
  P  P31  1  0.000000  0.808158  0.385342  1
  P  P32  1  0.500000  0.842556  0.895148  1
  P  P33  1  0.500000  0.157444  0.895148  1
  P  P34  1  0.000000  0.656828  0.102579  1
  P  P35  1  0.000000  0.343172  0.102579  1
