# generated using pymatgen
data_Eu10Cd2Ni3Ag
_symmetry_space_group_name_H-M   'P 1'
_cell_length_a   9.37485459
_cell_length_b   9.37485412
_cell_length_c   9.38192493
_cell_angle_alpha   129.06157747
_cell_angle_beta   129.06157606
_cell_angle_gamma   74.85509920
_symmetry_Int_Tables_number   1
_chemical_formula_structural   Eu10Cd2Ni3Ag
_chemical_formula_sum   'Eu10 Cd2 Ni3 Ag1'
_cell_volume   484.34787835
_cell_formula_units_Z   1
loop_
 _symmetry_equiv_pos_site_id
 _symmetry_equiv_pos_as_xyz
  1  'x, y, z'
loop_
 _atom_site_type_symbol
 _atom_site_label
 _atom_site_symmetry_multiplicity
 _atom_site_fract_x
 _atom_site_fract_y
 _atom_site_fract_z
 _atom_site_occupancy
  Eu  Eu0  1  0.500892  0.499793  0.000685  1
  Eu  Eu1  1  0.999793  0.000892  0.000685  1
  Eu  Eu2  1  0.533005  0.033005  0.833926  1
  Eu  Eu3  1  0.199363  0.699363  0.167257  1
  Eu  Eu4  1  0.032687  0.197539  0.499014  1
  Eu  Eu5  1  0.697539  0.532687  0.499014  1
  Eu  Eu6  1  0.467893  0.967893  0.167257  1
  Eu  Eu7  1  0.800922  0.300922  0.833926  1
  Eu  Eu8  1  0.966328  0.801475  0.499014  1
  Eu  Eu9  1  0.301475  0.466328  0.499014  1
  Cd  Cd10  1  0.250000  0.250000  0.000001  1
  Cd  Cd11  1  0.750000  0.750000  0.000001  1
  Ni  Ni12  1  0.887093  0.387093  0.274187  1
  Ni  Ni13  1  0.611643  0.888296  0.499939  1
  Ni  Ni14  1  0.388296  0.111643  0.499939  1
  Ag  Ag15  1  0.113072  0.613072  0.726141  1
