# generated using pymatgen
data_Yb5Ho(IO6)3
_symmetry_space_group_name_H-M   'P 1'
_cell_length_a   8.81495765
_cell_length_b   8.81495693
_cell_length_c   5.09386100
_cell_angle_alpha   90.14609699
_cell_angle_beta   89.85390953
_cell_angle_gamma   119.86035256
_symmetry_Int_Tables_number   1
_chemical_formula_structural   Yb5Ho(IO6)3
_chemical_formula_sum   'Yb5 Ho1 I3 O18'
_cell_volume   343.26195679
_cell_formula_units_Z   1
loop_
 _symmetry_equiv_pos_site_id
 _symmetry_equiv_pos_as_xyz
  1  'x, y, z'
loop_
 _atom_site_type_symbol
 _atom_site_label
 _atom_site_symmetry_multiplicity
 _atom_site_fract_x
 _atom_site_fract_y
 _atom_site_fract_z
 _atom_site_occupancy
  Yb  Yb0  1  0.996155  0.280275  0.495851  1
  Yb  Yb1  1  0.280275  0.996155  0.504149  1
  Yb  Yb2  1  0.385127  0.385127  0.000000  1
  Yb  Yb3  1  0.002421  0.608016  0.995128  1
  Yb  Yb4  1  0.608016  0.002421  0.004872  1
  Ho  Ho5  1  0.731333  0.731333  0.500000  1
  I  I6  1  0.667073  0.334129  0.595354  1
  I  I7  1  0.334129  0.667073  0.404646  1
  I  I8  1  0.998370  0.998370  0.000000  1
  O  O9  1  0.805245  0.279614  0.809417  1
  O  O10  1  0.729404  0.536675  0.796262  1
  O  O11  1  0.469692  0.199924  0.801390  1
  O  O12  1  0.536675  0.729404  0.203738  1
  O  O13  1  0.199924  0.469692  0.198610  1
  O  O14  1  0.279614  0.805245  0.190583  1
  O  O15  1  0.557295  0.421653  0.365953  1
  O  O16  1  0.589550  0.137390  0.375230  1
  O  O17  1  0.862983  0.449358  0.367324  1
  O  O18  1  0.052297  0.866629  0.763639  1
  O  O19  1  0.117973  0.199785  0.793581  1
  O  O20  1  0.793108  0.928527  0.792807  1
  O  O21  1  0.199785  0.117973  0.206419  1
  O  O22  1  0.928527  0.793108  0.207193  1
  O  O23  1  0.866629  0.052297  0.236361  1
  O  O24  1  0.421653  0.557295  0.634047  1
  O  O25  1  0.449358  0.862983  0.632676  1
  O  O26  1  0.137390  0.589550  0.624770  1
