# generated using pymatgen
data_Li2Y18Cd6IrRu
_symmetry_space_group_name_H-M   'P 1'
_cell_length_a   9.50693100
_cell_length_b   9.50693096
_cell_length_c   9.73725800
_cell_angle_alpha   90.00000000
_cell_angle_beta   90.00000000
_cell_angle_gamma   119.99999666
_symmetry_Int_Tables_number   1
_chemical_formula_structural   Li2Y18Cd6IrRu
_chemical_formula_sum   'Li2 Y18 Cd6 Ir1 Ru1'
_cell_volume   762.16325242
_cell_formula_units_Z   1
loop_
 _symmetry_equiv_pos_site_id
 _symmetry_equiv_pos_as_xyz
  1  'x, y, z'
loop_
 _atom_site_type_symbol
 _atom_site_label
 _atom_site_symmetry_multiplicity
 _atom_site_fract_x
 _atom_site_fract_y
 _atom_site_fract_z
 _atom_site_occupancy
  Li  Li0  1  0.000000  0.000000  0.499898  1
  Li  Li1  1  0.000000  0.000000  0.000102  1
  Y  Y2  1  0.207196  0.792804  0.441726  1
  Y  Y3  1  0.207196  0.414393  0.441726  1
  Y  Y4  1  0.585607  0.792804  0.441726  1
  Y  Y5  1  0.791968  0.208032  0.558403  1
  Y  Y6  1  0.791968  0.583935  0.558403  1
  Y  Y7  1  0.416065  0.208032  0.558403  1
  Y  Y8  1  0.791968  0.208032  0.941597  1
  Y  Y9  1  0.791968  0.583935  0.941597  1
  Y  Y10  1  0.416065  0.208032  0.941597  1
  Y  Y11  1  0.207196  0.792804  0.058274  1
  Y  Y12  1  0.207196  0.414393  0.058274  1
  Y  Y13  1  0.585607  0.792804  0.058274  1
  Y  Y14  1  0.542306  0.457694  0.250000  1
  Y  Y15  1  0.542306  0.084613  0.250000  1
  Y  Y16  1  0.915387  0.457694  0.250000  1
  Y  Y17  1  0.457721  0.542279  0.750000  1
  Y  Y18  1  0.457721  0.915442  0.750000  1
  Y  Y19  1  0.084558  0.542279  0.750000  1
  Cd  Cd20  1  0.891808  0.108192  0.250000  1
  Cd  Cd21  1  0.891808  0.783618  0.250000  1
  Cd  Cd22  1  0.216382  0.108192  0.250000  1
  Cd  Cd23  1  0.108371  0.891629  0.750000  1
  Cd  Cd24  1  0.108371  0.216742  0.750000  1
  Cd  Cd25  1  0.783258  0.891629  0.750000  1
  Ir  Ir26  1  0.333333  0.666667  0.250000  1
  Ru  Ru27  1  0.666667  0.333333  0.750000  1
