# generated using pymatgen
data_Ti2NbRe3SiGe2
_symmetry_space_group_name_H-M   'P 1'
_cell_length_a   6.91721180
_cell_length_b   6.91721157
_cell_length_c   3.27822900
_cell_angle_alpha   90.00000000
_cell_angle_beta   90.00000000
_cell_angle_gamma   119.60164537
_symmetry_Int_Tables_number   1
_chemical_formula_structural   Ti2NbRe3SiGe2
_chemical_formula_sum   'Ti2 Nb1 Re3 Si1 Ge2'
_cell_volume   136.38336104
_cell_formula_units_Z   1
loop_
 _symmetry_equiv_pos_site_id
 _symmetry_equiv_pos_as_xyz
  1  'x, y, z'
loop_
 _atom_site_type_symbol
 _atom_site_label
 _atom_site_symmetry_multiplicity
 _atom_site_fract_x
 _atom_site_fract_y
 _atom_site_fract_z
 _atom_site_occupancy
  Ti  Ti0  1  0.601658  0.996883  0.500000  1
  Ti  Ti1  1  0.996883  0.601658  0.500000  1
  Nb  Nb2  1  0.398982  0.398982  0.500000  1
  Re  Re3  1  0.744731  0.744731  0.000000  1
  Re  Re4  1  0.256280  0.000599  0.000000  1
  Re  Re5  1  0.000599  0.256280  0.000000  1
  Si  Si6  1  0.999170  0.999170  0.500000  1
  Ge  Ge7  1  0.670517  0.331180  0.000000  1
  Ge  Ge8  1  0.331180  0.670517  0.000000  1
