# generated using pymatgen
data_RbMn7NiO16
_symmetry_space_group_name_H-M   'P 1'
_cell_length_a   5.86112265
_cell_length_b   7.13544031
_cell_length_c   7.25021600
_cell_angle_alpha   88.56716716
_cell_angle_beta   78.36138066
_cell_angle_gamma   78.06300496
_symmetry_Int_Tables_number   1
_chemical_formula_structural   RbMn7NiO16
_chemical_formula_sum   'Rb1 Mn7 Ni1 O16'
_cell_volume   290.51572350
_cell_formula_units_Z   1
loop_
 _symmetry_equiv_pos_site_id
 _symmetry_equiv_pos_as_xyz
  1  'x, y, z'
loop_
 _atom_site_type_symbol
 _atom_site_label
 _atom_site_symmetry_multiplicity
 _atom_site_fract_x
 _atom_site_fract_y
 _atom_site_fract_z
 _atom_site_occupancy
  Rb  Rb0  1  0.998560  0.000180  0.001036  1
  Mn  Mn1  1  0.080857  0.508239  0.182716  1
  Mn  Mn2  1  0.173485  0.816559  0.516848  1
  Mn  Mn3  1  0.667905  0.818367  0.519649  1
  Mn  Mn4  1  0.334939  0.185901  0.479998  1
  Mn  Mn5  1  0.835864  0.184962  0.484604  1
  Mn  Mn6  1  0.430477  0.486480  0.818300  1
  Mn  Mn7  1  0.925627  0.491886  0.821108  1
  Ni  Ni8  1  0.580397  0.510600  0.183425  1
  O  O9  1  0.844241  0.641146  0.048078  1
  O  O10  1  0.333459  0.634680  0.053870  1
  O  O11  1  0.982484  0.703312  0.380843  1
  O  O12  1  0.482882  0.703358  0.390102  1
  O  O13  1  0.856097  0.957588  0.640248  1
  O  O14  1  0.353826  0.957112  0.640939  1
  O  O15  1  0.333600  0.364842  0.287586  1
  O  O16  1  0.842590  0.365200  0.281587  1
  O  O17  1  0.169169  0.632065  0.715774  1
  O  O18  1  0.666723  0.632823  0.717324  1
  O  O19  1  0.151161  0.044483  0.360789  1
  O  O20  1  0.652760  0.044623  0.362022  1
  O  O21  1  0.024599  0.298374  0.617831  1
  O  O22  1  0.523692  0.301654  0.613820  1
  O  O23  1  0.178777  0.357988  0.945229  1
  O  O24  1  0.682927  0.357574  0.936267  1
