# generated using pymatgen
data_Zn2SnBi(Pt2O7)2
_symmetry_space_group_name_H-M   'P 1'
_cell_length_a   7.14250704
_cell_length_b   7.13918948
_cell_length_c   7.05456900
_cell_angle_alpha   60.39131944
_cell_angle_beta   60.40644183
_cell_angle_gamma   61.11687634
_symmetry_Int_Tables_number   1
_chemical_formula_structural   Zn2SnBi(Pt2O7)2
_chemical_formula_sum   'Zn2 Sn1 Bi1 Pt4 O14'
_cell_volume   258.00252486
_cell_formula_units_Z   1
loop_
 _symmetry_equiv_pos_site_id
 _symmetry_equiv_pos_as_xyz
  1  'x, y, z'
loop_
 _atom_site_type_symbol
 _atom_site_label
 _atom_site_symmetry_multiplicity
 _atom_site_fract_x
 _atom_site_fract_y
 _atom_site_fract_z
 _atom_site_occupancy
  Zn  Zn0  1  0.125000  0.125000  0.625000  1
  Zn  Zn1  1  0.125000  0.125000  0.125000  1
  Sn  Sn2  1  0.125000  0.625000  0.125000  1
  Bi  Bi3  1  0.625000  0.125000  0.125000  1
  Pt  Pt4  1  0.625000  0.625000  0.125000  1
  Pt  Pt5  1  0.625000  0.125000  0.625000  1
  Pt  Pt6  1  0.125000  0.625000  0.625000  1
  Pt  Pt7  1  0.625000  0.625000  0.625000  1
  O  O8  1  0.229890  0.266813  0.251649  1
  O  O9  1  0.020110  0.983187  0.998351  1
  O  O10  1  0.528010  0.962994  0.542402  1
  O  O11  1  0.284531  0.709087  0.281856  1
  O  O12  1  0.525899  0.541670  0.966215  1
  O  O13  1  0.965469  0.540913  0.525474  1
  O  O14  1  0.528010  0.962994  0.966594  1
  O  O15  1  0.969321  0.966561  0.532059  1
  O  O16  1  0.965469  0.540913  0.968144  1
  O  O17  1  0.721990  0.287006  0.283406  1
  O  O18  1  0.284531  0.709087  0.724526  1
  O  O19  1  0.721990  0.287006  0.707598  1
  O  O20  1  0.280679  0.283439  0.717941  1
  O  O21  1  0.724101  0.708330  0.283785  1
