# generated using pymatgen
data_Ba2Li2TbLuO6
_symmetry_space_group_name_H-M   'P 1'
_cell_length_a   6.09295954
_cell_length_b   6.09295907
_cell_length_c   8.69480503
_cell_angle_alpha   88.87419677
_cell_angle_beta   91.12580249
_cell_angle_gamma   146.57518250
_symmetry_Int_Tables_number   1
_chemical_formula_structural   Ba2Li2TbLuO6
_chemical_formula_sum   'Ba2 Li2 Tb1 Lu1 O6'
_cell_volume   177.76746696
_cell_formula_units_Z   1
loop_
 _symmetry_equiv_pos_site_id
 _symmetry_equiv_pos_as_xyz
  1  'x, y, z'
loop_
 _atom_site_type_symbol
 _atom_site_label
 _atom_site_symmetry_multiplicity
 _atom_site_fract_x
 _atom_site_fract_y
 _atom_site_fract_z
 _atom_site_occupancy
  Ba  Ba0  1  0.739815  0.260184  0.242030  1
  Ba  Ba1  1  0.260184  0.739815  0.757970  1
  Li  Li2  1  0.467509  0.532490  0.244473  1
  Li  Li3  1  0.532490  0.467509  0.755527  1
  Tb  Tb4  1  0.000000  0.000000  0.500000  1
  Lu  Lu5  1  0.000000  0.000000  0.000000  1
  O  O6  1  0.383042  0.616957  0.056008  1
  O  O7  1  0.054646  0.945353  0.245824  1
  O  O8  1  0.380137  0.619862  0.426899  1
  O  O9  1  0.619862  0.380137  0.573101  1
  O  O10  1  0.945353  0.054646  0.754176  1
  O  O11  1  0.616957  0.383042  0.943992  1
