# generated using pymatgen
data_Tm6ScCrO12
_symmetry_space_group_name_H-M   'P 1'
_cell_length_a   6.47041215
_cell_length_b   6.47041366
_cell_length_c   6.47041289
_cell_angle_alpha   92.53871977
_cell_angle_beta   92.53871947
_cell_angle_gamma   92.53871891
_symmetry_Int_Tables_number   1
_chemical_formula_structural   Tm6ScCrO12
_chemical_formula_sum   'Tm6 Sc1 Cr1 O12'
_cell_volume   270.06985322
_cell_formula_units_Z   1
loop_
 _symmetry_equiv_pos_site_id
 _symmetry_equiv_pos_as_xyz
  1  'x, y, z'
loop_
 _atom_site_type_symbol
 _atom_site_label
 _atom_site_symmetry_multiplicity
 _atom_site_fract_x
 _atom_site_fract_y
 _atom_site_fract_z
 _atom_site_occupancy
  Tm  Tm0  1  0.743414  0.927623  0.436840  1
  Tm  Tm1  1  0.927623  0.436840  0.743414  1
  Tm  Tm2  1  0.436840  0.743414  0.927623  1
  Tm  Tm3  1  0.256586  0.072377  0.563160  1
  Tm  Tm4  1  0.072377  0.563160  0.256586  1
  Tm  Tm5  1  0.563160  0.256586  0.072377  1
  Sc  Sc6  1  0.000000  0.000000  0.000000  1
  Cr  Cr7  1  0.500000  0.500000  0.500000  1
  O  O8  1  0.589616  0.461380  0.801696  1
  O  O9  1  0.461380  0.801696  0.589616  1
  O  O10  1  0.801696  0.589616  0.461380  1
  O  O11  1  0.410384  0.538620  0.198304  1
  O  O12  1  0.538620  0.198304  0.410384  1
  O  O13  1  0.198304  0.410384  0.538620  1
  O  O14  1  0.069679  0.913253  0.310114  1
  O  O15  1  0.913253  0.310114  0.069679  1
  O  O16  1  0.689886  0.930321  0.086747  1
  O  O17  1  0.086747  0.689886  0.930321  1
  O  O18  1  0.930321  0.086747  0.689886  1
  O  O19  1  0.310114  0.069679  0.913253  1
