# generated using pymatgen
data_TeMo(P2O7)2
_symmetry_space_group_name_H-M   'P 1'
_cell_length_a   8.63894862
_cell_length_b   5.00833914
_cell_length_c   7.18288646
_cell_angle_alpha   74.25695204
_cell_angle_beta   90.74418100
_cell_angle_gamma   89.28922869
_symmetry_Int_Tables_number   1
_chemical_formula_structural   TeMo(P2O7)2
_chemical_formula_sum   'Te1 Mo1 P4 O14'
_cell_volume   299.05625697
_cell_formula_units_Z   1
loop_
 _symmetry_equiv_pos_site_id
 _symmetry_equiv_pos_as_xyz
  1  'x, y, z'
loop_
 _atom_site_type_symbol
 _atom_site_label
 _atom_site_symmetry_multiplicity
 _atom_site_fract_x
 _atom_site_fract_y
 _atom_site_fract_z
 _atom_site_occupancy
  Te  Te0  1  0.056149  0.781403  0.729114  1
  Mo  Mo1  1  0.549918  0.219521  0.280676  1
  P  P2  1  0.366250  0.622473  0.515560  1
  P  P3  1  0.300800  0.232958  0.887654  1
  P  P4  1  0.868643  0.381940  0.481242  1
  P  P5  1  0.770243  0.759861  0.112112  1
  O  O6  1  0.152256  0.399896  0.906317  1
  O  O7  1  0.265300  0.986657  0.807604  1
  O  O8  1  0.717961  0.993428  0.199908  1
  O  O9  1  0.396297  0.148834  0.072094  1
  O  O10  1  0.994923  0.155967  0.507847  1
  O  O11  1  0.702712  0.279877  0.494019  1
  O  O12  1  0.381910  0.440668  0.376135  1
  O  O13  1  0.632677  0.567738  0.100093  1
  O  O14  1  0.476137  0.865351  0.474279  1
  O  O15  1  0.409267  0.442643  0.730374  1
  O  O16  1  0.896508  0.575421  0.265044  1
  O  O17  1  0.888577  0.563725  0.622852  1
  O  O18  1  0.193078  0.715391  0.512762  1
  O  O19  1  0.852485  0.866247  0.924317  1
