# generated using pymatgen
data_CrBi4Mo5O24
_symmetry_space_group_name_H-M   'P 1'
_cell_length_a   7.56455622
_cell_length_b   7.56455680
_cell_length_c   10.90698876
_cell_angle_alpha   89.80456340
_cell_angle_beta   89.80456144
_cell_angle_gamma   90.16120330
_symmetry_Int_Tables_number   1
_chemical_formula_structural   CrBi4Mo5O24
_chemical_formula_sum   'Cr1 Bi4 Mo5 O24'
_cell_volume   624.11557824
_cell_formula_units_Z   1
loop_
 _symmetry_equiv_pos_site_id
 _symmetry_equiv_pos_as_xyz
  1  'x, y, z'
loop_
 _atom_site_type_symbol
 _atom_site_label
 _atom_site_symmetry_multiplicity
 _atom_site_fract_x
 _atom_site_fract_y
 _atom_site_fract_z
 _atom_site_occupancy
  Cr  Cr0  1  0.209843  0.709843  0.354818  1
  Bi  Bi1  1  0.190994  0.690994  0.735353  1
  Bi  Bi2  1  0.808909  0.308909  0.740466  1
  Bi  Bi3  1  0.683176  0.805686  0.263020  1
  Bi  Bi4  1  0.305686  0.183176  0.263020  1
  Mo  Mo5  1  0.790954  0.290954  0.354862  1
  Mo  Mo6  1  0.708716  0.792880  0.644793  1
  Mo  Mo7  1  0.292880  0.208716  0.644793  1
  Mo  Mo8  1  0.002460  0.996960  0.000219  1
  Mo  Mo9  1  0.496960  0.502460  0.000219  1
  O  O10  1  0.000126  0.222747  0.294424  1
  O  O11  1  0.014679  0.769514  0.301011  1
  O  O12  1  0.223822  0.998679  0.703616  1
  O  O13  1  0.498679  0.723822  0.703616  1
  O  O14  1  0.775439  0.001502  0.706121  1
  O  O15  1  0.501502  0.275439  0.706121  1
  O  O16  1  0.269514  0.514679  0.301011  1
  O  O17  1  0.722747  0.500126  0.294424  1
  O  O18  1  0.192594  0.042331  0.093148  1
  O  O19  1  0.815439  0.951433  0.096490  1
  O  O20  1  0.045750  0.809914  0.903806  1
  O  O21  1  0.309914  0.545750  0.903806  1
  O  O22  1  0.956267  0.187251  0.907167  1
  O  O23  1  0.687251  0.456267  0.907167  1
  O  O24  1  0.451433  0.315439  0.096490  1
  O  O25  1  0.542331  0.692594  0.093148  1
  O  O26  1  0.625782  0.125782  0.310437  1
  O  O27  1  0.366309  0.866309  0.309244  1
  O  O28  1  0.127740  0.372598  0.689321  1
  O  O29  1  0.872598  0.627740  0.689321  1
  O  O30  1  0.201221  0.701221  0.506426  1
  O  O31  1  0.802239  0.302239  0.517129  1
  O  O32  1  0.699533  0.806514  0.482499  1
  O  O33  1  0.306514  0.199533  0.482499  1
