# generated using pymatgen
data_Gd8Ti2FeSi16Tc9
_symmetry_space_group_name_H-M   'P 1'
_cell_length_a   6.74601700
_cell_length_b   6.74601734
_cell_length_c   12.94873900
_cell_angle_alpha   89.94595728
_cell_angle_beta   90.05404272
_cell_angle_gamma   89.25304662
_symmetry_Int_Tables_number   1
_chemical_formula_structural   Gd8Ti2FeSi16Tc9
_chemical_formula_sum   'Gd8 Ti2 Fe1 Si16 Tc9'
_cell_volume   589.23028891
_cell_formula_units_Z   1
loop_
 _symmetry_equiv_pos_site_id
 _symmetry_equiv_pos_as_xyz
  1  'x, y, z'
loop_
 _atom_site_type_symbol
 _atom_site_label
 _atom_site_symmetry_multiplicity
 _atom_site_fract_x
 _atom_site_fract_y
 _atom_site_fract_z
 _atom_site_occupancy
  Gd  Gd0  1  0.995670  0.663637  0.028440  1
  Gd  Gd1  1  0.004563  0.335119  0.527515  1
  Gd  Gd2  1  0.663637  0.995670  0.971560  1
  Gd  Gd3  1  0.181797  0.490216  0.783593  1
  Gd  Gd4  1  0.817194  0.510355  0.282442  1
  Gd  Gd5  1  0.490216  0.181797  0.216407  1
  Gd  Gd6  1  0.510355  0.817194  0.717558  1
  Gd  Gd7  1  0.335119  0.004563  0.472485  1
  Ti  Ti8  1  0.843934  0.157143  0.750331  1
  Ti  Ti9  1  0.157143  0.843934  0.249669  1
  Fe  Fe10  1  0.334956  0.334956  0.000000  1
  Si  Si11  1  0.014508  0.737623  0.443958  1
  Si  Si12  1  0.993742  0.260375  0.946054  1
  Si  Si13  1  0.737623  0.014508  0.556042  1
  Si  Si14  1  0.195460  0.470993  0.182359  1
  Si  Si15  1  0.805873  0.528889  0.682626  1
  Si  Si16  1  0.470993  0.195460  0.817641  1
  Si  Si17  1  0.528889  0.805873  0.317374  1
  Si  Si18  1  0.260375  0.993742  0.053946  1
  Si  Si19  1  0.788184  0.883922  0.182963  1
  Si  Si20  1  0.319779  0.600343  0.557652  1
  Si  Si21  1  0.672781  0.399912  0.056089  1
  Si  Si22  1  0.600343  0.319779  0.442348  1
  Si  Si23  1  0.399912  0.672781  0.943911  1
  Si  Si24  1  0.115873  0.213076  0.316159  1
  Si  Si25  1  0.213076  0.115873  0.683841  1
  Si  Si26  1  0.883922  0.788184  0.817037  1
  Tc  Tc27  1  0.307321  0.528947  0.365105  1
  Tc  Tc28  1  0.818082  0.018628  0.365131  1
  Tc  Tc29  1  0.977925  0.183858  0.135160  1
  Tc  Tc30  1  0.018628  0.818082  0.634869  1
  Tc  Tc31  1  0.528947  0.307321  0.634895  1
  Tc  Tc32  1  0.183858  0.977925  0.864840  1
  Tc  Tc33  1  0.666824  0.666824  0.500000  1
  Tc  Tc34  1  0.468625  0.693876  0.135027  1
  Tc  Tc35  1  0.693876  0.468625  0.864973  1
