# generated using pymatgen
data_Dy2Lu2ScIr3
_symmetry_space_group_name_H-M   'P 1'
_cell_length_a   10.71923200
_cell_length_b   10.71923200
_cell_length_c   6.22596100
_cell_angle_alpha   90.00000000
_cell_angle_beta   90.00000000
_cell_angle_gamma   90.00000000
_symmetry_Int_Tables_number   1
_chemical_formula_structural   Dy2Lu2ScIr3
_chemical_formula_sum   'Dy8 Lu8 Sc4 Ir12'
_cell_volume   715.37496408
_cell_formula_units_Z   4
loop_
 _symmetry_equiv_pos_site_id
 _symmetry_equiv_pos_as_xyz
  1  'x, y, z'
loop_
 _atom_site_type_symbol
 _atom_site_label
 _atom_site_symmetry_multiplicity
 _atom_site_fract_x
 _atom_site_fract_y
 _atom_site_fract_z
 _atom_site_occupancy
  Dy  Dy0  1  0.214212  0.411842  0.626410  1
  Dy  Dy1  1  0.214212  0.588158  0.126410  1
  Dy  Dy2  1  0.785788  0.411842  0.126410  1
  Dy  Dy3  1  0.785788  0.588158  0.626410  1
  Dy  Dy4  1  0.911842  0.714212  0.126410  1
  Dy  Dy5  1  0.911842  0.285788  0.626410  1
  Dy  Dy6  1  0.088158  0.714212  0.626410  1
  Dy  Dy7  1  0.088158  0.285788  0.126410  1
  Lu  Lu8  1  0.290932  0.083386  0.378468  1
  Lu  Lu9  1  0.290932  0.916614  0.878468  1
  Lu  Lu10  1  0.709068  0.083386  0.878468  1
  Lu  Lu11  1  0.709068  0.916614  0.378468  1
  Lu  Lu12  1  0.583386  0.790932  0.878468  1
  Lu  Lu13  1  0.583386  0.209068  0.378468  1
  Lu  Lu14  1  0.416614  0.790932  0.378468  1
  Lu  Lu15  1  0.416614  0.209068  0.878468  1
  Sc  Sc16  1  0.000000  0.000000  0.492633  1
  Sc  Sc17  1  0.000000  0.000000  0.992633  1
  Sc  Sc18  1  0.500000  0.500000  0.992633  1
  Sc  Sc19  1  0.500000  0.500000  0.492633  1
  Ir  Ir20  1  0.848039  0.145252  0.247674  1
  Ir  Ir21  1  0.848039  0.854748  0.747674  1
  Ir  Ir22  1  0.151961  0.145252  0.747674  1
  Ir  Ir23  1  0.151961  0.854748  0.247674  1
  Ir  Ir24  1  0.645252  0.348039  0.747674  1
  Ir  Ir25  1  0.645252  0.651961  0.247674  1
  Ir  Ir26  1  0.354748  0.348039  0.247674  1
  Ir  Ir27  1  0.354748  0.651961  0.747674  1
  Ir  Ir28  1  0.500000  0.000000  0.123935  1
  Ir  Ir29  1  0.500000  0.000000  0.623935  1
  Ir  Ir30  1  0.000000  0.500000  0.880596  1
  Ir  Ir31  1  0.000000  0.500000  0.380596  1
