# generated using pymatgen
data_Er4Tm4TcOsBr8
_symmetry_space_group_name_H-M   'P 1'
_cell_length_a   8.90410755
_cell_length_b   8.90410893
_cell_length_c   6.51142099
_cell_angle_alpha   89.58408083
_cell_angle_beta   89.58407137
_cell_angle_gamma   89.15122047
_symmetry_Int_Tables_number   1
_chemical_formula_structural   Er4Tm4TcOsBr8
_chemical_formula_sum   'Er4 Tm4 Tc1 Os1 Br8'
_cell_volume   516.16247575
_cell_formula_units_Z   1
loop_
 _symmetry_equiv_pos_site_id
 _symmetry_equiv_pos_as_xyz
  1  'x, y, z'
loop_
 _atom_site_type_symbol
 _atom_site_label
 _atom_site_symmetry_multiplicity
 _atom_site_fract_x
 _atom_site_fract_y
 _atom_site_fract_z
 _atom_site_occupancy
  Er  Er0  1  0.753085  0.903422  0.507098  1
  Er  Er1  1  0.246977  0.097329  0.491693  1
  Er  Er2  1  0.096578  0.246915  0.992902  1
  Er  Er3  1  0.902671  0.753023  0.008307  1
  Tm  Tm4  1  0.245737  0.901866  0.012039  1
  Tm  Tm5  1  0.753501  0.098291  0.989201  1
  Tm  Tm6  1  0.098134  0.754263  0.487961  1
  Tm  Tm7  1  0.901709  0.246499  0.510799  1
  Tc  Tc8  1  0.994449  0.005551  0.250000  1
  Os  Os9  1  0.005683  0.994317  0.750000  1
  Br  Br10  1  0.418706  0.815905  0.411503  1
  Br  Br11  1  0.581192  0.183360  0.590918  1
  Br  Br12  1  0.184095  0.581294  0.088497  1
  Br  Br13  1  0.816640  0.418808  0.909082  1
  Br  Br14  1  0.415267  0.187981  0.091817  1
  Br  Br15  1  0.584879  0.811321  0.907083  1
  Br  Br16  1  0.812019  0.584733  0.408183  1
  Br  Br17  1  0.188679  0.415121  0.592917  1
