# generated using pymatgen
data_Ba2CeCu2Se5
_symmetry_space_group_name_H-M   'P 1'
_cell_length_a   7.42684092
_cell_length_b   7.42684163
_cell_length_c   9.80493479
_cell_angle_alpha   65.14986865
_cell_angle_beta   114.85013191
_cell_angle_gamma   146.52100486
_symmetry_Int_Tables_number   1
_chemical_formula_structural   Ba2CeCu2Se5
_chemical_formula_sum   'Ba2 Ce1 Cu2 Se5'
_cell_volume   268.07163422
_cell_formula_units_Z   1
loop_
 _symmetry_equiv_pos_site_id
 _symmetry_equiv_pos_as_xyz
  1  'x, y, z'
loop_
 _atom_site_type_symbol
 _atom_site_label
 _atom_site_symmetry_multiplicity
 _atom_site_fract_x
 _atom_site_fract_y
 _atom_site_fract_z
 _atom_site_occupancy
  Ba  Ba0  1  0.175783  0.824217  0.699877  1
  Ba  Ba1  1  0.824217  0.175783  0.300123  1
  Ce  Ce2  1  0.000000  0.000000  0.000000  1
  Cu  Cu3  1  0.554028  0.445972  0.293494  1
  Cu  Cu4  1  0.445973  0.554027  0.706506  1
  Se  Se5  1  0.500000  0.500000  0.500000  1
  Se  Se6  1  0.385399  0.614601  0.064096  1
  Se  Se7  1  0.614601  0.385399  0.935905  1
  Se  Se8  1  0.148130  0.851870  0.312298  1
  Se  Se9  1  0.851870  0.148130  0.687702  1
