# generated using pymatgen
data_Y2U(ZnPt)3
_symmetry_space_group_name_H-M   'P 1'
_cell_length_a   7.31002501
_cell_length_b   7.40526486
_cell_length_c   3.80011400
_cell_angle_alpha   90.00000000
_cell_angle_beta   90.00000000
_cell_angle_gamma   120.43191480
_symmetry_Int_Tables_number   1
_chemical_formula_structural   Y2U(ZnPt)3
_chemical_formula_sum   'Y2 U1 Zn3 Pt3'
_cell_volume   177.36995377
_cell_formula_units_Z   1
loop_
 _symmetry_equiv_pos_site_id
 _symmetry_equiv_pos_as_xyz
  1  'x, y, z'
loop_
 _atom_site_type_symbol
 _atom_site_label
 _atom_site_symmetry_multiplicity
 _atom_site_fract_x
 _atom_site_fract_y
 _atom_site_fract_z
 _atom_site_occupancy
  Y  Y0  1  0.598324  0.004864  0.500000  1
  Y  Y1  1  0.401676  0.406540  0.500000  1
  U  U2  1  0.000000  0.590539  0.500000  1
  Zn  Zn3  1  0.263229  0.010052  0.000000  1
  Zn  Zn4  1  0.736771  0.746823  0.000000  1
  Zn  Zn5  1  0.000000  0.241378  0.000000  1
  Pt  Pt6  1  0.000000  0.982646  0.500000  1
  Pt  Pt7  1  0.310074  0.663617  0.000000  1
  Pt  Pt8  1  0.689926  0.353542  0.000000  1
