# generated using pymatgen
data_Pr8Dy3Y9Sn16
_symmetry_space_group_name_H-M   'P 1'
_cell_length_a   8.08397800
_cell_length_b   8.31146327
_cell_length_c   15.66644300
_cell_angle_alpha   90.00000000
_cell_angle_beta   90.00000000
_cell_angle_gamma   89.98539249
_symmetry_Int_Tables_number   1
_chemical_formula_structural   Pr8Dy3Y9Sn16
_chemical_formula_sum   'Pr8 Dy3 Y9 Sn16'
_cell_volume   1052.62335520
_cell_formula_units_Z   1
loop_
 _symmetry_equiv_pos_site_id
 _symmetry_equiv_pos_as_xyz
  1  'x, y, z'
loop_
 _atom_site_type_symbol
 _atom_site_label
 _atom_site_symmetry_multiplicity
 _atom_site_fract_x
 _atom_site_fract_y
 _atom_site_fract_z
 _atom_site_occupancy
  Pr  Pr0  1  0.508293  0.323333  0.903872  1
  Pr  Pr1  1  0.007986  0.176375  0.596123  1
  Pr  Pr2  1  0.491733  0.676432  0.403594  1
  Pr  Pr3  1  0.991763  0.823549  0.096348  1
  Pr  Pr4  1  0.491733  0.676432  0.096406  1
  Pr  Pr5  1  0.991763  0.823549  0.403652  1
  Pr  Pr6  1  0.508293  0.323333  0.596128  1
  Pr  Pr7  1  0.007986  0.176375  0.903877  1
  Dy  Dy8  1  0.681810  0.998882  0.750000  1
  Dy  Dy9  1  0.818214  0.498912  0.250000  1
  Dy  Dy10  1  0.318252  0.001096  0.250000  1
  Y  Y11  1  0.348807  0.835386  0.875623  1
  Y  Y12  1  0.848569  0.664674  0.624227  1
  Y  Y13  1  0.651363  0.164493  0.375473  1
  Y  Y14  1  0.151495  0.335436  0.124664  1
  Y  Y15  1  0.651363  0.164493  0.124527  1
  Y  Y16  1  0.151495  0.335436  0.375336  1
  Y  Y17  1  0.348807  0.835386  0.624377  1
  Y  Y18  1  0.848569  0.664674  0.875773  1
  Y  Y19  1  0.182009  0.500856  0.750000  1
  Sn  Sn20  1  0.313899  0.040487  0.041945  1
  Sn  Sn21  1  0.813962  0.459518  0.458021  1
  Sn  Sn22  1  0.685914  0.959512  0.541759  1
  Sn  Sn23  1  0.186049  0.540980  0.958535  1
  Sn  Sn24  1  0.685914  0.959512  0.958241  1
  Sn  Sn25  1  0.186049  0.540980  0.541465  1
  Sn  Sn26  1  0.313899  0.040487  0.458055  1
  Sn  Sn27  1  0.813962  0.459518  0.041979  1
  Sn  Sn28  1  0.547224  0.622814  0.750000  1
  Sn  Sn29  1  0.046426  0.877789  0.750000  1
  Sn  Sn30  1  0.453531  0.377558  0.250000  1
  Sn  Sn31  1  0.953460  0.122486  0.250000  1
  Sn  Sn32  1  0.315395  0.143957  0.750000  1
  Sn  Sn33  1  0.814655  0.355259  0.750000  1
  Sn  Sn34  1  0.684703  0.855382  0.250000  1
  Sn  Sn35  1  0.184662  0.644659  0.250000  1
