# generated using pymatgen
data_Yb2PaIr2
_symmetry_space_group_name_H-M   'P 1'
_cell_length_a   6.42983855
_cell_length_b   6.42983956
_cell_length_c   7.23855774
_cell_angle_alpha   98.41841450
_cell_angle_beta   98.41841661
_cell_angle_gamma   57.35367616
_symmetry_Int_Tables_number   1
_chemical_formula_structural   Yb2PaIr2
_chemical_formula_sum   'Yb4 Pa2 Ir4'
_cell_volume   248.45088692
_cell_formula_units_Z   2
loop_
 _symmetry_equiv_pos_site_id
 _symmetry_equiv_pos_as_xyz
  1  'x, y, z'
loop_
 _atom_site_type_symbol
 _atom_site_label
 _atom_site_symmetry_multiplicity
 _atom_site_fract_x
 _atom_site_fract_y
 _atom_site_fract_z
 _atom_site_occupancy
  Yb  Yb0  1  0.042647  0.271387  0.145955  1
  Yb  Yb1  1  0.728613  0.957353  0.354045  1
  Yb  Yb2  1  0.271387  0.042648  0.645956  1
  Yb  Yb3  1  0.957353  0.728613  0.854045  1
  Pa  Pa4  1  0.427443  0.572557  0.249999  1
  Pa  Pa5  1  0.572557  0.427443  0.750000  1
  Ir  Ir6  1  0.504345  0.794101  0.013246  1
  Ir  Ir7  1  0.205899  0.495655  0.486755  1
  Ir  Ir8  1  0.794100  0.504344  0.513245  1
  Ir  Ir9  1  0.495656  0.205899  0.986755  1
