# generated using pymatgen
data_Th2Co17Si4Ni
_symmetry_space_group_name_H-M   'P 1'
_cell_length_a   7.56092329
_cell_length_b   7.56092251
_cell_length_c   7.56092272
_cell_angle_alpha   100.00992064
_cell_angle_beta   100.00992017
_cell_angle_gamma   130.71995474
_symmetry_Int_Tables_number   1
_chemical_formula_structural   Th2Co17Si4Ni
_chemical_formula_sum   'Th2 Co17 Si4 Ni1'
_cell_volume   297.76808774
_cell_formula_units_Z   1
loop_
 _symmetry_equiv_pos_site_id
 _symmetry_equiv_pos_as_xyz
  1  'x, y, z'
loop_
 _atom_site_type_symbol
 _atom_site_label
 _atom_site_symmetry_multiplicity
 _atom_site_fract_x
 _atom_site_fract_y
 _atom_site_fract_z
 _atom_site_occupancy
  Th  Th0  1  0.000000  0.000000  0.000000  1
  Th  Th1  1  0.250000  0.750000  0.500000  1
  Co  Co2  1  0.768422  0.186163  0.831233  1
  Co  Co3  1  0.354930  0.937189  0.168767  1
  Co  Co4  1  0.187762  0.518531  0.081966  1
  Co  Co5  1  0.894204  0.563435  0.081966  1
  Co  Co6  1  0.481469  0.812238  0.918034  1
  Co  Co7  1  0.436565  0.105796  0.918034  1
  Co  Co8  1  0.062811  0.645070  0.831233  1
  Co  Co9  1  0.813837  0.645070  0.582259  1
  Co  Co10  1  0.481469  0.563435  0.669231  1
  Co  Co11  1  0.894204  0.812238  0.330769  1
  Co  Co12  1  0.062811  0.231578  0.417741  1
  Co  Co13  1  0.354930  0.186163  0.417741  1
  Co  Co14  1  0.768422  0.937189  0.582259  1
  Co  Co15  1  0.436565  0.518531  0.330769  1
  Co  Co16  1  0.187762  0.105796  0.669231  1
  Co  Co17  1  0.813837  0.231578  0.168767  1
  Co  Co18  1  0.500000  0.500000  0.000000  1
  Si  Si19  1  0.624772  0.874043  0.249271  1
  Si  Si20  1  0.624500  0.375228  0.249271  1
  Si  Si21  1  0.125957  0.375228  0.750729  1
  Si  Si22  1  0.624772  0.375500  0.750729  1
  Ni  Ni23  1  0.750000  0.250000  0.500000  1
