# generated using pymatgen
data_YbNiB4Ru3
_symmetry_space_group_name_H-M   'P 1'
_cell_length_a   9.13580135
_cell_length_b   7.36088179
_cell_length_c   7.36643235
_cell_angle_alpha   90.38278521
_cell_angle_beta   113.85266516
_cell_angle_gamma   114.29159911
_symmetry_Int_Tables_number   1
_chemical_formula_structural   YbNiB4Ru3
_chemical_formula_sum   'Yb4 Ni4 B16 Ru12'
_cell_volume   403.95671161
_cell_formula_units_Z   4
loop_
 _symmetry_equiv_pos_site_id
 _symmetry_equiv_pos_as_xyz
  1  'x, y, z'
loop_
 _atom_site_type_symbol
 _atom_site_label
 _atom_site_symmetry_multiplicity
 _atom_site_fract_x
 _atom_site_fract_y
 _atom_site_fract_z
 _atom_site_occupancy
  Yb  Yb0  1  0.750343  0.867708  0.121633  1
  Yb  Yb1  1  0.249663  0.628828  0.368878  1
  Yb  Yb2  1  0.750978  0.377488  0.630804  1
  Yb  Yb3  1  0.248497  0.118748  0.879999  1
  Ni  Ni4  1  0.878585  0.559614  0.044616  1
  Ni  Ni5  1  0.378740  0.841968  0.049980  1
  Ni  Ni6  1  0.113792  0.938549  0.157552  1
  Ni  Ni7  1  0.628433  0.464393  0.172046  1
  B  B8  1  0.913310  0.289577  0.076640  1
  B  B9  1  0.422610  0.570369  0.128385  1
  B  B10  1  0.089218  0.213358  0.153576  1
  B  B11  1  0.580321  0.149887  0.203606  1
  B  B12  1  0.406290  0.053586  0.281968  1
  B  B13  1  0.915783  0.625996  0.358962  1
  B  B14  1  0.591517  0.646196  0.376064  1
  B  B15  1  0.084457  0.876904  0.438657  1
  B  B16  1  0.910243  0.126142  0.562664  1
  B  B17  1  0.409650  0.340909  0.619342  1
  B  B18  1  0.089760  0.376771  0.660240  1
  B  B19  1  0.586113  0.933047  0.707691  1
  B  B20  1  0.414814  0.844750  0.786824  1
  B  B21  1  0.913556  0.792309  0.851844  1
  B  B22  1  0.587535  0.433595  0.873571  1
  B  B23  1  0.086147  0.711894  0.938374  1
  Ru  Ru24  1  0.372433  0.325630  0.311063  1
  Ru  Ru25  1  0.867390  0.326507  0.334078  1
  Ru  Ru26  1  0.620952  0.956348  0.437871  1
  Ru  Ru27  1  0.124114  0.179726  0.455460  1
  Ru  Ru28  1  0.876289  0.825537  0.541471  1
  Ru  Ru29  1  0.367022  0.033474  0.543936  1
  Ru  Ru30  1  0.131921  0.681231  0.673395  1
  Ru  Ru31  1  0.625052  0.662588  0.677209  1
  Ru  Ru32  1  0.377641  0.538976  0.828058  1
  Ru  Ru33  1  0.872523  0.058234  0.835389  1
  Ru  Ru34  1  0.629340  0.173695  0.947263  1
  Ru  Ru35  1  0.134974  0.455471  0.970894  1
