# generated using pymatgen
data_LiLu4Co19P12
_symmetry_space_group_name_H-M   'P 1'
_cell_length_a   3.63804700
_cell_length_b   10.21899527
_cell_length_c   11.74517731
_cell_angle_alpha   89.97372109
_cell_angle_beta   90.00000000
_cell_angle_gamma   90.00000000
_symmetry_Int_Tables_number   1
_chemical_formula_structural   LiLu4Co19P12
_chemical_formula_sum   'Li1 Lu4 Co19 P12'
_cell_volume   436.65258468
_cell_formula_units_Z   1
loop_
 _symmetry_equiv_pos_site_id
 _symmetry_equiv_pos_as_xyz
  1  'x, y, z'
loop_
 _atom_site_type_symbol
 _atom_site_label
 _atom_site_symmetry_multiplicity
 _atom_site_fract_x
 _atom_site_fract_y
 _atom_site_fract_z
 _atom_site_occupancy
  Li  Li0  1  0.250000  0.703224  0.990552  1
  Lu  Lu1  1  0.250000  0.581132  0.701749  1
  Lu  Lu2  1  0.250000  0.920098  0.203638  1
  Lu  Lu3  1  0.750000  0.418620  0.297747  1
  Lu  Lu4  1  0.750000  0.080026  0.796899  1
  Co  Co5  1  0.250000  0.782734  0.493632  1
  Co  Co6  1  0.750000  0.288221  0.010083  1
  Co  Co7  1  0.750000  0.217851  0.505913  1
  Co  Co8  1  0.250000  0.407012  0.486719  1
  Co  Co9  1  0.250000  0.095163  0.986312  1
  Co  Co10  1  0.750000  0.592532  0.514796  1
  Co  Co11  1  0.750000  0.908349  0.014514  1
  Co  Co12  1  0.250000  0.224023  0.176054  1
  Co  Co13  1  0.250000  0.277748  0.675488  1
  Co  Co14  1  0.750000  0.779112  0.821342  1
  Co  Co15  1  0.750000  0.721022  0.327805  1
  Co  Co16  1  0.250000  0.884000  0.698236  1
  Co  Co17  1  0.250000  0.619422  0.200951  1
  Co  Co18  1  0.750000  0.118066  0.299360  1
  Co  Co19  1  0.750000  0.379892  0.800210  1
  Co  Co20  1  0.250000  0.463914  0.931614  1
  Co  Co21  1  0.250000  0.033623  0.430419  1
  Co  Co22  1  0.750000  0.534503  0.067672  1
  Co  Co23  1  0.750000  0.967877  0.567551  1
  P  P24  1  0.250000  0.422153  0.113772  1
  P  P25  1  0.250000  0.080951  0.612218  1
  P  P26  1  0.750000  0.577842  0.882892  1
  P  P27  1  0.750000  0.919650  0.386794  1
  P  P28  1  0.250000  0.266717  0.867518  1
  P  P29  1  0.250000  0.232214  0.368764  1
  P  P30  1  0.750000  0.732712  0.137682  1
  P  P31  1  0.750000  0.769335  0.630775  1
  P  P32  1  0.250000  0.600492  0.392746  1
  P  P33  1  0.250000  0.899421  0.890735  1
  P  P34  1  0.750000  0.398402  0.608971  1
  P  P35  1  0.750000  0.101947  0.107879  1
