# generated using pymatgen
data_TbPr3DyP12Ru19
_symmetry_space_group_name_H-M   'P 1'
_cell_length_a   12.61547100
_cell_length_b   12.61547130
_cell_length_c   4.01356300
_cell_angle_alpha   90.00000000
_cell_angle_beta   90.00000000
_cell_angle_gamma   119.99999660
_symmetry_Int_Tables_number   1
_chemical_formula_structural   TbPr3DyP12Ru19
_chemical_formula_sum   'Tb1 Pr3 Dy1 P12 Ru19'
_cell_volume   553.18154182
_cell_formula_units_Z   1
loop_
 _symmetry_equiv_pos_site_id
 _symmetry_equiv_pos_as_xyz
  1  'x, y, z'
loop_
 _atom_site_type_symbol
 _atom_site_label
 _atom_site_symmetry_multiplicity
 _atom_site_fract_x
 _atom_site_fract_y
 _atom_site_fract_z
 _atom_site_occupancy
  Tb  Tb0  1  0.666667  0.333333  0.000000  1
  Pr  Pr1  1  0.816144  0.999993  0.500000  1
  Pr  Pr2  1  0.183849  0.183856  0.500000  1
  Pr  Pr3  1  0.000007  0.816151  0.500000  1
  Dy  Dy4  1  0.333333  0.666667  0.000000  1
  P  P5  1  0.625205  0.000027  0.000000  1
  P  P6  1  0.374822  0.374795  0.000000  1
  P  P7  1  0.999973  0.625178  0.000000  1
  P  P8  1  0.695276  0.521706  0.500000  1
  P  P9  1  0.826432  0.304724  0.500000  1
  P  P10  1  0.304777  0.826282  0.500000  1
  P  P11  1  0.521503  0.695223  0.500000  1
  P  P12  1  0.188595  0.999983  0.000000  1
  P  P13  1  0.811388  0.811405  0.000000  1
  P  P14  1  0.000017  0.188612  0.000000  1
  P  P15  1  0.478294  0.173568  0.500000  1
  P  P16  1  0.173718  0.478497  0.500000  1
  Ru  Ru17  1  0.618828  0.804317  0.000000  1
  Ru  Ru18  1  0.185488  0.381172  0.000000  1
  Ru  Ru19  1  0.380962  0.185370  0.000000  1
  Ru  Ru20  1  0.195683  0.814512  0.000000  1
  Ru  Ru21  1  0.804409  0.619038  0.000000  1
  Ru  Ru22  1  0.874522  0.506647  0.500000  1
  Ru  Ru23  1  0.493353  0.367875  0.500000  1
  Ru  Ru24  1  0.632125  0.125478  0.500000  1
  Ru  Ru25  1  0.125801  0.632150  0.500000  1
  Ru  Ru26  1  0.367850  0.493651  0.500000  1
  Ru  Ru27  1  0.506349  0.874199  0.500000  1
  Ru  Ru28  1  0.000000  0.000000  0.000000  1
  Ru  Ru29  1  0.713043  0.713080  0.500000  1
  Ru  Ru30  1  0.000038  0.286957  0.500000  1
  Ru  Ru31  1  0.445674  0.000005  0.000000  1
  Ru  Ru32  1  0.554331  0.554326  0.000000  1
  Ru  Ru33  1  0.999995  0.445669  0.000000  1
  Ru  Ru34  1  0.814630  0.195591  0.000000  1
  Ru  Ru35  1  0.286920  0.999962  0.500000  1
