# generated using pymatgen
data_Zr6Co16Si6W
_symmetry_space_group_name_H-M   'P 1'
_cell_length_a   8.13620952
_cell_length_b   8.13621014
_cell_length_c   8.13620900
_cell_angle_alpha   60.00000057
_cell_angle_beta   59.99999806
_cell_angle_gamma   60.00000356
_symmetry_Int_Tables_number   1
_chemical_formula_structural   Zr6Co16Si6W
_chemical_formula_sum   'Zr6 Co16 Si6 W1'
_cell_volume   380.84774306
_cell_formula_units_Z   1
loop_
 _symmetry_equiv_pos_site_id
 _symmetry_equiv_pos_as_xyz
  1  'x, y, z'
loop_
 _atom_site_type_symbol
 _atom_site_label
 _atom_site_symmetry_multiplicity
 _atom_site_fract_x
 _atom_site_fract_y
 _atom_site_fract_z
 _atom_site_occupancy
  Zr  Zr0  1  0.707097  0.292903  0.292903  1
  Zr  Zr1  1  0.292903  0.292903  0.707097  1
  Zr  Zr2  1  0.292903  0.707097  0.707097  1
  Zr  Zr3  1  0.707097  0.707097  0.292903  1
  Zr  Zr4  1  0.292903  0.707097  0.292903  1
  Zr  Zr5  1  0.707097  0.292903  0.707097  1
  Co  Co6  1  0.121549  0.121549  0.635354  1
  Co  Co7  1  0.672850  0.981449  0.672850  1
  Co  Co8  1  0.364646  0.878451  0.878451  1
  Co  Co9  1  0.018551  0.327150  0.327150  1
  Co  Co10  1  0.981449  0.672850  0.672850  1
  Co  Co11  1  0.327150  0.327150  0.018551  1
  Co  Co12  1  0.672850  0.672850  0.981449  1
  Co  Co13  1  0.635354  0.121549  0.121549  1
  Co  Co14  1  0.672850  0.672850  0.672850  1
  Co  Co15  1  0.878451  0.878451  0.364646  1
  Co  Co16  1  0.121549  0.121549  0.121549  1
  Co  Co17  1  0.878451  0.364646  0.878451  1
  Co  Co18  1  0.878451  0.878451  0.878451  1
  Co  Co19  1  0.327150  0.327150  0.327150  1
  Co  Co20  1  0.121549  0.635354  0.121549  1
  Co  Co21  1  0.327150  0.018551  0.327150  1
  Si  Si22  1  0.000000  0.500000  0.000000  1
  Si  Si23  1  0.000000  0.000000  0.500000  1
  Si  Si24  1  0.500000  0.500000  0.000000  1
  Si  Si25  1  0.500000  0.000000  0.500000  1
  Si  Si26  1  0.500000  0.000000  0.000000  1
  Si  Si27  1  0.000000  0.500000  0.500000  1
  W  W28  1  0.000000  0.000000  0.000000  1
