# generated using pymatgen
data_Hf3Zr6Re4Ir
_symmetry_space_group_name_H-M   'P 1'
_cell_length_a   8.72568100
_cell_length_b   8.72568176
_cell_length_c   8.59195400
_cell_angle_alpha   90.00000000
_cell_angle_beta   90.00000000
_cell_angle_gamma   120.00000091
_symmetry_Int_Tables_number   1
_chemical_formula_structural   Hf3Zr6Re4Ir
_chemical_formula_sum   'Hf6 Zr12 Re8 Ir2'
_cell_volume   566.52786024
_cell_formula_units_Z   2
loop_
 _symmetry_equiv_pos_site_id
 _symmetry_equiv_pos_as_xyz
  1  'x, y, z'
loop_
 _atom_site_type_symbol
 _atom_site_label
 _atom_site_symmetry_multiplicity
 _atom_site_fract_x
 _atom_site_fract_y
 _atom_site_fract_z
 _atom_site_occupancy
  Hf  Hf0  1  0.194748  0.805252  0.444660  1
  Hf  Hf1  1  0.194748  0.389497  0.444660  1
  Hf  Hf2  1  0.610503  0.805252  0.444660  1
  Hf  Hf3  1  0.805252  0.194748  0.555340  1
  Hf  Hf4  1  0.805252  0.610503  0.555340  1
  Hf  Hf5  1  0.389497  0.194748  0.555340  1
  Zr  Zr6  1  0.804518  0.195482  0.944687  1
  Zr  Zr7  1  0.804518  0.609036  0.944687  1
  Zr  Zr8  1  0.390964  0.195482  0.944687  1
  Zr  Zr9  1  0.195482  0.804518  0.055313  1
  Zr  Zr10  1  0.195482  0.390964  0.055313  1
  Zr  Zr11  1  0.609036  0.804518  0.055313  1
  Zr  Zr12  1  0.542377  0.457623  0.252721  1
  Zr  Zr13  1  0.542377  0.084752  0.252721  1
  Zr  Zr14  1  0.915248  0.457623  0.252721  1
  Zr  Zr15  1  0.457623  0.542377  0.747279  1
  Zr  Zr16  1  0.457623  0.915248  0.747279  1
  Zr  Zr17  1  0.084752  0.542377  0.747279  1
  Re  Re18  1  0.891763  0.108237  0.251565  1
  Re  Re19  1  0.891763  0.783527  0.251565  1
  Re  Re20  1  0.216473  0.108237  0.251565  1
  Re  Re21  1  0.108237  0.891763  0.748435  1
  Re  Re22  1  0.108237  0.216473  0.748435  1
  Re  Re23  1  0.783527  0.891763  0.748435  1
  Re  Re24  1  0.000000  0.000000  0.500000  1
  Re  Re25  1  0.000000  0.000000  0.000000  1
  Ir  Ir26  1  0.333333  0.666667  0.253738  1
  Ir  Ir27  1  0.666667  0.333333  0.746262  1
