# generated using pymatgen
data_Cr3In5P16(Pb3O16)4
_symmetry_space_group_name_H-M   'P 1'
_cell_length_a   9.32241676
_cell_length_b   9.32773989
_cell_length_c   16.98772938
_cell_angle_alpha   90.03402531
_cell_angle_beta   90.03119914
_cell_angle_gamma   89.91703551
_symmetry_Int_Tables_number   1
_chemical_formula_structural   Cr3In5P16(Pb3O16)4
_chemical_formula_sum   'Cr3 In5 P16 Pb12 O64'
_cell_volume   1477.20129220
_cell_formula_units_Z   1
loop_
 _symmetry_equiv_pos_site_id
 _symmetry_equiv_pos_as_xyz
  1  'x, y, z'
loop_
 _atom_site_type_symbol
 _atom_site_label
 _atom_site_symmetry_multiplicity
 _atom_site_fract_x
 _atom_site_fract_y
 _atom_site_fract_z
 _atom_site_occupancy
  Cr  Cr0  1  0.001653  0.233589  0.628927  1
  Cr  Cr1  1  0.233846  0.001429  0.371952  1
  Cr  Cr2  1  0.766339  0.998594  0.870072  1
  In  In3  1  0.266841  0.497476  0.879043  1
  In  In4  1  0.999009  0.768089  0.130672  1
  In  In5  1  0.733141  0.501530  0.381345  1
  In  In6  1  0.501894  0.733385  0.619971  1
  In  In7  1  0.499799  0.266868  0.119752  1
  P  P8  1  0.270708  0.450953  0.676885  1
  P  P9  1  0.007480  0.730463  0.332117  1
  P  P10  1  0.774263  0.046272  0.068181  1
  P  P11  1  0.451841  0.269630  0.323106  1
  P  P12  1  0.224145  0.496304  0.080680  1
  P  P13  1  0.726983  0.543892  0.178684  1
  P  P14  1  0.500474  0.218969  0.917656  1
  P  P15  1  0.729177  0.010967  0.671999  1
  P  P16  1  0.221481  0.958712  0.569616  1
  P  P17  1  0.500356  0.781568  0.418665  1
  P  P18  1  0.039448  0.776978  0.927177  1
  P  P19  1  0.548637  0.729768  0.822247  1
  P  P20  1  0.275618  0.994754  0.172780  1
  P  P21  1  0.958747  0.220984  0.430761  1
  P  P22  1  0.989407  0.270181  0.827481  1
  P  P23  1  0.781328  0.499796  0.581950  1
  Pb  Pb24  1  0.651035  0.920215  0.230568  1
  Pb  Pb25  1  0.132872  0.133250  0.999388  1
  Pb  Pb26  1  0.082973  0.345706  0.270807  1
  Pb  Pb27  1  0.848740  0.420305  0.017042  1
  Pb  Pb28  1  0.363761  0.637001  0.250311  1
  Pb  Pb29  1  0.419611  0.850127  0.981188  1
  Pb  Pb30  1  0.916249  0.653172  0.767767  1
  Pb  Pb31  1  0.346795  0.083239  0.729618  1
  Pb  Pb32  1  0.868080  0.868828  0.501713  1
  Pb  Pb33  1  0.580203  0.149789  0.482568  1
  Pb  Pb34  1  0.148947  0.580053  0.518032  1
  Pb  Pb35  1  0.638264  0.361506  0.749952  1
  O  O36  1  0.879299  0.174315  0.064008  1
  O  O37  1  0.403223  0.136970  0.372614  1
  O  O38  1  0.634777  0.082636  0.115399  1
  O  O39  1  0.175362  0.621484  0.135430  1
  O  O40  1  0.388972  0.098909  0.934889  1
  O  O41  1  0.379083  0.326751  0.686019  1
  O  O42  1  0.427898  0.667697  0.876733  1
  O  O43  1  0.117714  0.829476  0.565177  1
  O  O44  1  0.715486  0.443086  0.504353  1
  O  O45  1  0.672635  0.621257  0.812893  1
  O  O46  1  0.155414  0.929512  0.120216  1
  O  O47  1  0.836961  0.375090  0.635437  1
  O  O48  1  0.160097  0.082549  0.622215  1
  O  O49  1  0.557915  0.285564  0.994672  1
  O  O50  1  0.682937  0.881792  0.618397  1
  O  O51  1  0.829355  0.117487  0.435142  1
  O  O52  1  0.611319  0.902035  0.434940  1
  O  O53  1  0.343646  0.428661  0.132822  1
  O  O54  1  0.568618  0.661587  0.366350  1
  O  O55  1  0.167545  0.881357  0.936407  1
  O  O56  1  0.041546  0.214923  0.746513  1
  O  O57  1  0.083557  0.642292  0.877317  1
  O  O58  1  0.901720  0.610918  0.566032  1
  O  O59  1  0.079271  0.852152  0.381112  1
  O  O60  1  0.943762  0.789877  0.254695  1
  O  O61  1  0.784162  0.959093  0.752884  1
  O  O62  1  0.596217  0.863216  0.871519  1
  O  O63  1  0.401313  0.886371  0.183098  1
  O  O64  1  0.978118  0.726911  0.005994  1
  O  O65  1  0.287394  0.552866  0.002512  1
  O  O66  1  0.082657  0.159655  0.377992  1
  O  O67  1  0.571287  0.332640  0.378252  1
  O  O68  1  0.882923  0.397614  0.817395  1
  O  O69  1  0.863221  0.583836  0.130030  1
  O  O70  1  0.664185  0.425388  0.123521  1
  O  O71  1  0.360231  0.919825  0.617551  1
  O  O72  1  0.332717  0.571836  0.622499  1
  O  O73  1  0.118281  0.316507  0.881428  1
  O  O74  1  0.622546  0.671648  0.186821  1
  O  O75  1  0.327722  0.378484  0.312959  1
  O  O76  1  0.482576  0.777364  0.743669  1
  O  O77  1  0.431701  0.337994  0.864903  1
  O  O78  1  0.884844  0.678711  0.388638  1
  O  O79  1  0.624057  0.162221  0.863594  1
  O  O80  1  0.772509  0.479094  0.257822  1
  O  O81  1  0.444255  0.715656  0.496320  1
  O  O82  1  0.735788  0.987708  0.986760  1
  O  O83  1  0.921543  0.147107  0.877177  1
  O  O84  1  0.320101  0.124179  0.119974  1
  O  O85  1  0.918362  0.841187  0.873667  1
  O  O86  1  0.852630  0.078634  0.622481  1
  O  O87  1  0.661070  0.567941  0.634037  1
  O  O88  1  0.601715  0.117497  0.681807  1
  O  O89  1  0.114286  0.605351  0.316077  1
  O  O90  1  0.223670  0.516552  0.755507  1
  O  O91  1  0.136806  0.403695  0.627869  1
  O  O92  1  0.833492  0.925247  0.122868  1
  O  O93  1  0.920239  0.359686  0.382730  1
  O  O94  1  0.215963  0.041938  0.253681  1
  O  O95  1  0.518495  0.221088  0.245044  1
  O  O96  1  0.264326  0.013937  0.488086  1
  O  O97  1  0.100959  0.388193  0.064974  1
  O  O98  1  0.013875  0.263471  0.512403  1
  O  O99  1  0.375512  0.836941  0.365005  1
