# generated using pymatgen
data_Eu10TlPt4Pb
_symmetry_space_group_name_H-M   'P 1'
_cell_length_a   9.21121294
_cell_length_b   9.21121207
_cell_length_c   9.21121300
_cell_angle_alpha   128.16303843
_cell_angle_beta   128.16304207
_cell_angle_gamma   76.36105750
_symmetry_Int_Tables_number   1
_chemical_formula_structural   Eu10TlPt4Pb
_chemical_formula_sum   'Eu10 Tl1 Pt4 Pb1'
_cell_volume   469.47828864
_cell_formula_units_Z   1
loop_
 _symmetry_equiv_pos_site_id
 _symmetry_equiv_pos_as_xyz
  1  'x, y, z'
loop_
 _atom_site_type_symbol
 _atom_site_label
 _atom_site_symmetry_multiplicity
 _atom_site_fract_x
 _atom_site_fract_y
 _atom_site_fract_z
 _atom_site_occupancy
  Eu  Eu0  1  0.499111  0.499111  0.000000  1
  Eu  Eu1  1  0.000889  0.000889  0.000000  1
  Eu  Eu2  1  0.529407  0.029720  0.829603  1
  Eu  Eu3  1  0.200117  0.699804  0.170397  1
  Eu  Eu4  1  0.029720  0.200117  0.500313  1
  Eu  Eu5  1  0.699804  0.529407  0.499687  1
  Eu  Eu6  1  0.470280  0.970593  0.170397  1
  Eu  Eu7  1  0.800196  0.299883  0.829603  1
  Eu  Eu8  1  0.970593  0.800196  0.500313  1
  Eu  Eu9  1  0.299883  0.470280  0.499687  1
  Tl  Tl10  1  0.750000  0.750000  0.000000  1
  Pt  Pt11  1  0.131763  0.631763  0.763525  1
  Pt  Pt12  1  0.868237  0.368237  0.236475  1
  Pt  Pt13  1  0.631763  0.868237  0.500000  1
  Pt  Pt14  1  0.368237  0.131763  0.500000  1
  Pb  Pb15  1  0.250000  0.250000  0.000000  1
