# generated using pymatgen
data_MgZr6Ti3Al12Pd7
_symmetry_space_group_name_H-M   'P 1'
_cell_length_a   8.87654927
_cell_length_b   8.87654951
_cell_length_c   8.87654868
_cell_angle_alpha   59.82586848
_cell_angle_beta   59.82586628
_cell_angle_gamma   59.82586636
_symmetry_Int_Tables_number   1
_chemical_formula_structural   MgZr6Ti3Al12Pd7
_chemical_formula_sum   'Mg1 Zr6 Ti3 Al12 Pd7'
_cell_volume   492.60363434
_cell_formula_units_Z   1
loop_
 _symmetry_equiv_pos_site_id
 _symmetry_equiv_pos_as_xyz
  1  'x, y, z'
loop_
 _atom_site_type_symbol
 _atom_site_label
 _atom_site_symmetry_multiplicity
 _atom_site_fract_x
 _atom_site_fract_y
 _atom_site_fract_z
 _atom_site_occupancy
  Mg  Mg0  1  0.883348  0.883348  0.883348  1
  Zr  Zr1  1  0.685865  0.685865  0.314343  1
  Zr  Zr2  1  0.310874  0.687684  0.310874  1
  Zr  Zr3  1  0.687684  0.310874  0.310874  1
  Zr  Zr4  1  0.310874  0.310874  0.687684  1
  Zr  Zr5  1  0.685865  0.314343  0.685865  1
  Zr  Zr6  1  0.314343  0.685865  0.685865  1
  Ti  Ti7  1  0.879667  0.879667  0.360445  1
  Ti  Ti8  1  0.879667  0.360445  0.879667  1
  Ti  Ti9  1  0.360445  0.879667  0.879667  1
  Al  Al10  1  0.120393  0.120393  0.640752  1
  Al  Al11  1  0.120393  0.640752  0.120393  1
  Al  Al12  1  0.640752  0.120393  0.120393  1
  Al  Al13  1  0.120984  0.120984  0.120984  1
  Al  Al14  1  0.665527  0.665527  0.003005  1
  Al  Al15  1  0.665527  0.003005  0.665527  1
  Al  Al16  1  0.003005  0.665527  0.665527  1
  Al  Al17  1  0.664213  0.664213  0.664213  1
  Al  Al18  1  0.334682  0.334682  0.996000  1
  Al  Al19  1  0.334682  0.996000  0.334682  1
  Al  Al20  1  0.996000  0.334682  0.334682  1
  Al  Al21  1  0.333913  0.333913  0.333913  1
  Pd  Pd22  1  0.005693  0.005693  0.005693  1
  Pd  Pd23  1  0.000320  0.000320  0.495464  1
  Pd  Pd24  1  0.500173  0.999151  0.500173  1
  Pd  Pd25  1  0.999151  0.500173  0.500173  1
  Pd  Pd26  1  0.500173  0.500173  0.999151  1
  Pd  Pd27  1  0.000320  0.495464  0.000320  1
  Pd  Pd28  1  0.495464  0.000320  0.000320  1
