# generated using pymatgen
data_Tb3Ce2Sn3Hg
_symmetry_space_group_name_H-M   'P 1'
_cell_length_a   6.54391100
_cell_length_b   9.52078740
_cell_length_c   9.52078700
_cell_angle_alpha   120.00000904
_cell_angle_beta   90.00000000
_cell_angle_gamma   90.00000000
_symmetry_Int_Tables_number   1
_chemical_formula_structural   Tb3Ce2Sn3Hg
_chemical_formula_sum   'Tb6 Ce4 Sn6 Hg2'
_cell_volume   513.70488168
_cell_formula_units_Z   2
loop_
 _symmetry_equiv_pos_site_id
 _symmetry_equiv_pos_as_xyz
  1  'x, y, z'
loop_
 _atom_site_type_symbol
 _atom_site_label
 _atom_site_symmetry_multiplicity
 _atom_site_fract_x
 _atom_site_fract_y
 _atom_site_fract_z
 _atom_site_occupancy
  Tb  Tb0  1  0.750000  0.715690  0.715690  1
  Tb  Tb1  1  0.250000  0.284310  0.284310  1
  Tb  Tb2  1  0.750000  0.000000  0.284310  1
  Tb  Tb3  1  0.250000  0.000000  0.715690  1
  Tb  Tb4  1  0.750000  0.284310  0.000000  1
  Tb  Tb5  1  0.250000  0.715690  0.000000  1
  Ce  Ce6  1  0.000000  0.666667  0.333333  1
  Ce  Ce7  1  0.000000  0.333333  0.666667  1
  Ce  Ce8  1  0.500000  0.333333  0.666667  1
  Ce  Ce9  1  0.500000  0.666667  0.333333  1
  Sn  Sn10  1  0.750000  0.371913  0.371913  1
  Sn  Sn11  1  0.250000  0.628087  0.628087  1
  Sn  Sn12  1  0.750000  0.000000  0.628087  1
  Sn  Sn13  1  0.250000  0.000000  0.371913  1
  Sn  Sn14  1  0.750000  0.628087  0.000000  1
  Sn  Sn15  1  0.250000  0.371913  0.000000  1
  Hg  Hg16  1  0.000000  0.000000  0.000000  1
  Hg  Hg17  1  0.500000  0.000000  0.000000  1
