# generated using pymatgen
data_YbY5Tm2(B6Os)4
_symmetry_space_group_name_H-M   'P 1'
_cell_length_a   3.64386500
_cell_length_b   9.14440666
_cell_length_c   11.53692522
_cell_angle_alpha   89.98263326
_cell_angle_beta   90.00000000
_cell_angle_gamma   90.00000000
_symmetry_Int_Tables_number   1
_chemical_formula_structural   YbY5Tm2(B6Os)4
_chemical_formula_sum   'Yb1 Y5 Tm2 B24 Os4'
_cell_volume   384.42167575
_cell_formula_units_Z   1
loop_
 _symmetry_equiv_pos_site_id
 _symmetry_equiv_pos_as_xyz
  1  'x, y, z'
loop_
 _atom_site_type_symbol
 _atom_site_label
 _atom_site_symmetry_multiplicity
 _atom_site_fract_x
 _atom_site_fract_y
 _atom_site_fract_z
 _atom_site_occupancy
  Yb  Yb0  1  0.000000  0.323332  0.413345  1
  Y  Y1  1  0.000000  0.676160  0.585340  1
  Y  Y2  1  0.000000  0.821308  0.086399  1
  Y  Y3  1  0.000000  0.179167  0.914574  1
  Y  Y4  1  0.000000  0.944142  0.371601  1
  Y  Y5  1  0.000000  0.057924  0.627464  1
  Tm  Tm6  1  0.000000  0.443108  0.128593  1
  Tm  Tm7  1  0.000000  0.556046  0.873000  1
  B  B8  1  0.500000  0.552708  0.432134  1
  B  B9  1  0.500000  0.446239  0.567361  1
  B  B10  1  0.500000  0.053814  0.066560  1
  B  B11  1  0.500000  0.945541  0.932721  1
  B  B12  1  0.500000  0.747025  0.418634  1
  B  B13  1  0.500000  0.253404  0.580962  1
  B  B14  1  0.500000  0.248972  0.080893  1
  B  B15  1  0.500000  0.750373  0.919458  1
  B  B16  1  0.500000  0.790102  0.265840  1
  B  B17  1  0.500000  0.210886  0.734271  1
  B  B18  1  0.500000  0.291171  0.233495  1
  B  B19  1  0.500000  0.708292  0.766945  1
  B  B20  1  0.500000  0.630042  0.185571  1
  B  B21  1  0.500000  0.370086  0.815554  1
  B  B22  1  0.500000  0.132301  0.313501  1
  B  B23  1  0.500000  0.868036  0.685920  1
  B  B24  1  0.500000  0.983833  0.211685  1
  B  B25  1  0.500000  0.016421  0.787513  1
  B  B26  1  0.500000  0.482102  0.287036  1
  B  B27  1  0.500000  0.517354  0.713587  1
  B  B28  1  0.500000  0.604343  0.029309  1
  B  B29  1  0.500000  0.395729  0.971435  1
  B  B30  1  0.500000  0.106122  0.470510  1
  B  B31  1  0.500000  0.893445  0.529393  1
  Os  Os32  1  0.000000  0.637599  0.320066  1
  Os  Os33  1  0.000000  0.363621  0.680526  1
  Os  Os34  1  0.000000  0.138056  0.177265  1
  Os  Os35  1  0.000000  0.861195  0.821539  1
