# generated using pymatgen
data_Lu6OsO12
_symmetry_space_group_name_H-M   'P 1'
_cell_length_a   6.34163507
_cell_length_b   6.34163459
_cell_length_c   6.34163422
_cell_angle_alpha   98.87502767
_cell_angle_beta   98.87502402
_cell_angle_gamma   98.87501525
_symmetry_Int_Tables_number   1
_chemical_formula_structural   Lu6OsO12
_chemical_formula_sum   'Lu6 Os1 O12'
_cell_volume   244.78914275
_cell_formula_units_Z   1
loop_
 _symmetry_equiv_pos_site_id
 _symmetry_equiv_pos_as_xyz
  1  'x, y, z'
loop_
 _atom_site_type_symbol
 _atom_site_label
 _atom_site_symmetry_multiplicity
 _atom_site_fract_x
 _atom_site_fract_y
 _atom_site_fract_z
 _atom_site_occupancy
  Lu  Lu0  1  0.856454  0.680188  0.391129  1
  Lu  Lu1  1  0.608871  0.143546  0.319812  1
  Lu  Lu2  1  0.680188  0.391129  0.856454  1
  Lu  Lu3  1  0.319812  0.608871  0.143546  1
  Lu  Lu4  1  0.391129  0.856454  0.680188  1
  Lu  Lu5  1  0.143546  0.319812  0.608871  1
  Os  Os6  1  0.000000  0.000000  0.000000  1
  O  O7  1  0.959920  0.083221  0.299826  1
  O  O8  1  0.916779  0.700174  0.040080  1
  O  O9  1  0.822311  0.410995  0.572824  1
  O  O10  1  0.700174  0.040080  0.916779  1
  O  O11  1  0.589005  0.427176  0.177689  1
  O  O12  1  0.572824  0.822311  0.410995  1
  O  O13  1  0.427176  0.177689  0.589005  1
  O  O14  1  0.410995  0.572824  0.822311  1
  O  O15  1  0.299826  0.959920  0.083221  1
  O  O16  1  0.177689  0.589005  0.427176  1
  O  O17  1  0.083221  0.299826  0.959920  1
  O  O18  1  0.040080  0.916779  0.700174  1
