# generated using pymatgen
data_La5(Hg2Rh)2
_symmetry_space_group_name_H-M   'P 1'
_cell_length_a   3.86623500
_cell_length_b   8.34428500
_cell_length_c   18.44764100
_cell_angle_alpha   90.00000000
_cell_angle_beta   90.00000000
_cell_angle_gamma   90.00000000
_symmetry_Int_Tables_number   1
_chemical_formula_structural   La5(Hg2Rh)2
_chemical_formula_sum   'La10 Hg8 Rh4'
_cell_volume   595.13873231
_cell_formula_units_Z   2
loop_
 _symmetry_equiv_pos_site_id
 _symmetry_equiv_pos_as_xyz
  1  'x, y, z'
loop_
 _atom_site_type_symbol
 _atom_site_label
 _atom_site_symmetry_multiplicity
 _atom_site_fract_x
 _atom_site_fract_y
 _atom_site_fract_z
 _atom_site_occupancy
  La  La0  1  0.000000  0.110885  0.410352  1
  La  La1  1  0.000000  0.889115  0.589648  1
  La  La2  1  0.000000  0.389115  0.910352  1
  La  La3  1  0.000000  0.610885  0.089648  1
  La  La4  1  0.000000  0.238141  0.218026  1
  La  La5  1  0.000000  0.761859  0.781974  1
  La  La6  1  0.000000  0.261859  0.718026  1
  La  La7  1  0.000000  0.738141  0.281974  1
  La  La8  1  0.000000  0.000000  0.000000  1
  La  La9  1  0.000000  0.500000  0.500000  1
  Hg  Hg10  1  0.500000  0.423043  0.351332  1
  Hg  Hg11  1  0.500000  0.576957  0.648668  1
  Hg  Hg12  1  0.500000  0.076957  0.851332  1
  Hg  Hg13  1  0.500000  0.923043  0.148668  1
  Hg  Hg14  1  0.500000  0.289984  0.064704  1
  Hg  Hg15  1  0.500000  0.710016  0.935296  1
  Hg  Hg16  1  0.500000  0.210016  0.564704  1
  Hg  Hg17  1  0.500000  0.789984  0.435296  1
  Rh  Rh18  1  0.500000  0.023363  0.304264  1
  Rh  Rh19  1  0.500000  0.976637  0.695736  1
  Rh  Rh20  1  0.500000  0.476637  0.804264  1
  Rh  Rh21  1  0.500000  0.523363  0.195736  1
