# generated using pymatgen
data_Y6C2Br7
_symmetry_space_group_name_H-M   'P 1'
_cell_length_a   10.53410215
_cell_length_b   10.53410129
_cell_length_c   12.04176206
_cell_angle_alpha   57.60375626
_cell_angle_beta   57.60375850
_cell_angle_gamma   20.93053429
_symmetry_Int_Tables_number   1
_chemical_formula_structural   Y6C2Br7
_chemical_formula_sum   'Y6 C2 Br7'
_cell_volume   400.28161464
_cell_formula_units_Z   1
loop_
 _symmetry_equiv_pos_site_id
 _symmetry_equiv_pos_as_xyz
  1  'x, y, z'
loop_
 _atom_site_type_symbol
 _atom_site_label
 _atom_site_symmetry_multiplicity
 _atom_site_fract_x
 _atom_site_fract_y
 _atom_site_fract_z
 _atom_site_occupancy
  Y  Y0  1  0.231182  0.231182  0.832971  1
  Y  Y1  1  0.312654  0.312654  0.366966  1
  Y  Y2  1  0.131566  0.131566  0.442559  1
  Y  Y3  1  0.868434  0.868434  0.557441  1
  Y  Y4  1  0.687346  0.687346  0.633034  1
  Y  Y5  1  0.768818  0.768818  0.167029  1
  C  C6  1  0.280305  0.280305  0.605262  1
  C  C7  1  0.719695  0.719695  0.394738  1
  Br  Br8  1  0.164103  0.164103  0.165845  1
  Br  Br9  1  0.835897  0.835897  0.834155  1
  Br  Br10  1  0.058882  0.058882  0.717983  1
  Br  Br11  1  0.941118  0.941118  0.282017  1
  Br  Br12  1  0.500000  0.500000  0.500000  1
  Br  Br13  1  0.388322  0.388322  0.070237  1
  Br  Br14  1  0.611678  0.611678  0.929763  1
