# generated using pymatgen
data_Ho11TmLu8(CoBi2)4
_symmetry_space_group_name_H-M   'P 1'
_cell_length_a   7.84458976
_cell_length_b   8.87222200
_cell_length_c   12.34080205
_cell_angle_alpha   90.00000000
_cell_angle_beta   90.06144350
_cell_angle_gamma   90.00000000
_symmetry_Int_Tables_number   1
_chemical_formula_structural   Ho11TmLu8(CoBi2)4
_chemical_formula_sum   'Ho11 Tm1 Lu8 Co4 Bi8'
_cell_volume   858.90627096
_cell_formula_units_Z   1
loop_
 _symmetry_equiv_pos_site_id
 _symmetry_equiv_pos_as_xyz
  1  'x, y, z'
loop_
 _atom_site_type_symbol
 _atom_site_label
 _atom_site_symmetry_multiplicity
 _atom_site_fract_x
 _atom_site_fract_y
 _atom_site_fract_z
 _atom_site_occupancy
  Ho  Ho0  1  0.650937  0.250000  0.300103  1
  Ho  Ho1  1  0.848724  0.250000  0.799890  1
  Ho  Ho2  1  0.151357  0.750000  0.200365  1
  Ho  Ho3  1  0.884321  0.750000  0.812901  1
  Ho  Ho4  1  0.115854  0.250000  0.186594  1
  Ho  Ho5  1  0.384014  0.250000  0.686831  1
  Ho  Ho6  1  0.616355  0.750000  0.312782  1
  Ho  Ho7  1  0.056252  0.750000  0.497689  1
  Ho  Ho8  1  0.944026  0.250000  0.502939  1
  Ho  Ho9  1  0.555732  0.250000  0.002401  1
  Ho  Ho10  1  0.443997  0.750000  0.997284  1
  Tm  Tm11  1  0.349435  0.750000  0.699220  1
  Lu  Lu12  1  0.671822  0.538561  0.563331  1
  Lu  Lu13  1  0.327991  0.462537  0.437325  1
  Lu  Lu14  1  0.171958  0.462298  0.937145  1
  Lu  Lu15  1  0.327991  0.037463  0.437325  1
  Lu  Lu16  1  0.827991  0.538016  0.062886  1
  Lu  Lu17  1  0.671822  0.961439  0.563331  1
  Lu  Lu18  1  0.827991  0.961984  0.062886  1
  Lu  Lu19  1  0.171958  0.037702  0.937145  1
  Co  Co20  1  0.064790  0.750000  0.992975  1
  Co  Co21  1  0.935221  0.250000  0.006826  1
  Co  Co22  1  0.564337  0.250000  0.506966  1
  Co  Co23  1  0.434830  0.750000  0.492962  1
  Bi  Bi24  1  0.568128  0.508614  0.826697  1
  Bi  Bi25  1  0.431220  0.491743  0.172842  1
  Bi  Bi26  1  0.069628  0.492151  0.673218  1
  Bi  Bi27  1  0.431220  0.008257  0.172842  1
  Bi  Bi28  1  0.931174  0.507926  0.327192  1
  Bi  Bi29  1  0.568128  0.991386  0.826697  1
  Bi  Bi30  1  0.931174  0.992074  0.327192  1
  Bi  Bi31  1  0.069628  0.007849  0.673218  1
