# generated using pymatgen
data_Pa(O2F7)2
_symmetry_space_group_name_H-M   'P 1'
_cell_length_a   13.06024700
_cell_length_b   6.73005624
_cell_length_c   8.97604816
_cell_angle_alpha   68.40714605
_cell_angle_beta   90.00000000
_cell_angle_gamma   90.00000000
_symmetry_Int_Tables_number   1
_chemical_formula_structural   Pa(O2F7)2
_chemical_formula_sum   'Pa2 O8 F28'
_cell_volume   733.59313518
_cell_formula_units_Z   2
loop_
 _symmetry_equiv_pos_site_id
 _symmetry_equiv_pos_as_xyz
  1  'x, y, z'
loop_
 _atom_site_type_symbol
 _atom_site_label
 _atom_site_symmetry_multiplicity
 _atom_site_fract_x
 _atom_site_fract_y
 _atom_site_fract_z
 _atom_site_occupancy
  Pa  Pa0  1  0.500000  0.500000  0.500000  1
  Pa  Pa1  1  0.000000  0.500000  0.000000  1
  O  O2  1  0.368597  0.787973  0.906825  1
  O  O3  1  0.631403  0.212027  0.093175  1
  O  O4  1  0.868597  0.212027  0.593175  1
  O  O5  1  0.131403  0.787973  0.406825  1
  O  O6  1  0.733826  0.750597  0.874261  1
  O  O7  1  0.266174  0.249403  0.125739  1
  O  O8  1  0.233826  0.249403  0.625739  1
  O  O9  1  0.766174  0.750597  0.374261  1
  F  F10  1  0.445720  0.849458  0.788539  1
  F  F11  1  0.554280  0.150542  0.211461  1
  F  F12  1  0.945720  0.150542  0.711461  1
  F  F13  1  0.054280  0.849458  0.288539  1
  F  F14  1  0.428419  0.788335  0.481420  1
  F  F15  1  0.571581  0.211665  0.518580  1
  F  F16  1  0.928419  0.211665  0.018580  1
  F  F17  1  0.071581  0.788335  0.981420  1
  F  F18  1  0.421537  0.338172  0.718195  1
  F  F19  1  0.578463  0.661828  0.281805  1
  F  F20  1  0.921537  0.661828  0.781805  1
  F  F21  1  0.078463  0.338172  0.218195  1
  F  F22  1  0.086899  0.810413  0.543682  1
  F  F23  1  0.913101  0.189587  0.456318  1
  F  F24  1  0.586899  0.189587  0.956318  1
  F  F25  1  0.413101  0.810413  0.043682  1
  F  F26  1  0.340476  0.290374  0.003298  1
  F  F27  1  0.659524  0.709626  0.996702  1
  F  F28  1  0.840476  0.709626  0.496702  1
  F  F29  1  0.159524  0.290374  0.503298  1
  F  F30  1  0.125958  0.439068  0.875859  1
  F  F31  1  0.874042  0.560932  0.124141  1
  F  F32  1  0.625958  0.560932  0.624141  1
  F  F33  1  0.374042  0.439068  0.375859  1
  F  F34  1  0.188808  0.094170  0.762052  1
  F  F35  1  0.811192  0.905830  0.237948  1
  F  F36  1  0.688808  0.905830  0.737948  1
  F  F37  1  0.311192  0.094170  0.262052  1
