# generated using pymatgen
data_Tb4PrHoTaWO14
_symmetry_space_group_name_H-M   'P 1'
_cell_length_a   6.52403068
_cell_length_b   6.53150487
_cell_length_c   7.56442268
_cell_angle_alpha   89.52255791
_cell_angle_beta   90.44921037
_cell_angle_gamma   108.79519868
_symmetry_Int_Tables_number   1
_chemical_formula_structural   Tb4PrHoTaWO14
_chemical_formula_sum   'Tb4 Pr1 Ho1 Ta1 W1 O14'
_cell_volume   305.13006819
_cell_formula_units_Z   1
loop_
 _symmetry_equiv_pos_site_id
 _symmetry_equiv_pos_as_xyz
  1  'x, y, z'
loop_
 _atom_site_type_symbol
 _atom_site_label
 _atom_site_symmetry_multiplicity
 _atom_site_fract_x
 _atom_site_fract_y
 _atom_site_fract_z
 _atom_site_occupancy
  Tb  Tb0  1  0.462896  0.461473  0.000194  1
  Tb  Tb1  1  0.999819  0.534238  0.240646  1
  Tb  Tb2  1  0.998512  0.465278  0.747080  1
  Tb  Tb3  1  0.533717  0.999551  0.759306  1
  Pr  Pr4  1  0.508384  0.508848  0.499336  1
  Ho  Ho5  1  0.465747  0.998283  0.252735  1
  Ta  Ta6  1  0.996818  0.997075  0.000384  1
  W  W7  1  0.999500  0.999462  0.499338  1
  O  O8  1  0.930383  0.067755  0.749962  1
  O  O9  1  0.070024  0.930926  0.249920  1
  O  O10  1  0.360040  0.643119  0.239933  1
  O  O11  1  0.639575  0.359086  0.759631  1
  O  O12  1  0.366658  0.632969  0.759216  1
  O  O13  1  0.631220  0.363244  0.241614  1
  O  O14  1  0.325725  0.079818  0.975376  1
  O  O15  1  0.676941  0.926696  0.472455  1
  O  O16  1  0.317453  0.065388  0.533115  1
  O  O17  1  0.694367  0.953832  0.043956  1
  O  O18  1  0.068189  0.317899  0.465950  1
  O  O19  1  0.948508  0.692906  0.959023  1
  O  O20  1  0.923723  0.676514  0.525023  1
  O  O21  1  0.081800  0.325639  0.025806  1
