# generated using pymatgen
data_Nb5Al2C3
_symmetry_space_group_name_H-M   'P 1'
_cell_length_a   16.77796750
_cell_length_b   16.77796738
_cell_length_c   16.77796765
_cell_angle_alpha   10.66463346
_cell_angle_beta   10.66463624
_cell_angle_gamma   10.66463165
_symmetry_Int_Tables_number   1
_chemical_formula_structural   Nb5Al2C3
_chemical_formula_sum   'Nb5 Al2 C3'
_cell_volume   140.48374732
_cell_formula_units_Z   1
loop_
 _symmetry_equiv_pos_site_id
 _symmetry_equiv_pos_as_xyz
  1  'x, y, z'
loop_
 _atom_site_type_symbol
 _atom_site_label
 _atom_site_symmetry_multiplicity
 _atom_site_fract_x
 _atom_site_fract_y
 _atom_site_fract_z
 _atom_site_occupancy
  Nb  Nb0  1  0.500000  0.500000  0.500000  1
  Nb  Nb1  1  0.218738  0.218738  0.218738  1
  Nb  Nb2  1  0.308210  0.308210  0.308210  1
  Nb  Nb3  1  0.691790  0.691790  0.691790  1
  Nb  Nb4  1  0.781262  0.781262  0.781262  1
  Al  Al5  1  0.403135  0.403135  0.403135  1
  Al  Al6  1  0.596865  0.596865  0.596865  1
  C  C7  1  0.140044  0.140044  0.140044  1
  C  C8  1  0.859956  0.859956  0.859956  1
  C  C9  1  0.000000  0.000000  0.000000  1
