# generated using pymatgen
data_Rb4PaRhCl12
_symmetry_space_group_name_H-M   'P 1'
_cell_length_a   7.27178100
_cell_length_b   7.27178100
_cell_length_c   10.99536600
_cell_angle_alpha   90.00000000
_cell_angle_beta   90.00000000
_cell_angle_gamma   90.00000000
_symmetry_Int_Tables_number   1
_chemical_formula_structural   Rb4PaRhCl12
_chemical_formula_sum   'Rb4 Pa1 Rh1 Cl12'
_cell_volume   581.42174768
_cell_formula_units_Z   1
loop_
 _symmetry_equiv_pos_site_id
 _symmetry_equiv_pos_as_xyz
  1  'x, y, z'
loop_
 _atom_site_type_symbol
 _atom_site_label
 _atom_site_symmetry_multiplicity
 _atom_site_fract_x
 _atom_site_fract_y
 _atom_site_fract_z
 _atom_site_occupancy
  Rb  Rb0  1  0.500000  0.000000  0.803288  1
  Rb  Rb1  1  0.000000  0.500000  0.196712  1
  Rb  Rb2  1  0.500000  0.000000  0.196712  1
  Rb  Rb3  1  0.000000  0.500000  0.803288  1
  Pa  Pa4  1  0.500000  0.500000  0.500000  1
  Rh  Rh5  1  0.000000  0.000000  0.000000  1
  Cl  Cl6  1  0.000000  0.000000  0.782758  1
  Cl  Cl7  1  0.500000  0.500000  0.264491  1
  Cl  Cl8  1  0.747211  0.747211  0.500000  1
  Cl  Cl9  1  0.231631  0.231631  0.000000  1
  Cl  Cl10  1  0.747211  0.252789  0.500000  1
  Cl  Cl11  1  0.231631  0.768369  0.000000  1
  Cl  Cl12  1  0.000000  0.000000  0.217242  1
  Cl  Cl13  1  0.500000  0.500000  0.735509  1
  Cl  Cl14  1  0.252789  0.252789  0.500000  1
  Cl  Cl15  1  0.768369  0.768369  0.000000  1
  Cl  Cl16  1  0.252789  0.747211  0.500000  1
  Cl  Cl17  1  0.768369  0.231631  0.000000  1
