# generated using pymatgen
data_SrTb5SmFeI12
_symmetry_space_group_name_H-M   'P 1'
_cell_length_a   9.88468352
_cell_length_b   9.81591046
_cell_length_c   9.80375042
_cell_angle_alpha   106.12951016
_cell_angle_beta   106.19541317
_cell_angle_gamma   106.51155703
_symmetry_Int_Tables_number   1
_chemical_formula_structural   SrTb5SmFeI12
_chemical_formula_sum   'Sr1 Tb5 Sm1 Fe1 I12'
_cell_volume   807.26341489
_cell_formula_units_Z   1
loop_
 _symmetry_equiv_pos_site_id
 _symmetry_equiv_pos_as_xyz
  1  'x, y, z'
loop_
 _atom_site_type_symbol
 _atom_site_label
 _atom_site_symmetry_multiplicity
 _atom_site_fract_x
 _atom_site_fract_y
 _atom_site_fract_z
 _atom_site_occupancy
  Sr  Sr0  1  0.500026  0.499827  0.500321  1
  Tb  Tb1  1  0.019408  0.089464  0.283678  1
  Tb  Tb2  1  0.297392  0.020645  0.093542  1
  Tb  Tb3  1  0.910342  0.717337  0.980145  1
  Tb  Tb4  1  0.980269  0.909313  0.716318  1
  Tb  Tb5  1  0.702421  0.979457  0.906452  1
  Sm  Sm6  1  0.090624  0.286875  0.019761  1
  Fe  Fe7  1  0.000364  0.001214  0.999915  1
  I  I8  1  0.450772  0.368149  0.136739  1
  I  I9  1  0.136494  0.447382  0.371371  1
  I  I10  1  0.365293  0.134054  0.446872  1
  I  I11  1  0.553910  0.632171  0.865606  1
  I  I12  1  0.864064  0.553051  0.633356  1
  I  I13  1  0.634773  0.865332  0.552903  1
  I  I14  1  0.772395  0.318351  0.924506  1
  I  I15  1  0.925454  0.775356  0.317481  1
  I  I16  1  0.318797  0.924866  0.774054  1
  I  I17  1  0.222910  0.681832  0.074377  1
  I  I18  1  0.073250  0.220877  0.676762  1
  I  I19  1  0.681041  0.074448  0.225840  1
