# generated using pymatgen
data_Y5Er2Sn23Os6
_symmetry_space_group_name_H-M   'P 1'
_cell_length_a   9.87991670
_cell_length_b   9.85558887
_cell_length_c   10.10758074
_cell_angle_alpha   89.99999780
_cell_angle_beta   90.08532054
_cell_angle_gamma   119.91858524
_symmetry_Int_Tables_number   1
_chemical_formula_structural   Y5Er2Sn23Os6
_chemical_formula_sum   'Y5 Er2 Sn23 Os6'
_cell_volume   853.03878476
_cell_formula_units_Z   1
loop_
 _symmetry_equiv_pos_site_id
 _symmetry_equiv_pos_as_xyz
  1  'x, y, z'
loop_
 _atom_site_type_symbol
 _atom_site_label
 _atom_site_symmetry_multiplicity
 _atom_site_fract_x
 _atom_site_fract_y
 _atom_site_fract_z
 _atom_site_occupancy
  Y  Y0  1  0.485968  0.514066  0.301692  1
  Y  Y1  1  0.514032  0.485934  0.698308  1
  Y  Y2  1  0.485968  0.971904  0.301692  1
  Y  Y3  1  0.514032  0.028096  0.698308  1
  Y  Y4  1  0.000000  0.000000  0.000000  1
  Er  Er5  1  0.026105  0.513054  0.300720  1
  Er  Er6  1  0.973895  0.486946  0.699280  1
  Sn  Sn7  1  0.117775  0.882201  0.276989  1
  Sn  Sn8  1  0.882225  0.117799  0.723011  1
  Sn  Sn9  1  0.117775  0.235573  0.276989  1
  Sn  Sn10  1  0.882225  0.764427  0.723011  1
  Sn  Sn11  1  0.765250  0.882624  0.277038  1
  Sn  Sn12  1  0.234750  0.117376  0.722962  1
  Sn  Sn13  1  0.779924  0.221332  0.463918  1
  Sn  Sn14  1  0.220076  0.778668  0.536082  1
  Sn  Sn15  1  0.779924  0.558592  0.463918  1
  Sn  Sn16  1  0.220076  0.441408  0.536082  1
  Sn  Sn17  1  0.440985  0.220493  0.463763  1
  Sn  Sn18  1  0.559015  0.779507  0.536237  1
  Sn  Sn19  1  0.349283  0.999893  0.999764  1
  Sn  Sn20  1  0.650717  0.000107  0.000236  1
  Sn  Sn21  1  0.000000  0.349881  0.000000  1
  Sn  Sn22  1  0.000000  0.650119  0.000000  1
  Sn  Sn23  1  0.650717  0.650610  0.000236  1
  Sn  Sn24  1  0.349283  0.349390  0.999764  1
  Sn  Sn25  1  0.332540  0.666270  0.132874  1
  Sn  Sn26  1  0.667460  0.333730  0.867126  1
  Sn  Sn27  1  0.333230  0.666615  0.828327  1
  Sn  Sn28  1  0.666770  0.333385  0.171673  1
  Sn  Sn29  1  0.000000  0.000000  0.500000  1
  Os  Os30  1  0.830713  0.171607  0.202582  1
  Os  Os31  1  0.169287  0.828393  0.797418  1
  Os  Os32  1  0.830713  0.659108  0.202582  1
  Os  Os33  1  0.169287  0.340892  0.797418  1
  Os  Os34  1  0.340503  0.170253  0.202175  1
  Os  Os35  1  0.659497  0.829747  0.797825  1
