# generated using pymatgen
data_Sr6Nd2Si12Pd3Au
_symmetry_space_group_name_H-M   'P 1'
_cell_length_a   8.40545800
_cell_length_b   8.40545823
_cell_length_c   8.84806800
_cell_angle_alpha   89.99998637
_cell_angle_beta   90.00001363
_cell_angle_gamma   119.99999123
_symmetry_Int_Tables_number   1
_chemical_formula_structural   Sr6Nd2Si12Pd3Au
_chemical_formula_sum   'Sr6 Nd2 Si12 Pd3 Au1'
_cell_volume   541.37961440
_cell_formula_units_Z   1
loop_
 _symmetry_equiv_pos_site_id
 _symmetry_equiv_pos_as_xyz
  1  'x, y, z'
loop_
 _atom_site_type_symbol
 _atom_site_label
 _atom_site_symmetry_multiplicity
 _atom_site_fract_x
 _atom_site_fract_y
 _atom_site_fract_z
 _atom_site_occupancy
  Sr  Sr0  1  0.498346  0.501654  0.747094  1
  Sr  Sr1  1  0.499418  0.500582  0.252847  1
  Sr  Sr2  1  0.003308  0.501654  0.747094  1
  Sr  Sr3  1  0.001163  0.500582  0.252847  1
  Sr  Sr4  1  0.498346  0.996691  0.747094  1
  Sr  Sr5  1  0.499418  0.998837  0.252847  1
  Nd  Nd6  1  0.000000  0.000000  0.748196  1
  Nd  Nd7  1  0.000000  0.000000  0.252031  1
  Si  Si8  1  0.840588  0.159412  0.999547  1
  Si  Si9  1  0.164784  0.835216  0.000679  1
  Si  Si10  1  0.318824  0.159413  0.999547  1
  Si  Si11  1  0.162974  0.837026  0.499180  1
  Si  Si12  1  0.670434  0.835216  0.000679  1
  Si  Si13  1  0.836764  0.163236  0.500853  1
  Si  Si14  1  0.840588  0.681176  0.999547  1
  Si  Si15  1  0.674054  0.837026  0.499180  1
  Si  Si16  1  0.164784  0.329566  0.000679  1
  Si  Si17  1  0.326472  0.163236  0.500853  1
  Si  Si18  1  0.162974  0.325946  0.499180  1
  Si  Si19  1  0.836764  0.673528  0.500853  1
  Pd  Pd20  1  0.333333  0.666667  0.000822  1
  Pd  Pd21  1  0.333333  0.666667  0.499105  1
  Pd  Pd22  1  0.666667  0.333333  0.500852  1
  Au  Au23  1  0.666667  0.333333  0.998395  1
