# generated using pymatgen
data_Mg4As6Ir3(RuRh)2
_symmetry_space_group_name_H-M   'P 1'
_cell_length_a   7.06295309
_cell_length_b   7.06241862
_cell_length_c   7.06241635
_cell_angle_alpha   109.40679155
_cell_angle_beta   109.61695101
_cell_angle_gamma   109.38686916
_symmetry_Int_Tables_number   1
_chemical_formula_structural   Mg4As6Ir3(RuRh)2
_chemical_formula_sum   'Mg4 As6 Ir3 Ru2 Rh2'
_cell_volume   271.19766010
_cell_formula_units_Z   1
loop_
 _symmetry_equiv_pos_site_id
 _symmetry_equiv_pos_as_xyz
  1  'x, y, z'
loop_
 _atom_site_type_symbol
 _atom_site_label
 _atom_site_symmetry_multiplicity
 _atom_site_fract_x
 _atom_site_fract_y
 _atom_site_fract_z
 _atom_site_occupancy
  Mg  Mg0  1  0.000224  0.000505  0.500247  1
  Mg  Mg1  1  0.499774  0.999532  0.999777  1
  Mg  Mg2  1  0.000223  0.499976  0.999719  1
  Mg  Mg3  1  0.499772  0.499997  0.500240  1
  As  As4  1  0.684986  0.688634  0.996351  1
  As  As5  1  0.307647  0.311380  0.996268  1
  As  As6  1  0.003740  0.688571  0.692130  1
  As  As7  1  0.003740  0.311611  0.315169  1
  As  As8  1  0.689583  0.999897  0.689685  1
  As  As9  1  0.310175  0.999840  0.310335  1
  Ir  Ir10  1  0.748669  0.249622  0.499044  1
  Ir  Ir11  1  0.501064  0.249468  0.750511  1
  Ir  Ir12  1  0.501066  0.750553  0.251596  1
  Ru  Ru13  1  0.999998  0.999993  0.000007  1
  Ru  Ru14  1  0.249744  0.499933  0.749812  1
  Rh  Rh15  1  0.750153  0.500037  0.250119  1
  Rh  Rh16  1  0.249439  0.750449  0.498989  1
