# generated using pymatgen
data_Gd5HoNbO12
_symmetry_space_group_name_H-M   'P 1'
_cell_length_a   6.55965573
_cell_length_b   6.54139775
_cell_length_c   6.54913115
_cell_angle_alpha   98.54318902
_cell_angle_beta   98.68163036
_cell_angle_gamma   98.83972073
_symmetry_Int_Tables_number   1
_chemical_formula_structural   Gd5HoNbO12
_chemical_formula_sum   'Gd5 Ho1 Nb1 O12'
_cell_volume   270.22271996
_cell_formula_units_Z   1
loop_
 _symmetry_equiv_pos_site_id
 _symmetry_equiv_pos_as_xyz
  1  'x, y, z'
loop_
 _atom_site_type_symbol
 _atom_site_label
 _atom_site_symmetry_multiplicity
 _atom_site_fract_x
 _atom_site_fract_y
 _atom_site_fract_z
 _atom_site_occupancy
  Gd  Gd0  1  0.610945  0.301566  0.137645  1
  Gd  Gd1  1  0.302285  0.141234  0.610749  1
  Gd  Gd2  1  0.699351  0.861414  0.391323  1
  Gd  Gd3  1  0.390023  0.695314  0.859907  1
  Gd  Gd4  1  0.138100  0.608100  0.302449  1
  Ho  Ho5  1  0.861164  0.388607  0.697941  1
  Nb  Nb6  1  0.999516  0.998204  0.998762  1
  O  O7  1  0.927884  0.046542  0.697659  1
  O  O8  1  0.958435  0.303010  0.069686  1
  O  O9  1  0.591940  0.179322  0.438358  1
  O  O10  1  0.822399  0.562996  0.415654  1
  O  O11  1  0.301980  0.071299  0.958797  1
  O  O12  1  0.567450  0.411966  0.822204  1
  O  O13  1  0.435439  0.588666  0.177752  1
  O  O14  1  0.697620  0.928458  0.041749  1
  O  O15  1  0.174959  0.435318  0.589737  1
  O  O16  1  0.411835  0.824074  0.564081  1
  O  O17  1  0.036922  0.695904  0.923928  1
  O  O18  1  0.071751  0.958004  0.301621  1
