# generated using pymatgen
data_TbDyTi3P7Rh9
_symmetry_space_group_name_H-M   'P 1'
_cell_length_a   3.83312600
_cell_length_b   9.66905721
_cell_length_c   9.66860220
_cell_angle_alpha   119.98741534
_cell_angle_beta   89.99937264
_cell_angle_gamma   90.00072738
_symmetry_Int_Tables_number   1
_chemical_formula_structural   TbDyTi3P7Rh9
_chemical_formula_sum   'Tb1 Dy1 Ti3 P7 Rh9'
_cell_volume   310.37491147
_cell_formula_units_Z   1
loop_
 _symmetry_equiv_pos_site_id
 _symmetry_equiv_pos_as_xyz
  1  'x, y, z'
loop_
 _atom_site_type_symbol
 _atom_site_label
 _atom_site_symmetry_multiplicity
 _atom_site_fract_x
 _atom_site_fract_y
 _atom_site_fract_z
 _atom_site_occupancy
  Tb  Tb0  1  0.261643  0.666637  0.333310  1
  Dy  Dy1  1  0.761737  0.333450  0.666668  1
  Ti  Ti2  1  0.762131  0.100139  0.878787  1
  Ti  Ti3  1  0.762153  0.121041  0.221265  1
  Ti  Ti4  1  0.762127  0.778705  0.899932  1
  P  P5  1  0.262660  0.999840  0.999967  1
  P  P6  1  0.761777  0.876641  0.589040  1
  P  P7  1  0.761788  0.410762  0.287528  1
  P  P8  1  0.761755  0.712436  0.123374  1
  P  P9  1  0.261836  0.116209  0.416806  1
  P  P10  1  0.261863  0.583311  0.699359  1
  P  P11  1  0.261835  0.300718  0.883957  1
  Rh  Rh12  1  0.261791  0.884071  0.159695  1
  Rh  Rh13  1  0.261892  0.840471  0.724318  1
  Rh  Rh14  1  0.261830  0.275317  0.115872  1
  Rh  Rh15  1  0.761909  0.610066  0.558520  1
  Rh  Rh16  1  0.761854  0.441409  0.051571  1
  Rh  Rh17  1  0.761778  0.948625  0.390068  1
  Rh  Rh18  1  0.261971  0.365168  0.436282  1
  Rh  Rh19  1  0.261890  0.563534  0.928753  1
  Rh  Rh20  1  0.261779  0.071447  0.634932  1
