# generated using pymatgen
data_Nd5DyY2(Si3Rh)4
_symmetry_space_group_name_H-M   'P 1'
_cell_length_a   8.23816244
_cell_length_b   8.24284187
_cell_length_c   8.19335600
_cell_angle_alpha   90.00000000
_cell_angle_beta   90.00000000
_cell_angle_gamma   120.01878469
_symmetry_Int_Tables_number   1
_chemical_formula_structural   Nd5DyY2(Si3Rh)4
_chemical_formula_sum   'Nd5 Dy1 Y2 Si12 Rh4'
_cell_volume   481.74535888
_cell_formula_units_Z   1
loop_
 _symmetry_equiv_pos_site_id
 _symmetry_equiv_pos_as_xyz
  1  'x, y, z'
loop_
 _atom_site_type_symbol
 _atom_site_label
 _atom_site_symmetry_multiplicity
 _atom_site_fract_x
 _atom_site_fract_y
 _atom_site_fract_z
 _atom_site_occupancy
  Nd  Nd0  1  0.000065  0.000033  0.250000  1
  Nd  Nd1  1  0.999995  0.999998  0.750000  1
  Nd  Nd2  1  0.504394  0.495542  0.250000  1
  Nd  Nd3  1  0.504394  0.008852  0.250000  1
  Nd  Nd4  1  0.991098  0.495549  0.250000  1
  Dy  Dy5  1  0.014436  0.507217  0.750000  1
  Y  Y6  1  0.492692  0.507278  0.750000  1
  Y  Y7  1  0.492692  0.985411  0.750000  1
  Si  Si8  1  0.166629  0.833278  0.505941  1
  Si  Si9  1  0.166629  0.333352  0.505941  1
  Si  Si10  1  0.666643  0.833322  0.505844  1
  Si  Si11  1  0.831776  0.168307  0.503176  1
  Si  Si12  1  0.831776  0.663468  0.503176  1
  Si  Si13  1  0.336524  0.168261  0.503047  1
  Si  Si14  1  0.831776  0.168307  0.996824  1
  Si  Si15  1  0.831776  0.663468  0.996824  1
  Si  Si16  1  0.336524  0.168261  0.996953  1
  Si  Si17  1  0.166629  0.833278  0.994059  1
  Si  Si18  1  0.166629  0.333352  0.994059  1
  Si  Si19  1  0.666643  0.833322  0.994156  1
  Rh  Rh20  1  0.333086  0.666543  0.490877  1
  Rh  Rh21  1  0.667056  0.333527  0.542303  1
  Rh  Rh22  1  0.667056  0.333527  0.957697  1
  Rh  Rh23  1  0.333086  0.666543  0.009123  1
