# generated using pymatgen
data_Nd5Pb3O
_symmetry_space_group_name_H-M   'P 1'
_cell_length_a   9.45554782
_cell_length_b   9.45554770
_cell_length_c   9.45554724
_cell_angle_alpha   125.87043132
_cell_angle_beta   125.87042858
_cell_angle_gamma   80.10120224
_symmetry_Int_Tables_number   1
_chemical_formula_structural   Nd5Pb3O
_chemical_formula_sum   'Nd10 Pb6 O2'
_cell_volume   535.88333674
_cell_formula_units_Z   2
loop_
 _symmetry_equiv_pos_site_id
 _symmetry_equiv_pos_as_xyz
  1  'x, y, z'
loop_
 _atom_site_type_symbol
 _atom_site_label
 _atom_site_symmetry_multiplicity
 _atom_site_fract_x
 _atom_site_fract_y
 _atom_site_fract_z
 _atom_site_occupancy
  Nd  Nd0  1  0.999838  0.198612  0.500000  1
  Nd  Nd1  1  0.801388  0.301388  0.801227  1
  Nd  Nd2  1  0.499838  0.999838  0.801227  1
  Nd  Nd3  1  0.500162  0.000162  0.198773  1
  Nd  Nd4  1  0.000162  0.801388  0.500000  1
  Nd  Nd5  1  0.500000  0.500000  0.000000  1
  Nd  Nd6  1  0.198612  0.698612  0.198773  1
  Nd  Nd7  1  0.698612  0.499838  0.500000  1
  Nd  Nd8  1  0.301388  0.500162  0.500000  1
  Nd  Nd9  1  0.000000  0.000000  0.000000  1
  Pb  Pb10  1  0.853845  0.353845  0.207689  1
  Pb  Pb11  1  0.146155  0.646155  0.792311  1
  Pb  Pb12  1  0.353845  0.146155  0.500000  1
  Pb  Pb13  1  0.750000  0.750000  0.000000  1
  Pb  Pb14  1  0.646155  0.853845  0.500000  1
  Pb  Pb15  1  0.250000  0.250000  0.000000  1
  O  O16  1  0.750000  0.250000  0.500000  1
  O  O17  1  0.250000  0.750000  0.500000  1
