# generated using pymatgen
data_Dy2SiPdBr2
_symmetry_space_group_name_H-M   'P 1'
_cell_length_a   4.11037100
_cell_length_b   4.11037187
_cell_length_c   11.25905000
_cell_angle_alpha   90.00000000
_cell_angle_beta   90.00000000
_cell_angle_gamma   119.99998494
_symmetry_Int_Tables_number   1
_chemical_formula_structural   Dy2SiPdBr2
_chemical_formula_sum   'Dy2 Si1 Pd1 Br2'
_cell_volume   164.73830120
_cell_formula_units_Z   1
loop_
 _symmetry_equiv_pos_site_id
 _symmetry_equiv_pos_as_xyz
  1  'x, y, z'
loop_
 _atom_site_type_symbol
 _atom_site_label
 _atom_site_symmetry_multiplicity
 _atom_site_fract_x
 _atom_site_fract_y
 _atom_site_fract_z
 _atom_site_occupancy
  Dy  Dy0  1  0.000000  0.000000  0.169287  1
  Dy  Dy1  1  0.000000  0.000000  0.829307  1
  Si  Si2  1  0.666667  0.333333  0.988866  1
  Pd  Pd3  1  0.333333  0.666667  0.011528  1
  Br  Br4  1  0.333333  0.666667  0.670481  1
  Br  Br5  1  0.666667  0.333333  0.330528  1
