# generated using pymatgen
data_NaAc2CoO6
_symmetry_space_group_name_H-M   'P 1'
_cell_length_a   5.61654894
_cell_length_b   5.61654960
_cell_length_c   5.61655054
_cell_angle_alpha   61.86889481
_cell_angle_beta   61.86889038
_cell_angle_gamma   61.86889425
_symmetry_Int_Tables_number   1
_chemical_formula_structural   NaAc2CoO6
_chemical_formula_sum   'Na1 Ac2 Co1 O6'
_cell_volume   130.52561656
_cell_formula_units_Z   1
loop_
 _symmetry_equiv_pos_site_id
 _symmetry_equiv_pos_as_xyz
  1  'x, y, z'
loop_
 _atom_site_type_symbol
 _atom_site_label
 _atom_site_symmetry_multiplicity
 _atom_site_fract_x
 _atom_site_fract_y
 _atom_site_fract_z
 _atom_site_occupancy
  Na  Na0  1  0.169380  0.169380  0.169380  1
  Ac  Ac1  1  0.917208  0.917208  0.917208  1
  Ac  Ac2  1  0.421609  0.421609  0.421609  1
  Co  Co3  1  0.669471  0.669471  0.669471  1
  O  O4  1  0.960273  0.450382  0.834254  1
  O  O5  1  0.378302  0.888062  0.504518  1
  O  O6  1  0.450382  0.834254  0.960273  1
  O  O7  1  0.504518  0.378302  0.888062  1
  O  O8  1  0.834254  0.960273  0.450382  1
  O  O9  1  0.888062  0.504518  0.378302  1
