# generated using pymatgen
data_Zr10Ga5Se
_symmetry_space_group_name_H-M   'P 1'
_cell_length_a   8.14768175
_cell_length_b   8.14768265
_cell_length_c   5.67978100
_cell_angle_alpha   90.00000000
_cell_angle_beta   90.00000000
_cell_angle_gamma   120.09410819
_symmetry_Int_Tables_number   1
_chemical_formula_structural   Zr10Ga5Se
_chemical_formula_sum   'Zr10 Ga5 Se1'
_cell_volume   326.22539260
_cell_formula_units_Z   1
loop_
 _symmetry_equiv_pos_site_id
 _symmetry_equiv_pos_as_xyz
  1  'x, y, z'
loop_
 _atom_site_type_symbol
 _atom_site_label
 _atom_site_symmetry_multiplicity
 _atom_site_fract_x
 _atom_site_fract_y
 _atom_site_fract_z
 _atom_site_occupancy
  Zr  Zr0  1  0.665925  0.331707  0.002127  1
  Zr  Zr1  1  0.331707  0.665925  0.002127  1
  Zr  Zr2  1  0.331707  0.665925  0.497873  1
  Zr  Zr3  1  0.665925  0.331707  0.497873  1
  Zr  Zr4  1  0.757153  0.757153  0.750000  1
  Zr  Zr5  1  0.243975  0.998533  0.750000  1
  Zr  Zr6  1  0.998533  0.243975  0.750000  1
  Zr  Zr7  1  0.247599  0.247599  0.250000  1
  Zr  Zr8  1  0.756711  0.002608  0.250000  1
  Zr  Zr9  1  0.002608  0.756711  0.250000  1
  Ga  Ga10  1  0.609459  0.999346  0.750000  1
  Ga  Ga11  1  0.999346  0.609459  0.750000  1
  Ga  Ga12  1  0.614193  0.614193  0.250000  1
  Ga  Ga13  1  0.390430  0.998525  0.250000  1
  Ga  Ga14  1  0.998525  0.390430  0.250000  1
  Se  Se15  1  0.386202  0.386202  0.750000  1
