# generated using pymatgen
data_PaCr5P3
_symmetry_space_group_name_H-M   'P 1'
_cell_length_a   3.77331600
_cell_length_b   6.78991934
_cell_length_c   9.52066266
_cell_angle_alpha   80.99610164
_cell_angle_beta   90.00000000
_cell_angle_gamma   90.00000000
_symmetry_Int_Tables_number   1
_chemical_formula_structural   PaCr5P3
_chemical_formula_sum   'Pa2 Cr10 P6'
_cell_volume   240.91853626
_cell_formula_units_Z   2
loop_
 _symmetry_equiv_pos_site_id
 _symmetry_equiv_pos_as_xyz
  1  'x, y, z'
loop_
 _atom_site_type_symbol
 _atom_site_label
 _atom_site_symmetry_multiplicity
 _atom_site_fract_x
 _atom_site_fract_y
 _atom_site_fract_z
 _atom_site_occupancy
  Pa  Pa0  1  0.250000  0.183842  0.218444  1
  Pa  Pa1  1  0.750000  0.816158  0.781556  1
  Cr  Cr2  1  0.250000  0.677784  0.278775  1
  Cr  Cr3  1  0.750000  0.322216  0.721225  1
  Cr  Cr4  1  0.250000  0.839480  0.509410  1
  Cr  Cr5  1  0.750000  0.160520  0.490590  1
  Cr  Cr6  1  0.250000  0.460051  0.928156  1
  Cr  Cr7  1  0.750000  0.539949  0.071844  1
  Cr  Cr8  1  0.250000  0.088040  0.900468  1
  Cr  Cr9  1  0.750000  0.911960  0.099532  1
  Cr  Cr10  1  0.250000  0.398166  0.486677  1
  Cr  Cr11  1  0.750000  0.601834  0.513323  1
  P  P12  1  0.250000  0.554028  0.685366  1
  P  P13  1  0.750000  0.445972  0.314634  1
  P  P14  1  0.250000  0.760758  0.020438  1
  P  P15  1  0.750000  0.239242  0.979562  1
  P  P16  1  0.250000  0.102940  0.652203  1
  P  P17  1  0.750000  0.897060  0.347797  1
