# generated using pymatgen
data_Hf3Sc4(TiSn2)5
_symmetry_space_group_name_H-M   'P 1'
_cell_length_a   10.76545552
_cell_length_b   10.75148751
_cell_length_c   10.75148692
_cell_angle_alpha   149.11889565
_cell_angle_beta   131.80173435
_cell_angle_gamma   58.33356568
_symmetry_Int_Tables_number   1
_chemical_formula_structural   Hf3Sc4(TiSn2)5
_chemical_formula_sum   'Hf3 Sc4 Ti5 Sn10'
_cell_volume   472.51252540
_cell_formula_units_Z   1
loop_
 _symmetry_equiv_pos_site_id
 _symmetry_equiv_pos_as_xyz
  1  'x, y, z'
loop_
 _atom_site_type_symbol
 _atom_site_label
 _atom_site_symmetry_multiplicity
 _atom_site_fract_x
 _atom_site_fract_y
 _atom_site_fract_z
 _atom_site_occupancy
  Hf  Hf0  1  0.325709  0.564402  0.761306  1
  Hf  Hf1  1  0.196759  0.935132  0.261627  1
  Hf  Hf2  1  0.802478  0.065394  0.737084  1
  Sc  Sc3  1  0.252606  0.144643  0.107962  1
  Sc  Sc4  1  0.747427  0.855805  0.891624  1
  Sc  Sc5  1  0.035959  0.644599  0.391359  1
  Sc  Sc6  1  0.966894  0.356411  0.610482  1
  Ti  Ti7  1  0.310126  0.560796  0.250935  1
  Ti  Ti8  1  0.689598  0.439950  0.750513  1
  Ti  Ti9  1  0.689598  0.939086  0.249648  1
  Ti  Ti10  1  0.310126  0.059191  0.749330  1
  Ti  Ti11  1  0.673375  0.435544  0.237833  1
  Sn  Sn12  1  0.589994  0.289846  0.300148  1
  Sn  Sn13  1  0.413581  0.713662  0.699919  1
  Sn  Sn14  1  0.985963  0.786340  0.199623  1
  Sn  Sn15  1  0.014476  0.214038  0.800437  1
  Sn  Sn16  1  0.994922  0.250141  0.247661  1
  Sn  Sn17  1  0.994922  0.747261  0.744781  1
  Sn  Sn18  1  0.467967  0.071226  0.396740  1
  Sn  Sn19  1  0.532052  0.928819  0.603234  1
  Sn  Sn20  1  0.673250  0.568662  0.104587  1
  Sn  Sn21  1  0.332215  0.429050  0.903166  1
