# generated using pymatgen
data_Sm2BeTc16C3
_symmetry_space_group_name_H-M   'P 1'
_cell_length_a   6.94622814
_cell_length_b   6.94622759
_cell_length_c   6.97369506
_cell_angle_alpha   82.78362027
_cell_angle_beta   82.78361766
_cell_angle_gamma   82.41132737
_symmetry_Int_Tables_number   1
_chemical_formula_structural   Sm2BeTc16C3
_chemical_formula_sum   'Sm2 Be1 Tc16 C3'
_cell_volume   328.85239954
_cell_formula_units_Z   1
loop_
 _symmetry_equiv_pos_site_id
 _symmetry_equiv_pos_as_xyz
  1  'x, y, z'
loop_
 _atom_site_type_symbol
 _atom_site_label
 _atom_site_symmetry_multiplicity
 _atom_site_fract_x
 _atom_site_fract_y
 _atom_site_fract_z
 _atom_site_occupancy
  Sm  Sm0  1  0.652418  0.652418  0.653544  1
  Sm  Sm1  1  0.347582  0.347582  0.346456  1
  Be  Be2  1  0.000000  0.000000  0.500000  1
  Tc  Tc3  1  0.500000  0.000000  0.000000  1
  Tc  Tc4  1  0.000000  0.500000  0.000000  1
  Tc  Tc5  1  0.723736  0.276264  0.000000  1
  Tc  Tc6  1  0.996974  0.728392  0.283010  1
  Tc  Tc7  1  0.271608  0.003026  0.716990  1
  Tc  Tc8  1  0.003026  0.271608  0.716990  1
  Tc  Tc9  1  0.728392  0.996974  0.283010  1
  Tc  Tc10  1  0.276264  0.723736  0.000000  1
  Tc  Tc11  1  0.352907  0.352907  0.856360  1
  Tc  Tc12  1  0.861611  0.342247  0.350580  1
  Tc  Tc13  1  0.342247  0.861611  0.350580  1
  Tc  Tc14  1  0.647093  0.647093  0.143640  1
  Tc  Tc15  1  0.138389  0.657753  0.649420  1
  Tc  Tc16  1  0.657753  0.138389  0.649420  1
  Tc  Tc17  1  0.900810  0.900810  0.904462  1
  Tc  Tc18  1  0.099190  0.099190  0.095538  1
  C  C19  1  0.500000  0.500000  0.000000  1
  C  C20  1  0.000000  0.500000  0.500000  1
  C  C21  1  0.500000  0.000000  0.500000  1
