# generated using pymatgen
data_Pr16MgCd3CoIr3
_symmetry_space_group_name_H-M   'P 1'
_cell_length_a   9.99293398
_cell_length_b   9.99397676
_cell_length_c   9.99398180
_cell_angle_alpha   60.30249348
_cell_angle_beta   60.30428697
_cell_angle_gamma   60.30434839
_symmetry_Int_Tables_number   1
_chemical_formula_structural   Pr16MgCd3CoIr3
_chemical_formula_sum   'Pr16 Mg1 Cd3 Co1 Ir3'
_cell_volume   710.60688218
_cell_formula_units_Z   1
loop_
 _symmetry_equiv_pos_site_id
 _symmetry_equiv_pos_as_xyz
  1  'x, y, z'
loop_
 _atom_site_type_symbol
 _atom_site_label
 _atom_site_symmetry_multiplicity
 _atom_site_fract_x
 _atom_site_fract_y
 _atom_site_fract_z
 _atom_site_occupancy
  Pr  Pr0  1  0.348190  0.348189  0.348189  1
  Pr  Pr1  1  0.345170  0.345093  0.957901  1
  Pr  Pr2  1  0.345170  0.957901  0.345093  1
  Pr  Pr3  1  0.957944  0.345122  0.345122  1
  Pr  Pr4  1  0.813452  0.190584  0.190584  1
  Pr  Pr5  1  0.189448  0.809884  0.809886  1
  Pr  Pr6  1  0.190590  0.813462  0.190581  1
  Pr  Pr7  1  0.809863  0.189461  0.809879  1
  Pr  Pr8  1  0.190589  0.190581  0.813462  1
  Pr  Pr9  1  0.809863  0.809880  0.189460  1
  Pr  Pr10  1  0.940177  0.560819  0.560820  1
  Pr  Pr11  1  0.562144  0.938943  0.938944  1
  Pr  Pr12  1  0.560772  0.940203  0.560800  1
  Pr  Pr13  1  0.938951  0.562130  0.938980  1
  Pr  Pr14  1  0.560772  0.560800  0.940203  1
  Pr  Pr15  1  0.938952  0.938980  0.562130  1
  Mg  Mg16  1  0.574777  0.574790  0.574790  1
  Cd  Cd17  1  0.580992  0.580983  0.258537  1
  Cd  Cd18  1  0.580992  0.258537  0.580983  1
  Cd  Cd19  1  0.258540  0.580989  0.580989  1
  Co  Co20  1  0.141215  0.141209  0.141209  1
  Ir  Ir21  1  0.142629  0.142641  0.576179  1
  Ir  Ir22  1  0.142629  0.576179  0.142641  1
  Ir  Ir23  1  0.576178  0.142634  0.142634  1
