# generated using pymatgen
data_Nd18Tm2Ir5Rh7
_symmetry_space_group_name_H-M   'P 1'
_cell_length_a   11.19503972
_cell_length_b   11.19503926
_cell_length_c   6.58531615
_cell_angle_alpha   90.02192427
_cell_angle_beta   90.02193183
_cell_angle_gamma   90.01821691
_symmetry_Int_Tables_number   1
_chemical_formula_structural   Nd18Tm2Ir5Rh7
_chemical_formula_sum   'Nd18 Tm2 Ir5 Rh7'
_cell_volume   825.33032709
_cell_formula_units_Z   1
loop_
 _symmetry_equiv_pos_site_id
 _symmetry_equiv_pos_as_xyz
  1  'x, y, z'
loop_
 _atom_site_type_symbol
 _atom_site_label
 _atom_site_symmetry_multiplicity
 _atom_site_fract_x
 _atom_site_fract_y
 _atom_site_fract_z
 _atom_site_occupancy
  Nd  Nd0  1  0.292216  0.088526  0.381748  1
  Nd  Nd1  1  0.292259  0.908913  0.883241  1
  Nd  Nd2  1  0.707135  0.090618  0.882510  1
  Nd  Nd3  1  0.706707  0.909217  0.381714  1
  Nd  Nd4  1  0.587425  0.786605  0.884066  1
  Nd  Nd5  1  0.586991  0.213389  0.384015  1
  Nd  Nd6  1  0.411168  0.787079  0.384277  1
  Nd  Nd7  1  0.412633  0.213163  0.883826  1
  Nd  Nd8  1  0.213395  0.412575  0.615934  1
  Nd  Nd9  1  0.212921  0.588832  0.115723  1
  Nd  Nd10  1  0.786611  0.413009  0.115985  1
  Nd  Nd11  1  0.786837  0.587367  0.616174  1
  Nd  Nd12  1  0.911474  0.707784  0.118252  1
  Nd  Nd13  1  0.909382  0.292865  0.617490  1
  Nd  Nd14  1  0.091087  0.707741  0.616759  1
  Nd  Nd15  1  0.090783  0.293293  0.118286  1
  Nd  Nd16  1  0.999661  0.999705  0.500292  1
  Nd  Nd17  1  0.000295  0.000339  0.999708  1
  Tm  Tm18  1  0.499878  0.499858  0.000197  1
  Tm  Tm19  1  0.500142  0.500122  0.499803  1
  Ir  Ir20  1  0.154372  0.845628  0.250000  1
  Ir  Ir21  1  0.647760  0.352240  0.750000  1
  Ir  Ir22  1  0.648098  0.647618  0.249801  1
  Ir  Ir23  1  0.352382  0.351902  0.250199  1
  Ir  Ir24  1  0.352715  0.647285  0.750000  1
  Rh  Rh25  1  0.845417  0.154583  0.250000  1
  Rh  Rh26  1  0.844469  0.844992  0.749795  1
  Rh  Rh27  1  0.155008  0.155531  0.750205  1
  Rh  Rh28  1  0.500953  0.000393  0.119871  1
  Rh  Rh29  1  0.500507  0.000286  0.620840  1
  Rh  Rh30  1  0.999714  0.499493  0.879160  1
  Rh  Rh31  1  0.999607  0.499047  0.380129  1
