# generated using pymatgen
data_Er2Lu4Co17P12W
_symmetry_space_group_name_H-M   'P 1'
_cell_length_a   3.66903300
_cell_length_b   10.47060700
_cell_length_c   12.12703500
_cell_angle_alpha   90.00000000
_cell_angle_beta   90.00000000
_cell_angle_gamma   90.00000000
_symmetry_Int_Tables_number   1
_chemical_formula_structural   Er2Lu4Co17P12W
_chemical_formula_sum   'Er2 Lu4 Co17 P12 W1'
_cell_volume   465.88433528
_cell_formula_units_Z   1
loop_
 _symmetry_equiv_pos_site_id
 _symmetry_equiv_pos_as_xyz
  1  'x, y, z'
loop_
 _atom_site_type_symbol
 _atom_site_label
 _atom_site_symmetry_multiplicity
 _atom_site_fract_x
 _atom_site_fract_y
 _atom_site_fract_z
 _atom_site_occupancy
  Er  Er0  1  0.000000  0.500000  0.526312  1
  Er  Er1  1  0.500000  0.000000  0.476612  1
  Lu  Lu2  1  0.500000  0.819237  0.206884  1
  Lu  Lu3  1  0.500000  0.180763  0.206884  1
  Lu  Lu4  1  0.000000  0.682016  0.795800  1
  Lu  Lu5  1  0.000000  0.317984  0.795800  1
  Co  Co6  1  0.000000  0.000000  0.838989  1
  Co  Co7  1  0.500000  0.500000  0.701758  1
  Co  Co8  1  0.000000  0.000000  0.296401  1
  Co  Co9  1  0.000000  0.500000  0.986104  1
  Co  Co10  1  0.500000  0.000000  0.014805  1
  Co  Co11  1  0.500000  0.331425  0.989731  1
  Co  Co12  1  0.500000  0.668575  0.989731  1
  Co  Co13  1  0.000000  0.165760  0.005909  1
  Co  Co14  1  0.000000  0.834240  0.005909  1
  Co  Co15  1  0.500000  0.295312  0.431956  1
  Co  Co16  1  0.500000  0.704688  0.431956  1
  Co  Co17  1  0.000000  0.202607  0.569493  1
  Co  Co18  1  0.000000  0.797393  0.569493  1
  Co  Co19  1  0.500000  0.878149  0.708351  1
  Co  Co20  1  0.500000  0.121851  0.708351  1
  Co  Co21  1  0.000000  0.623223  0.292306  1
  Co  Co22  1  0.000000  0.376777  0.292306  1
  P  P23  1  0.500000  0.500000  0.879130  1
  P  P24  1  0.000000  0.000000  0.118499  1
  P  P25  1  0.500000  0.500000  0.352548  1
  P  P26  1  0.000000  0.000000  0.654505  1
  P  P27  1  0.500000  0.311265  0.617960  1
  P  P28  1  0.500000  0.688735  0.617960  1
  P  P29  1  0.000000  0.187522  0.383873  1
  P  P30  1  0.000000  0.812478  0.383873  1
  P  P31  1  0.500000  0.849253  0.889932  1
  P  P32  1  0.500000  0.150747  0.889932  1
  P  P33  1  0.000000  0.658719  0.106558  1
  P  P34  1  0.000000  0.341281  0.106558  1
  W  W35  1  0.500000  0.500000  0.156836  1
