# generated using pymatgen
data_Dy2Y10InCo4Os
_symmetry_space_group_name_H-M   'P 1'
_cell_length_a   8.33153477
_cell_length_b   8.33948080
_cell_length_c   8.33153550
_cell_angle_alpha   111.45012806
_cell_angle_beta   110.36026711
_cell_angle_gamma   106.60461858
_symmetry_Int_Tables_number   1
_chemical_formula_structural   Dy2Y10InCo4Os
_chemical_formula_sum   'Dy2 Y10 In1 Co4 Os1'
_cell_volume   444.96355817
_cell_formula_units_Z   1
loop_
 _symmetry_equiv_pos_site_id
 _symmetry_equiv_pos_as_xyz
  1  'x, y, z'
loop_
 _atom_site_type_symbol
 _atom_site_label
 _atom_site_symmetry_multiplicity
 _atom_site_fract_x
 _atom_site_fract_y
 _atom_site_fract_z
 _atom_site_occupancy
  Dy  Dy0  1  0.315260  0.007795  0.692536  1
  Dy  Dy1  1  0.684740  0.992205  0.307464  1
  Y  Y2  1  0.413233  0.219833  0.192788  1
  Y  Y3  1  0.586767  0.780167  0.807212  1
  Y  Y4  1  0.027046  0.219833  0.806598  1
  Y  Y5  1  0.972954  0.780167  0.193402  1
  Y  Y6  1  0.181267  0.280648  0.462221  1
  Y  Y7  1  0.818733  0.719352  0.537779  1
  Y  Y8  1  0.181574  0.719352  0.900619  1
  Y  Y9  1  0.818426  0.280648  0.099381  1
  Y  Y10  1  0.315161  0.621009  0.305848  1
  Y  Y11  1  0.684839  0.378991  0.694152  1
  In  In12  1  0.500000  0.500000  0.000000  1
  Co  Co13  1  0.378550  0.000000  0.378550  1
  Co  Co14  1  0.621450  0.000000  0.621450  1
  Co  Co15  1  0.110455  0.611109  0.500654  1
  Co  Co16  1  0.889545  0.388891  0.499346  1
  Os  Os17  1  0.000000  0.000000  0.000000  1
