# generated using pymatgen
data_La6Pr2Cd2OsPd
_symmetry_space_group_name_H-M   'P 1'
_cell_length_a   10.11636165
_cell_length_b   10.11212057
_cell_length_c   10.22909089
_cell_angle_alpha   59.64416255
_cell_angle_beta   59.60316025
_cell_angle_gamma   59.64272890
_symmetry_Int_Tables_number   1
_chemical_formula_structural   La6Pr2Cd2OsPd
_chemical_formula_sum   'La12 Pr4 Cd4 Os2 Pd2'
_cell_volume   733.70522409
_cell_formula_units_Z   2
loop_
 _symmetry_equiv_pos_site_id
 _symmetry_equiv_pos_as_xyz
  1  'x, y, z'
loop_
 _atom_site_type_symbol
 _atom_site_label
 _atom_site_symmetry_multiplicity
 _atom_site_fract_x
 _atom_site_fract_y
 _atom_site_fract_z
 _atom_site_occupancy
  La  La0  1  0.347067  0.346482  0.356070  1
  La  La1  1  0.346482  0.347067  0.950382  1
  La  La2  1  0.342511  0.958953  0.349632  1
  La  La3  1  0.958953  0.342511  0.348905  1
  La  La4  1  0.816569  0.189663  0.192160  1
  La  La5  1  0.189663  0.816569  0.801609  1
  La  La6  1  0.189275  0.816915  0.191944  1
  La  La7  1  0.816915  0.189275  0.801867  1
  La  La8  1  0.188630  0.188630  0.811370  1
  La  La9  1  0.804484  0.804484  0.195516  1
  La  La10  1  0.937005  0.557078  0.566823  1
  La  La11  1  0.557078  0.937005  0.939093  1
  Pr  Pr12  1  0.557873  0.937367  0.566129  1
  Pr  Pr13  1  0.937367  0.557873  0.938630  1
  Pr  Pr14  1  0.563431  0.563431  0.936569  1
  Pr  Pr15  1  0.938463  0.938463  0.561537  1
  Cd  Cd16  1  0.579121  0.579855  0.580295  1
  Cd  Cd17  1  0.579855  0.579121  0.260729  1
  Cd  Cd18  1  0.580875  0.258787  0.579837  1
  Cd  Cd19  1  0.258787  0.580875  0.580498  1
  Os  Os20  1  0.143953  0.143144  0.136095  1
  Os  Os21  1  0.143144  0.143953  0.576808  1
  Pd  Pd22  1  0.147002  0.575493  0.138528  1
  Pd  Pd23  1  0.575493  0.147002  0.138975  1
