# generated using pymatgen
data_Ho19Er(Ir5Pt)2
_symmetry_space_group_name_H-M   'P 1'
_cell_length_a   10.89005601
_cell_length_b   10.89369900
_cell_length_c   6.32287800
_cell_angle_alpha   90.00143642
_cell_angle_beta   89.95138976
_cell_angle_gamma   90.00089489
_symmetry_Int_Tables_number   1
_chemical_formula_structural   Ho19Er(Ir5Pt)2
_chemical_formula_sum   'Ho19 Er1 Ir10 Pt2'
_cell_volume   750.10166682
_cell_formula_units_Z   1
loop_
 _symmetry_equiv_pos_site_id
 _symmetry_equiv_pos_as_xyz
  1  'x, y, z'
loop_
 _atom_site_type_symbol
 _atom_site_label
 _atom_site_symmetry_multiplicity
 _atom_site_fract_x
 _atom_site_fract_y
 _atom_site_fract_z
 _atom_site_occupancy
  Ho  Ho0  1  0.291259  0.088085  0.375868  1
  Ho  Ho1  1  0.291262  0.911933  0.875899  1
  Ho  Ho2  1  0.705566  0.089732  0.874123  1
  Ho  Ho3  1  0.705577  0.910253  0.374092  1
  Ho  Ho4  1  0.584683  0.790911  0.877970  1
  Ho  Ho5  1  0.584673  0.209157  0.378026  1
  Ho  Ho6  1  0.411161  0.791284  0.377118  1
  Ho  Ho7  1  0.411151  0.208650  0.877081  1
  Ho  Ho8  1  0.208971  0.411770  0.622487  1
  Ho  Ho9  1  0.208900  0.588247  0.122519  1
  Ho  Ho10  1  0.790874  0.414613  0.122945  1
  Ho  Ho11  1  0.790800  0.585357  0.622895  1
  Ho  Ho12  1  0.913517  0.707138  0.126662  1
  Ho  Ho13  1  0.913501  0.292857  0.626692  1
  Ho  Ho14  1  0.091144  0.706967  0.622892  1
  Ho  Ho15  1  0.091114  0.293038  0.122845  1
  Ho  Ho16  1  0.002788  0.999708  0.500044  1
  Ho  Ho17  1  0.002779  0.000295  0.000021  1
  Ho  Ho18  1  0.499884  0.499627  0.999807  1
  Er  Er19  1  0.499852  0.500374  0.499797  1
  Ir  Ir20  1  0.152941  0.153823  0.750179  1
  Ir  Ir21  1  0.152940  0.846154  0.250165  1
  Ir  Ir22  1  0.654745  0.345863  0.749477  1
  Ir  Ir23  1  0.654744  0.654134  0.249894  1
  Ir  Ir24  1  0.346645  0.346304  0.250468  1
  Ir  Ir25  1  0.346653  0.653705  0.750048  1
  Ir  Ir26  1  0.500815  0.999804  0.122892  1
  Ir  Ir27  1  0.500810  0.000200  0.622895  1
  Ir  Ir28  1  0.999526  0.500079  0.877363  1
  Ir  Ir29  1  0.999526  0.499923  0.377356  1
  Pt  Pt30  1  0.845605  0.153543  0.249734  1
  Pt  Pt31  1  0.845594  0.846471  0.749744  1
