# generated using pymatgen
data_Pr3Dy2Bi3O14
_symmetry_space_group_name_H-M   'P 1'
_cell_length_a   6.71387289
_cell_length_b   6.77792602
_cell_length_c   7.88582113
_cell_angle_alpha   106.66856169
_cell_angle_beta   89.73077770
_cell_angle_gamma   98.66479357
_symmetry_Int_Tables_number   1
_chemical_formula_structural   Pr3Dy2Bi3O14
_chemical_formula_sum   'Pr3 Dy2 Bi3 O14'
_cell_volume   339.56946605
_cell_formula_units_Z   1
loop_
 _symmetry_equiv_pos_site_id
 _symmetry_equiv_pos_as_xyz
  1  'x, y, z'
loop_
 _atom_site_type_symbol
 _atom_site_label
 _atom_site_symmetry_multiplicity
 _atom_site_fract_x
 _atom_site_fract_y
 _atom_site_fract_z
 _atom_site_occupancy
  Pr  Pr0  1  0.268851  0.537193  0.882858  1
  Pr  Pr1  1  0.739985  0.457898  0.114935  1
  Pr  Pr2  1  0.749920  0.479380  0.616908  1
  Dy  Dy3  1  0.459455  0.008081  0.255332  1
  Dy  Dy4  1  0.537251  0.999246  0.747815  1
  Bi  Bi5  1  0.995664  0.998335  0.499723  1
  Bi  Bi6  1  0.999306  0.997625  0.998366  1
  Bi  Bi7  1  0.285553  0.539982  0.389492  1
  O  O8  1  0.447843  0.660018  0.176190  1
  O  O9  1  0.554903  0.345247  0.832384  1
  O  O10  1  0.302285  0.932629  0.951430  1
  O  O11  1  0.697410  0.064000  0.050350  1
  O  O12  1  0.297689  0.934194  0.516817  1
  O  O13  1  0.699466  0.075462  0.486014  1
  O  O14  1  0.537332  0.354926  0.341806  1
  O  O15  1  0.460226  0.649350  0.652878  1
  O  O16  1  0.925774  0.666289  0.941624  1
  O  O17  1  0.069628  0.322744  0.038823  1
  O  O18  1  0.071582  0.329857  0.620594  1
  O  O19  1  0.909245  0.668321  0.390467  1
  O  O20  1  0.873158  0.922706  0.731150  1
  O  O21  1  0.117474  0.056515  0.264045  1
