# generated using pymatgen
data_Nb12Zn9Cu3S2
_symmetry_space_group_name_H-M   'P 1'
_cell_length_a   8.32487678
_cell_length_b   8.32487830
_cell_length_c   8.32487700
_cell_angle_alpha   59.97936811
_cell_angle_beta   59.97936208
_cell_angle_gamma   59.97936824
_symmetry_Int_Tables_number   1
_chemical_formula_structural   Nb12Zn9Cu3S2
_chemical_formula_sum   'Nb12 Zn9 Cu3 S2'
_cell_volume   407.77001676
_cell_formula_units_Z   1
loop_
 _symmetry_equiv_pos_site_id
 _symmetry_equiv_pos_as_xyz
  1  'x, y, z'
loop_
 _atom_site_type_symbol
 _atom_site_label
 _atom_site_symmetry_multiplicity
 _atom_site_fract_x
 _atom_site_fract_y
 _atom_site_fract_z
 _atom_site_occupancy
  Nb  Nb0  1  0.204972  0.794870  0.204972  1
  Nb  Nb1  1  0.454980  0.045356  0.454980  1
  Nb  Nb2  1  0.455130  0.045028  0.045028  1
  Nb  Nb3  1  0.454980  0.454980  0.045356  1
  Nb  Nb4  1  0.204644  0.795020  0.795020  1
  Nb  Nb5  1  0.045028  0.455130  0.045028  1
  Nb  Nb6  1  0.795020  0.795020  0.204644  1
  Nb  Nb7  1  0.045356  0.454980  0.454980  1
  Nb  Nb8  1  0.204972  0.204972  0.794870  1
  Nb  Nb9  1  0.794870  0.204972  0.204972  1
  Nb  Nb10  1  0.795020  0.204644  0.795020  1
  Nb  Nb11  1  0.045028  0.045028  0.455130  1
  Zn  Zn12  1  0.835117  0.500279  0.835117  1
  Zn  Zn13  1  0.414883  0.414883  0.749721  1
  Zn  Zn14  1  0.749721  0.414883  0.414883  1
  Zn  Zn15  1  0.417463  0.417463  0.417463  1
  Zn  Zn16  1  0.835117  0.835117  0.500279  1
  Zn  Zn17  1  0.414883  0.749721  0.414883  1
  Zn  Zn18  1  0.832537  0.832537  0.832537  1
  Zn  Zn19  1  0.500279  0.835117  0.835117  1
  Zn  Zn20  1  0.625000  0.625000  0.625000  1
  Cu  Cu21  1  0.625000  0.125000  0.625000  1
  Cu  Cu22  1  0.625000  0.625000  0.125000  1
  Cu  Cu23  1  0.125000  0.625000  0.625000  1
  S  S24  1  0.000235  0.000235  0.000235  1
  S  S25  1  0.249765  0.249765  0.249765  1
