# generated using pymatgen
data_Cs12NaDyS8
_symmetry_space_group_name_H-M   'P 1'
_cell_length_a   11.02174700
_cell_length_b   11.02174821
_cell_length_c   8.35056000
_cell_angle_alpha   90.00000000
_cell_angle_beta   90.00000000
_cell_angle_gamma   119.99999938
_symmetry_Int_Tables_number   1
_chemical_formula_structural   Cs12NaDyS8
_chemical_formula_sum   'Cs12 Na1 Dy1 S8'
_cell_volume   878.51090796
_cell_formula_units_Z   1
loop_
 _symmetry_equiv_pos_site_id
 _symmetry_equiv_pos_as_xyz
  1  'x, y, z'
loop_
 _atom_site_type_symbol
 _atom_site_label
 _atom_site_symmetry_multiplicity
 _atom_site_fract_x
 _atom_site_fract_y
 _atom_site_fract_z
 _atom_site_occupancy
  Cs  Cs0  1  0.140842  0.859158  0.542295  1
  Cs  Cs1  1  0.293339  0.146670  0.044247  1
  Cs  Cs2  1  0.853330  0.706661  0.044247  1
  Cs  Cs3  1  0.140842  0.281685  0.542295  1
  Cs  Cs4  1  0.718315  0.859158  0.542295  1
  Cs  Cs5  1  0.853330  0.146670  0.044247  1
  Cs  Cs6  1  0.537992  0.462008  0.376624  1
  Cs  Cs7  1  0.046426  0.523213  0.849904  1
  Cs  Cs8  1  0.476787  0.953574  0.849904  1
  Cs  Cs9  1  0.537992  0.075984  0.376624  1
  Cs  Cs10  1  0.924016  0.462008  0.376624  1
  Cs  Cs11  1  0.476787  0.523213  0.849904  1
  Na  Na12  1  0.666667  0.333333  0.756378  1
  Dy  Dy13  1  0.333333  0.666667  0.251692  1
  S  S14  1  0.333333  0.666667  0.564641  1
  S  S15  1  0.666667  0.333333  0.089416  1
  S  S16  1  0.203209  0.796791  0.151820  1
  S  S17  1  0.377587  0.188793  0.654203  1
  S  S18  1  0.811207  0.622413  0.654203  1
  S  S19  1  0.203209  0.406419  0.151820  1
  S  S20  1  0.593581  0.796791  0.151820  1
  S  S21  1  0.811207  0.188793  0.654203  1
