# generated using pymatgen
data_Hf4ScTe8
_symmetry_space_group_name_H-M   'P 1'
_cell_length_a   8.00801748
_cell_length_b   8.00801795
_cell_length_c   9.83127207
_cell_angle_alpha   52.10147143
_cell_angle_beta   52.10146653
_cell_angle_gamma   60.23372490
_symmetry_Int_Tables_number   1
_chemical_formula_structural   Hf4ScTe8
_chemical_formula_sum   'Hf4 Sc1 Te8'
_cell_volume   385.32283149
_cell_formula_units_Z   1
loop_
 _symmetry_equiv_pos_site_id
 _symmetry_equiv_pos_as_xyz
  1  'x, y, z'
loop_
 _atom_site_type_symbol
 _atom_site_label
 _atom_site_symmetry_multiplicity
 _atom_site_fract_x
 _atom_site_fract_y
 _atom_site_fract_z
 _atom_site_occupancy
  Hf  Hf0  1  0.240940  0.240940  0.012317  1
  Hf  Hf1  1  0.759060  0.759060  0.987683  1
  Hf  Hf2  1  0.233875  0.766125  0.500000  1
  Hf  Hf3  1  0.766125  0.233875  0.500000  1
  Sc  Sc4  1  0.000000  0.000000  0.000000  1
  Te  Te5  1  0.297660  0.297660  0.660967  1
  Te  Te6  1  0.784260  0.784260  0.670669  1
  Te  Te7  1  0.293513  0.778997  0.170961  1
  Te  Te8  1  0.778997  0.293513  0.170961  1
  Te  Te9  1  0.221003  0.706487  0.829039  1
  Te  Te10  1  0.706487  0.221003  0.829039  1
  Te  Te11  1  0.215740  0.215740  0.329331  1
  Te  Te12  1  0.702340  0.702340  0.339033  1
