# generated using pymatgen
data_Nd2Al2(Re5B)3
_symmetry_space_group_name_H-M   'P 1'
_cell_length_a   7.03792585
_cell_length_b   7.02249888
_cell_length_c   7.03792600
_cell_angle_alpha   82.41347715
_cell_angle_beta   82.85570518
_cell_angle_gamma   82.41348562
_symmetry_Int_Tables_number   1
_chemical_formula_structural   Nd2Al2(Re5B)3
_chemical_formula_sum   'Nd2 Al2 Re15 B3'
_cell_volume   339.74807965
_cell_formula_units_Z   1
loop_
 _symmetry_equiv_pos_site_id
 _symmetry_equiv_pos_as_xyz
  1  'x, y, z'
loop_
 _atom_site_type_symbol
 _atom_site_label
 _atom_site_symmetry_multiplicity
 _atom_site_fract_x
 _atom_site_fract_y
 _atom_site_fract_z
 _atom_site_occupancy
  Nd  Nd0  1  0.656144  0.654756  0.656144  1
  Nd  Nd1  1  0.343856  0.345244  0.343856  1
  Al  Al2  1  0.000000  0.000000  0.500000  1
  Al  Al3  1  0.500000  0.000000  0.000000  1
  Re  Re4  1  0.000000  0.500000  0.000000  1
  Re  Re5  1  0.276961  0.724013  0.998430  1
  Re  Re6  1  0.722182  0.000000  0.277818  1
  Re  Re7  1  0.001570  0.275987  0.723039  1
  Re  Re8  1  0.277818  0.000000  0.722182  1
  Re  Re9  1  0.998430  0.724013  0.276961  1
  Re  Re10  1  0.723039  0.275987  0.001570  1
  Re  Re11  1  0.350320  0.348050  0.845395  1
  Re  Re12  1  0.343792  0.851127  0.343792  1
  Re  Re13  1  0.845395  0.348050  0.350320  1
  Re  Re14  1  0.649680  0.651950  0.154605  1
  Re  Re15  1  0.656208  0.148873  0.656208  1
  Re  Re16  1  0.154605  0.651950  0.649680  1
  Re  Re17  1  0.905232  0.899171  0.905232  1
  Re  Re18  1  0.094768  0.100829  0.094768  1
  B  B19  1  0.500000  0.500000  0.000000  1
  B  B20  1  0.500000  0.000000  0.500000  1
  B  B21  1  0.000000  0.500000  0.500000  1
