# generated using pymatgen
data_Yb2VH9
_symmetry_space_group_name_H-M   'P 1'
_cell_length_a   8.32254500
_cell_length_b   8.32254541
_cell_length_c   4.79732700
_cell_angle_alpha   90.00000000
_cell_angle_beta   90.00000000
_cell_angle_gamma   120.00001030
_symmetry_Int_Tables_number   1
_chemical_formula_structural   Yb2VH9
_chemical_formula_sum   'Yb6 V3 H27'
_cell_volume   287.76782501
_cell_formula_units_Z   3
loop_
 _symmetry_equiv_pos_site_id
 _symmetry_equiv_pos_as_xyz
  1  'x, y, z'
loop_
 _atom_site_type_symbol
 _atom_site_label
 _atom_site_symmetry_multiplicity
 _atom_site_fract_x
 _atom_site_fract_y
 _atom_site_fract_z
 _atom_site_occupancy
  Yb  Yb0  1  0.000000  0.268125  0.500000  1
  Yb  Yb1  1  0.731875  0.731875  0.500000  1
  Yb  Yb2  1  0.268125  0.000000  0.500000  1
  Yb  Yb3  1  0.000000  0.603741  0.000000  1
  Yb  Yb4  1  0.396259  0.396259  0.000000  1
  Yb  Yb5  1  0.603741  0.000000  0.000000  1
  V  V6  1  0.666667  0.333333  0.500000  1
  V  V7  1  0.333333  0.666667  0.500000  1
  V  V8  1  0.000000  0.000000  0.000000  1
  H  H9  1  0.809097  0.330565  0.759121  1
  H  H10  1  0.669435  0.478530  0.759121  1
  H  H11  1  0.521470  0.190903  0.759121  1
  H  H12  1  0.190903  0.521470  0.240879  1
  H  H13  1  0.521470  0.190903  0.240879  1
  H  H14  1  0.809097  0.330565  0.240879  1
  H  H15  1  0.669435  0.478530  0.240879  1
  H  H16  1  0.330565  0.809097  0.759121  1
  H  H17  1  0.478530  0.669435  0.759121  1
  H  H18  1  0.204955  0.000000  0.000000  1
  H  H19  1  0.795045  0.795045  0.000000  1
  H  H20  1  0.000000  0.204955  0.000000  1
  H  H21  1  0.852168  0.000000  0.247180  1
  H  H22  1  0.147832  0.147832  0.752820  1
  H  H23  1  0.000000  0.852168  0.752820  1
  H  H24  1  0.000000  0.852168  0.247180  1
  H  H25  1  0.147832  0.147832  0.247180  1
  H  H26  1  0.852168  0.000000  0.752820  1
  H  H27  1  0.133664  0.672217  0.500000  1
  H  H28  1  0.538552  0.866336  0.500000  1
  H  H29  1  0.327783  0.461448  0.500000  1
  H  H30  1  0.461448  0.327783  0.500000  1
  H  H31  1  0.866336  0.538552  0.500000  1
  H  H32  1  0.672217  0.133664  0.500000  1
  H  H33  1  0.190903  0.521470  0.759121  1
  H  H34  1  0.330565  0.809097  0.240879  1
  H  H35  1  0.478530  0.669435  0.240879  1
