# generated using pymatgen
data_Tb16In2Ag2OsRh3
_symmetry_space_group_name_H-M   'P 1'
_cell_length_a   9.61027600
_cell_length_b   9.65966286
_cell_length_c   9.62348900
_cell_angle_alpha   60.12379766
_cell_angle_beta   59.95450536
_cell_angle_gamma   60.36396379
_symmetry_Int_Tables_number   1
_chemical_formula_structural   Tb16In2Ag2OsRh3
_chemical_formula_sum   'Tb16 In2 Ag2 Os1 Rh3'
_cell_volume   633.79973785
_cell_formula_units_Z   1
loop_
 _symmetry_equiv_pos_site_id
 _symmetry_equiv_pos_as_xyz
  1  'x, y, z'
loop_
 _atom_site_type_symbol
 _atom_site_label
 _atom_site_symmetry_multiplicity
 _atom_site_fract_x
 _atom_site_fract_y
 _atom_site_fract_z
 _atom_site_occupancy
  Tb  Tb0  1  0.809206  0.807360  0.191717  1
  Tb  Tb1  1  0.810969  0.191244  0.809342  1
  Tb  Tb2  1  0.187053  0.189621  0.811663  1
  Tb  Tb3  1  0.648974  0.052013  0.649507  1
  Tb  Tb4  1  0.063720  0.063287  0.436496  1
  Tb  Tb5  1  0.443918  0.436060  0.060011  1
  Tb  Tb6  1  0.650273  0.650138  0.650940  1
  Tb  Tb7  1  0.810969  0.191244  0.188447  1
  Tb  Tb8  1  0.190597  0.809480  0.809619  1
  Tb  Tb9  1  0.049725  0.650191  0.650042  1
  Tb  Tb10  1  0.437586  0.065381  0.060686  1
  Tb  Tb11  1  0.437586  0.065381  0.436346  1
  Tb  Tb12  1  0.064095  0.436490  0.057834  1
  Tb  Tb13  1  0.650273  0.650138  0.048649  1
  Tb  Tb14  1  0.190597  0.809480  0.190303  1
  Tb  Tb15  1  0.064095  0.436490  0.441582  1
  In  In16  1  0.417336  0.742468  0.420097  1
  In  In17  1  0.742436  0.416775  0.420394  1
  Ag  Ag18  1  0.417144  0.416733  0.418210  1
  Ag  Ag19  1  0.417144  0.416733  0.747911  1
  Os  Os20  1  0.857306  0.425251  0.858721  1
  Rh  Rh21  1  0.857212  0.859144  0.859247  1
  Rh  Rh22  1  0.857212  0.859144  0.424398  1
  Rh  Rh23  1  0.424574  0.859749  0.857839  1
