# generated using pymatgen
data_Tb5Zn2Ru3
_symmetry_space_group_name_H-M   'P 1'
_cell_length_a   8.32783044
_cell_length_b   8.32783107
_cell_length_c   8.32783000
_cell_angle_alpha   109.47121560
_cell_angle_beta   109.47121714
_cell_angle_gamma   109.47122258
_symmetry_Int_Tables_number   1
_chemical_formula_structural   Tb5Zn2Ru3
_chemical_formula_sum   'Tb10 Zn4 Ru6'
_cell_volume   444.60442046
_cell_formula_units_Z   2
loop_
 _symmetry_equiv_pos_site_id
 _symmetry_equiv_pos_as_xyz
  1  'x, y, z'
loop_
 _atom_site_type_symbol
 _atom_site_label
 _atom_site_symmetry_multiplicity
 _atom_site_fract_x
 _atom_site_fract_y
 _atom_site_fract_z
 _atom_site_occupancy
  Tb  Tb0  1  0.250000  0.683596  0.433596  1
  Tb  Tb1  1  0.750000  0.816404  0.066404  1
  Tb  Tb2  1  0.433596  0.250000  0.683596  1
  Tb  Tb3  1  0.683596  0.433596  0.250000  1
  Tb  Tb4  1  0.066404  0.750000  0.816404  1
  Tb  Tb5  1  0.816404  0.066404  0.750000  1
  Tb  Tb6  1  0.220722  0.220722  0.220722  1
  Tb  Tb7  1  0.500000  0.000000  0.279278  1
  Tb  Tb8  1  0.279278  0.500000  0.000000  1
  Tb  Tb9  1  0.000000  0.279278  0.500000  1
  Zn  Zn10  1  0.589234  0.589234  0.589234  1
  Zn  Zn11  1  0.500000  0.000000  0.910766  1
  Zn  Zn12  1  0.910766  0.500000  0.000000  1
  Zn  Zn13  1  0.000000  0.910766  0.500000  1
  Ru  Ru14  1  0.250000  0.129797  0.879797  1
  Ru  Ru15  1  0.750000  0.370203  0.620203  1
  Ru  Ru16  1  0.879796  0.250000  0.129797  1
  Ru  Ru17  1  0.129797  0.879796  0.250000  1
  Ru  Ru18  1  0.620203  0.750000  0.370203  1
  Ru  Ru19  1  0.370203  0.620203  0.750000  1
