# generated using pymatgen
data_Hf18Re6IrW2S
_symmetry_space_group_name_H-M   'P 1'
_cell_length_a   8.65676697
_cell_length_b   8.65673681
_cell_length_c   8.56551702
_cell_angle_alpha   90.03467120
_cell_angle_beta   89.96481662
_cell_angle_gamma   120.13620419
_symmetry_Int_Tables_number   1
_chemical_formula_structural   Hf18Re6IrW2S
_chemical_formula_sum   'Hf18 Re6 Ir1 W2 S1'
_cell_volume   555.13210911
_cell_formula_units_Z   1
loop_
 _symmetry_equiv_pos_site_id
 _symmetry_equiv_pos_as_xyz
  1  'x, y, z'
loop_
 _atom_site_type_symbol
 _atom_site_label
 _atom_site_symmetry_multiplicity
 _atom_site_fract_x
 _atom_site_fract_y
 _atom_site_fract_z
 _atom_site_occupancy
  Hf  Hf0  1  0.196195  0.803815  0.445848  1
  Hf  Hf1  1  0.196500  0.392939  0.446286  1
  Hf  Hf2  1  0.607074  0.803501  0.446276  1
  Hf  Hf3  1  0.804109  0.195888  0.549926  1
  Hf  Hf4  1  0.803762  0.608176  0.549760  1
  Hf  Hf5  1  0.391826  0.196249  0.549768  1
  Hf  Hf6  1  0.806059  0.193939  0.949251  1
  Hf  Hf7  1  0.805450  0.611667  0.949821  1
  Hf  Hf8  1  0.388325  0.194550  0.949821  1
  Hf  Hf9  1  0.195170  0.804826  0.054785  1
  Hf  Hf10  1  0.195121  0.390003  0.053918  1
  Hf  Hf11  1  0.609981  0.804863  0.053898  1
  Hf  Hf12  1  0.541721  0.458284  0.248860  1
  Hf  Hf13  1  0.542599  0.084297  0.248779  1
  Hf  Hf14  1  0.915694  0.457393  0.248779  1
  Hf  Hf15  1  0.455340  0.544655  0.750743  1
  Hf  Hf16  1  0.455571  0.910065  0.750892  1
  Hf  Hf17  1  0.089939  0.544434  0.750894  1
  Re  Re18  1  0.888881  0.111118  0.251045  1
  Re  Re19  1  0.888760  0.777709  0.251014  1
  Re  Re20  1  0.222294  0.111241  0.251009  1
  Re  Re21  1  0.111111  0.221672  0.749247  1
  Re  Re22  1  0.778329  0.888887  0.749250  1
  Re  Re23  1  0.999731  0.000269  0.001609  1
  Ir  Ir24  1  0.334020  0.665983  0.248776  1
  W  W25  1  0.109714  0.890286  0.749744  1
  W  W26  1  0.999529  0.000475  0.498323  1
  S  S27  1  0.667196  0.332812  0.751677  1
