# generated using pymatgen
data_YTh3Pd7Pt5
_symmetry_space_group_name_H-M   'P 1'
_cell_length_a   5.92296600
_cell_length_b   5.92487856
_cell_length_c   9.78361364
_cell_angle_alpha   89.96420064
_cell_angle_beta   90.00000000
_cell_angle_gamma   119.98932240
_symmetry_Int_Tables_number   1
_chemical_formula_structural   YTh3Pd7Pt5
_chemical_formula_sum   'Y1 Th3 Pd7 Pt5'
_cell_volume   297.36867839
_cell_formula_units_Z   1
loop_
 _symmetry_equiv_pos_site_id
 _symmetry_equiv_pos_as_xyz
  1  'x, y, z'
loop_
 _atom_site_type_symbol
 _atom_site_label
 _atom_site_symmetry_multiplicity
 _atom_site_fract_x
 _atom_site_fract_y
 _atom_site_fract_z
 _atom_site_occupancy
  Y  Y0  1  0.000000  0.000000  0.500000  1
  Th  Th1  1  0.000000  0.000000  0.000000  1
  Th  Th2  1  0.333244  0.666490  0.254074  1
  Th  Th3  1  0.666756  0.333510  0.745926  1
  Pd  Pd4  1  0.500000  0.000000  0.500000  1
  Pd  Pd5  1  0.825610  0.651222  0.250764  1
  Pd  Pd6  1  0.348288  0.174005  0.250399  1
  Pd  Pd7  1  0.825716  0.174005  0.250399  1
  Pd  Pd8  1  0.174390  0.348778  0.749236  1
  Pd  Pd9  1  0.651712  0.825995  0.749601  1
  Pd  Pd10  1  0.174284  0.825995  0.749601  1
  Pt  Pt11  1  0.500000  0.500000  0.500000  1
  Pt  Pt12  1  0.000000  0.500000  0.500000  1
  Pt  Pt13  1  0.500000  0.500000  0.000000  1
  Pt  Pt14  1  0.500000  0.000000  0.000000  1
  Pt  Pt15  1  0.000000  0.500000  0.000000  1
