# generated using pymatgen
data_La10IrPb6S
_symmetry_space_group_name_H-M   'P 1'
_cell_length_a   9.67148100
_cell_length_b   9.67148228
_cell_length_c   7.25969800
_cell_angle_alpha   90.00000000
_cell_angle_beta   90.00000000
_cell_angle_gamma   119.99999222
_symmetry_Int_Tables_number   1
_chemical_formula_structural   La10IrPb6S
_chemical_formula_sum   'La10 Ir1 Pb6 S1'
_cell_volume   588.07842093
_cell_formula_units_Z   1
loop_
 _symmetry_equiv_pos_site_id
 _symmetry_equiv_pos_as_xyz
  1  'x, y, z'
loop_
 _atom_site_type_symbol
 _atom_site_label
 _atom_site_symmetry_multiplicity
 _atom_site_fract_x
 _atom_site_fract_y
 _atom_site_fract_z
 _atom_site_occupancy
  La  La0  1  0.762995  0.762995  0.753218  1
  La  La1  1  0.237005  0.000000  0.753218  1
  La  La2  1  0.000000  0.237005  0.753218  1
  La  La3  1  0.237005  0.237005  0.246782  1
  La  La4  1  0.762995  0.000000  0.246782  1
  La  La5  1  0.000000  0.762995  0.246782  1
  La  La6  1  0.666667  0.333333  0.000000  1
  La  La7  1  0.333333  0.666667  0.000000  1
  La  La8  1  0.333333  0.666667  0.500000  1
  La  La9  1  0.666667  0.333333  0.500000  1
  Ir  Ir10  1  0.000000  0.000000  0.000000  1
  Pb  Pb11  1  0.401005  0.401005  0.747348  1
  Pb  Pb12  1  0.598995  0.000000  0.747348  1
  Pb  Pb13  1  0.000000  0.598995  0.747348  1
  Pb  Pb14  1  0.598995  0.598995  0.252652  1
  Pb  Pb15  1  0.401005  0.000000  0.252652  1
  Pb  Pb16  1  0.000000  0.401005  0.252652  1
  S  S17  1  0.000000  0.000000  0.500000  1
