# generated using pymatgen
data_Nd2SmFe(Co4P3)2
_symmetry_space_group_name_H-M   'P 1'
_cell_length_a   3.76587800
_cell_length_b   10.64958900
_cell_length_c   12.35817100
_cell_angle_alpha   90.00000000
_cell_angle_beta   90.00000000
_cell_angle_gamma   90.00000000
_symmetry_Int_Tables_number   1
_chemical_formula_structural   Nd2SmFe(Co4P3)2
_chemical_formula_sum   'Nd4 Sm2 Fe2 Co16 P12'
_cell_volume   495.62510200
_cell_formula_units_Z   2
loop_
 _symmetry_equiv_pos_site_id
 _symmetry_equiv_pos_as_xyz
  1  'x, y, z'
loop_
 _atom_site_type_symbol
 _atom_site_label
 _atom_site_symmetry_multiplicity
 _atom_site_fract_x
 _atom_site_fract_y
 _atom_site_fract_z
 _atom_site_occupancy
  Nd  Nd0  1  0.000000  0.500000  0.520843  1
  Nd  Nd1  1  0.500000  0.000000  0.478929  1
  Nd  Nd2  1  0.000000  0.682091  0.794733  1
  Nd  Nd3  1  0.000000  0.317909  0.794733  1
  Sm  Sm4  1  0.500000  0.818107  0.204997  1
  Sm  Sm5  1  0.500000  0.181893  0.204997  1
  Fe  Fe6  1  0.500000  0.500000  0.155642  1
  Fe  Fe7  1  0.000000  0.000000  0.844766  1
  Co  Co8  1  0.500000  0.500000  0.703623  1
  Co  Co9  1  0.000000  0.000000  0.295611  1
  Co  Co10  1  0.000000  0.500000  0.988951  1
  Co  Co11  1  0.500000  0.000000  0.013102  1
  Co  Co12  1  0.500000  0.332821  0.996382  1
  Co  Co13  1  0.500000  0.667179  0.996382  1
  Co  Co14  1  0.000000  0.166358  0.005246  1
  Co  Co15  1  0.000000  0.833642  0.005246  1
  Co  Co16  1  0.500000  0.296411  0.429349  1
  Co  Co17  1  0.500000  0.703589  0.429349  1
  Co  Co18  1  0.000000  0.203121  0.569192  1
  Co  Co19  1  0.000000  0.796879  0.569192  1
  Co  Co20  1  0.500000  0.880907  0.710320  1
  Co  Co21  1  0.500000  0.119093  0.710320  1
  Co  Co22  1  0.000000  0.619810  0.288947  1
  Co  Co23  1  0.000000  0.380190  0.288947  1
  P  P24  1  0.500000  0.500000  0.887295  1
  P  P25  1  0.000000  0.000000  0.114954  1
  P  P26  1  0.500000  0.500000  0.338143  1
  P  P27  1  0.000000  0.000000  0.661669  1
  P  P28  1  0.500000  0.305731  0.613827  1
  P  P29  1  0.500000  0.694269  0.613827  1
  P  P30  1  0.000000  0.193502  0.384210  1
  P  P31  1  0.000000  0.806498  0.384210  1
  P  P32  1  0.500000  0.848729  0.895066  1
  P  P33  1  0.500000  0.151271  0.895066  1
  P  P34  1  0.000000  0.652700  0.105968  1
  P  P35  1  0.000000  0.347300  0.105968  1
