# generated using pymatgen
data_TbTm7Hf9Si16W3
_symmetry_space_group_name_H-M   'P 1'
_cell_length_a   7.15232123
_cell_length_b   7.15144028
_cell_length_c   13.08199279
_cell_angle_alpha   90.04997186
_cell_angle_beta   90.00692335
_cell_angle_gamma   90.05899393
_symmetry_Int_Tables_number   1
_chemical_formula_structural   TbTm7Hf9Si16W3
_chemical_formula_sum   'Tb1 Tm7 Hf9 Si16 W3'
_cell_volume   669.13544366
_cell_formula_units_Z   1
loop_
 _symmetry_equiv_pos_site_id
 _symmetry_equiv_pos_as_xyz
  1  'x, y, z'
loop_
 _atom_site_type_symbol
 _atom_site_label
 _atom_site_symmetry_multiplicity
 _atom_site_fract_x
 _atom_site_fract_y
 _atom_site_fract_z
 _atom_site_occupancy
  Tb  Tb0  1  0.656359  0.001821  0.284607  1
  Tm  Tm1  1  0.999912  0.344548  0.214926  1
  Tm  Tm2  1  0.003171  0.656672  0.714403  1
  Tm  Tm3  1  0.154973  0.500253  0.463878  1
  Tm  Tm4  1  0.499635  0.844729  0.035979  1
  Tm  Tm5  1  0.846099  0.501831  0.967717  1
  Tm  Tm6  1  0.498087  0.153958  0.532462  1
  Tm  Tm7  1  0.343316  0.996832  0.785579  1
  Hf  Hf8  1  0.676093  0.323919  0.750020  1
  Hf  Hf9  1  0.146359  0.994015  0.373655  1
  Hf  Hf10  1  0.855025  0.003993  0.876046  1
  Hf  Hf11  1  0.505154  0.648346  0.621360  1
  Hf  Hf12  1  0.351496  0.494903  0.878777  1
  Hf  Hf13  1  0.493340  0.353629  0.125330  1
  Hf  Hf14  1  0.646532  0.506323  0.374465  1
  Hf  Hf15  1  0.996165  0.145039  0.624065  1
  Hf  Hf16  1  0.005874  0.853602  0.126090  1
  Si  Si17  1  0.357985  0.299291  0.317416  1
  Si  Si18  1  0.639862  0.704517  0.817821  1
  Si  Si19  1  0.202967  0.859511  0.566517  1
  Si  Si20  1  0.140346  0.796867  0.933468  1
  Si  Si21  1  0.797926  0.140950  0.067372  1
  Si  Si22  1  0.860561  0.203708  0.433306  1
  Si  Si23  1  0.295506  0.360202  0.682221  1
  Si  Si24  1  0.702245  0.639465  0.182026  1
  Si  Si25  1  0.295747  0.050507  0.183479  1
  Si  Si26  1  0.702888  0.947934  0.681943  1
  Si  Si27  1  0.448232  0.795877  0.432968  1
  Si  Si28  1  0.203046  0.550601  0.067644  1
  Si  Si29  1  0.546996  0.200917  0.935916  1
  Si  Si30  1  0.799259  0.453327  0.564092  1
  Si  Si31  1  0.052019  0.297225  0.818077  1
  Si  Si32  1  0.950960  0.701832  0.316019  1
  W  W33  1  0.176234  0.174991  0.001341  1
  W  W34  1  0.825631  0.823266  0.499061  1
  W  W35  1  0.323999  0.674599  0.249955  1
