# generated using pymatgen
data_Dy4Mn(Ga8Co)2
_symmetry_space_group_name_H-M   'P 1'
_cell_length_a   6.06167300
_cell_length_b   6.06167300
_cell_length_c   11.15845700
_cell_angle_alpha   90.00000000
_cell_angle_beta   90.00000000
_cell_angle_gamma   90.00000000
_symmetry_Int_Tables_number   1
_chemical_formula_structural   Dy4Mn(Ga8Co)2
_chemical_formula_sum   'Dy4 Mn1 Ga16 Co2'
_cell_volume   410.00500007
_cell_formula_units_Z   1
loop_
 _symmetry_equiv_pos_site_id
 _symmetry_equiv_pos_as_xyz
  1  'x, y, z'
loop_
 _atom_site_type_symbol
 _atom_site_label
 _atom_site_symmetry_multiplicity
 _atom_site_fract_x
 _atom_site_fract_y
 _atom_site_fract_z
 _atom_site_occupancy
  Dy  Dy0  1  0.500000  0.000000  0.806920  1
  Dy  Dy1  1  0.000000  0.500000  0.806920  1
  Dy  Dy2  1  0.500000  0.000000  0.193080  1
  Dy  Dy3  1  0.000000  0.500000  0.193080  1
  Mn  Mn4  1  0.000000  0.000000  0.000000  1
  Ga  Ga5  1  0.249780  0.249780  0.614804  1
  Ga  Ga6  1  0.750220  0.750220  0.614804  1
  Ga  Ga7  1  0.750220  0.249780  0.614804  1
  Ga  Ga8  1  0.249780  0.750220  0.614804  1
  Ga  Ga9  1  0.750220  0.750220  0.385196  1
  Ga  Ga10  1  0.249780  0.249780  0.385196  1
  Ga  Ga11  1  0.249780  0.750220  0.385196  1
  Ga  Ga12  1  0.750220  0.249780  0.385196  1
  Ga  Ga13  1  0.283657  0.283657  0.000000  1
  Ga  Ga14  1  0.716343  0.716343  0.000000  1
  Ga  Ga15  1  0.716343  0.283657  0.000000  1
  Ga  Ga16  1  0.283657  0.716343  0.000000  1
  Ga  Ga17  1  0.500000  0.500000  0.801497  1
  Ga  Ga18  1  0.500000  0.500000  0.198503  1
  Ga  Ga19  1  0.000000  0.000000  0.778760  1
  Ga  Ga20  1  0.000000  0.000000  0.221240  1
  Co  Co21  1  0.500000  0.000000  0.500000  1
  Co  Co22  1  0.000000  0.500000  0.500000  1
