# generated using pymatgen
data_CePrNd6(ZnRh)8
_symmetry_space_group_name_H-M   'P 1'
_cell_length_a   4.01132900
_cell_length_b   7.34076362
_cell_length_c   16.58834719
_cell_angle_alpha   89.63561600
_cell_angle_beta   90.00000000
_cell_angle_gamma   90.00000000
_symmetry_Int_Tables_number   1
_chemical_formula_structural   CePrNd6(ZnRh)8
_chemical_formula_sum   'Ce1 Pr1 Nd6 Zn8 Rh8'
_cell_volume   488.45420951
_cell_formula_units_Z   1
loop_
 _symmetry_equiv_pos_site_id
 _symmetry_equiv_pos_as_xyz
  1  'x, y, z'
loop_
 _atom_site_type_symbol
 _atom_site_label
 _atom_site_symmetry_multiplicity
 _atom_site_fract_x
 _atom_site_fract_y
 _atom_site_fract_z
 _atom_site_occupancy
  Ce  Ce0  1  0.750000  0.448566  0.216113  1
  Pr  Pr1  1  0.750000  0.333456  0.439196  1
  Nd  Nd2  1  0.750000  0.950686  0.282368  1
  Nd  Nd3  1  0.750000  0.827036  0.060429  1
  Nd  Nd4  1  0.250000  0.047641  0.716492  1
  Nd  Nd5  1  0.250000  0.168994  0.940546  1
  Nd  Nd6  1  0.250000  0.547688  0.783802  1
  Nd  Nd7  1  0.250000  0.670346  0.560561  1
  Zn  Zn8  1  0.250000  0.001795  0.438793  1
  Zn  Zn9  1  0.750000  0.500840  0.940132  1
  Zn  Zn10  1  0.750000  0.002565  0.560355  1
  Zn  Zn11  1  0.250000  0.626445  0.349797  1
  Zn  Zn12  1  0.750000  0.375762  0.651216  1
  Zn  Zn13  1  0.750000  0.877345  0.849362  1
  Zn  Zn14  1  0.250000  0.497891  0.059070  1
  Zn  Zn15  1  0.250000  0.121324  0.151489  1
  Rh  Rh16  1  0.250000  0.245538  0.565212  1
  Rh  Rh17  1  0.750000  0.260867  0.070573  1
  Rh  Rh18  1  0.250000  0.257222  0.304812  1
  Rh  Rh19  1  0.750000  0.254209  0.814959  1
  Rh  Rh20  1  0.250000  0.747389  0.935015  1
  Rh  Rh21  1  0.750000  0.754290  0.686284  1
  Rh  Rh22  1  0.750000  0.762252  0.434701  1
  Rh  Rh23  1  0.250000  0.719853  0.188723  1
