# generated using pymatgen
data_La4CuSi2Pd27
_symmetry_space_group_name_H-M   'P 1'
_cell_length_a   9.00661590
_cell_length_b   9.00661590
_cell_length_c   7.15286732
_cell_angle_alpha   90.15176232
_cell_angle_beta   90.15176232
_cell_angle_gamma   89.31909819
_symmetry_Int_Tables_number   1
_chemical_formula_structural   La4CuSi2Pd27
_chemical_formula_sum   'La4 Cu1 Si2 Pd27'
_cell_volume   580.18937868
_cell_formula_units_Z   1
loop_
 _symmetry_equiv_pos_site_id
 _symmetry_equiv_pos_as_xyz
  1  'x, y, z'
loop_
 _atom_site_type_symbol
 _atom_site_label
 _atom_site_symmetry_multiplicity
 _atom_site_fract_x
 _atom_site_fract_y
 _atom_site_fract_z
 _atom_site_occupancy
  La  La0  1  0.502905  0.002905  0.937094  1
  La  La1  1  0.997095  0.497095  0.062906  1
  La  La2  1  0.000744  0.999256  0.500000  1
  La  La3  1  0.499256  0.500744  0.500000  1
  Cu  Cu4  1  0.250000  0.750000  0.000000  1
  Si  Si5  1  0.500182  0.000182  0.447462  1
  Si  Si6  1  0.999818  0.499818  0.552538  1
  Pd  Pd7  1  0.334891  0.834891  0.613222  1
  Pd  Pd8  1  0.334050  0.165184  0.616439  1
  Pd  Pd9  1  0.665184  0.834050  0.616439  1
  Pd  Pd10  1  0.665108  0.165108  0.614096  1
  Pd  Pd11  1  0.165109  0.665109  0.386778  1
  Pd  Pd12  1  0.165950  0.334816  0.383561  1
  Pd  Pd13  1  0.834816  0.665950  0.383561  1
  Pd  Pd14  1  0.834892  0.334892  0.385904  1
  Pd  Pd15  1  0.498281  0.770568  0.255643  1
  Pd  Pd16  1  0.498060  0.230328  0.257327  1
  Pd  Pd17  1  0.270568  0.998281  0.255643  1
  Pd  Pd18  1  0.730328  0.998060  0.257327  1
  Pd  Pd19  1  0.001719  0.729432  0.744357  1
  Pd  Pd20  1  0.001940  0.269672  0.742673  1
  Pd  Pd21  1  0.229432  0.501719  0.744357  1
  Pd  Pd22  1  0.769672  0.501940  0.742673  1
  Pd  Pd23  1  0.498799  0.351441  0.855078  1
  Pd  Pd24  1  0.493405  0.656798  0.860886  1
  Pd  Pd25  1  0.851441  0.998799  0.855078  1
  Pd  Pd26  1  0.156798  0.993405  0.860886  1
  Pd  Pd27  1  0.001201  0.148559  0.144922  1
  Pd  Pd28  1  0.006595  0.843202  0.139114  1
  Pd  Pd29  1  0.648559  0.501201  0.144922  1
  Pd  Pd30  1  0.343202  0.506595  0.139114  1
  Pd  Pd31  1  0.250000  0.250000  0.000000  1
  Pd  Pd32  1  0.750000  0.750000  0.000000  1
  Pd  Pd33  1  0.750000  0.250000  0.000000  1
