# generated using pymatgen
data_Ho4Tm6Zn3Bi2Au
_symmetry_space_group_name_H-M   'P 1'
_cell_length_a   8.57881173
_cell_length_b   8.58982628
_cell_length_c   8.58302938
_cell_angle_alpha   124.03468806
_cell_angle_beta   123.99348533
_cell_angle_gamma   83.18744497
_symmetry_Int_Tables_number   1
_chemical_formula_structural   Ho4Tm6Zn3Bi2Au
_chemical_formula_sum   'Ho4 Tm6 Zn3 Bi2 Au1'
_cell_volume   416.82749637
_cell_formula_units_Z   1
loop_
 _symmetry_equiv_pos_site_id
 _symmetry_equiv_pos_as_xyz
  1  'x, y, z'
loop_
 _atom_site_type_symbol
 _atom_site_label
 _atom_site_symmetry_multiplicity
 _atom_site_fract_x
 _atom_site_fract_y
 _atom_site_fract_z
 _atom_site_occupancy
  Ho  Ho0  1  0.990107  0.491455  0.194885  1
  Ho  Ho1  1  0.295223  0.796571  0.805119  1
  Ho  Ho2  1  0.489742  0.295964  0.500002  1
  Ho  Ho3  1  0.795764  0.989133  0.500002  1
  Tm  Tm4  1  0.998253  0.997765  0.998753  1
  Tm  Tm5  1  0.499503  0.499015  0.001251  1
  Tm  Tm6  1  0.009937  0.511066  0.803825  1
  Tm  Tm7  1  0.706113  0.207242  0.196179  1
  Tm  Tm8  1  0.511993  0.707155  0.500005  1
  Tm  Tm9  1  0.207295  0.011592  0.500004  1
  Zn  Zn10  1  0.637791  0.139827  0.779388  1
  Zn  Zn11  1  0.358398  0.860437  0.220603  1
  Zn  Zn12  1  0.139798  0.358401  0.499998  1
  Bi  Bi13  1  0.748674  0.750619  0.000236  1
  Bi  Bi14  1  0.248442  0.250387  0.999774  1
  Au  Au15  1  0.862967  0.633374  0.499975  1
