# generated using pymatgen
data_Tb3ErAl2(HgPt2)2
_symmetry_space_group_name_H-M   'P 1'
_cell_length_a   4.19998400
_cell_length_b   7.15944912
_cell_length_c   8.41558910
_cell_angle_alpha   93.81994554
_cell_angle_beta   90.00000000
_cell_angle_gamma   90.00000000
_symmetry_Int_Tables_number   1
_chemical_formula_structural   Tb3ErAl2(HgPt2)2
_chemical_formula_sum   'Tb3 Er1 Al2 Hg2 Pt4'
_cell_volume   252.49096125
_cell_formula_units_Z   1
loop_
 _symmetry_equiv_pos_site_id
 _symmetry_equiv_pos_as_xyz
  1  'x, y, z'
loop_
 _atom_site_type_symbol
 _atom_site_label
 _atom_site_symmetry_multiplicity
 _atom_site_fract_x
 _atom_site_fract_y
 _atom_site_fract_z
 _atom_site_occupancy
  Tb  Tb0  1  0.250000  0.458725  0.186990  1
  Tb  Tb1  1  0.750000  0.541638  0.813031  1
  Tb  Tb2  1  0.750000  0.036673  0.684865  1
  Er  Er3  1  0.250000  0.961880  0.315210  1
  Al  Al4  1  0.750000  0.638117  0.439204  1
  Al  Al5  1  0.250000  0.361336  0.560028  1
  Hg  Hg6  1  0.250000  0.853880  0.934297  1
  Hg  Hg7  1  0.750000  0.145463  0.066639  1
  Pt  Pt8  1  0.250000  0.732914  0.594421  1
  Pt  Pt9  1  0.750000  0.266308  0.403231  1
  Pt  Pt10  1  0.750000  0.734718  0.151349  1
  Pt  Pt11  1  0.250000  0.268349  0.850734  1
