# generated using pymatgen
data_Ti3Tc3Mo2
_symmetry_space_group_name_H-M   'P 1'
_cell_length_a   3.11775300
_cell_length_b   3.11775300
_cell_length_c   12.59085600
_cell_angle_alpha   90.00000000
_cell_angle_beta   90.00000000
_cell_angle_gamma   90.00000000
_symmetry_Int_Tables_number   1
_chemical_formula_structural   Ti3Tc3Mo2
_chemical_formula_sum   'Ti3 Tc3 Mo2'
_cell_volume   122.38795230
_cell_formula_units_Z   1
loop_
 _symmetry_equiv_pos_site_id
 _symmetry_equiv_pos_as_xyz
  1  'x, y, z'
loop_
 _atom_site_type_symbol
 _atom_site_label
 _atom_site_symmetry_multiplicity
 _atom_site_fract_x
 _atom_site_fract_y
 _atom_site_fract_z
 _atom_site_occupancy
  Ti  Ti0  1  0.499999  0.499999  0.120134  1
  Ti  Ti1  1  0.000000  0.000000  0.500000  1
  Ti  Ti2  1  0.499999  0.499999  0.879867  1
  Tc  Tc3  1  0.000000  0.000000  0.000000  1
  Tc  Tc4  1  0.000000  0.000000  0.249852  1
  Tc  Tc5  1  0.000000  0.000000  0.750148  1
  Mo  Mo6  1  0.499999  0.499999  0.369049  1
  Mo  Mo7  1  0.499999  0.499999  0.630951  1
