# generated using pymatgen
data_EuHo5Co6(NiP)12
_symmetry_space_group_name_H-M   'P 1'
_cell_length_a   3.76499600
_cell_length_b   10.48433400
_cell_length_c   12.29180600
_cell_angle_alpha   90.00000000
_cell_angle_beta   90.00000000
_cell_angle_gamma   90.00000000
_symmetry_Int_Tables_number   1
_chemical_formula_structural   EuHo5Co6(NiP)12
_chemical_formula_sum   'Eu1 Ho5 Co6 Ni12 P12'
_cell_volume   485.20030388
_cell_formula_units_Z   1
loop_
 _symmetry_equiv_pos_site_id
 _symmetry_equiv_pos_as_xyz
  1  'x, y, z'
loop_
 _atom_site_type_symbol
 _atom_site_label
 _atom_site_symmetry_multiplicity
 _atom_site_fract_x
 _atom_site_fract_y
 _atom_site_fract_z
 _atom_site_occupancy
  Eu  Eu0  1  0.000000  0.500000  0.519530  1
  Ho  Ho1  1  0.500000  0.000000  0.480538  1
  Ho  Ho2  1  0.500000  0.815478  0.206045  1
  Ho  Ho3  1  0.500000  0.184522  0.206045  1
  Ho  Ho4  1  0.000000  0.686151  0.794622  1
  Ho  Ho5  1  0.000000  0.313849  0.794622  1
  Co  Co6  1  0.000000  0.500000  0.983426  1
  Co  Co7  1  0.500000  0.000000  0.016753  1
  Co  Co8  1  0.500000  0.333861  0.994980  1
  Co  Co9  1  0.500000  0.666139  0.994980  1
  Co  Co10  1  0.000000  0.165282  0.004930  1
  Co  Co11  1  0.000000  0.834718  0.004930  1
  Ni  Ni12  1  0.500000  0.296706  0.428461  1
  Ni  Ni13  1  0.500000  0.703294  0.428461  1
  Ni  Ni14  1  0.000000  0.197408  0.571296  1
  Ni  Ni15  1  0.000000  0.802592  0.571296  1
  Ni  Ni16  1  0.500000  0.879553  0.714123  1
  Ni  Ni17  1  0.500000  0.120447  0.714123  1
  Ni  Ni18  1  0.000000  0.621381  0.284405  1
  Ni  Ni19  1  0.000000  0.378619  0.284405  1
  Ni  Ni20  1  0.500000  0.500000  0.156627  1
  Ni  Ni21  1  0.000000  0.000000  0.842142  1
  Ni  Ni22  1  0.500000  0.500000  0.705611  1
  Ni  Ni23  1  0.000000  0.000000  0.297113  1
  P  P24  1  0.500000  0.310966  0.617265  1
  P  P25  1  0.500000  0.689034  0.617265  1
  P  P26  1  0.000000  0.186410  0.383872  1
  P  P27  1  0.000000  0.813590  0.383872  1
  P  P28  1  0.500000  0.500000  0.882290  1
  P  P29  1  0.000000  0.000000  0.119193  1
  P  P30  1  0.500000  0.846416  0.897882  1
  P  P31  1  0.500000  0.153584  0.897882  1
  P  P32  1  0.000000  0.654721  0.101866  1
  P  P33  1  0.000000  0.345279  0.101866  1
  P  P34  1  0.500000  0.500000  0.340183  1
  P  P35  1  0.000000  0.000000  0.657099  1
