# generated using pymatgen
data_Li4Eu4Pd3Pt
_symmetry_space_group_name_H-M   'P 1'
_cell_length_a   4.21045900
_cell_length_b   7.29491613
_cell_length_c   8.61711974
_cell_angle_alpha   90.23380856
_cell_angle_beta   90.00000000
_cell_angle_gamma   90.00000000
_symmetry_Int_Tables_number   1
_chemical_formula_structural   Li4Eu4Pd3Pt
_chemical_formula_sum   'Li4 Eu4 Pd3 Pt1'
_cell_volume   264.67215728
_cell_formula_units_Z   1
loop_
 _symmetry_equiv_pos_site_id
 _symmetry_equiv_pos_as_xyz
  1  'x, y, z'
loop_
 _atom_site_type_symbol
 _atom_site_label
 _atom_site_symmetry_multiplicity
 _atom_site_fract_x
 _atom_site_fract_y
 _atom_site_fract_z
 _atom_site_occupancy
  Li  Li0  1  0.250000  0.630167  0.556755  1
  Li  Li1  1  0.250000  0.133207  0.946105  1
  Li  Li2  1  0.750000  0.366800  0.439646  1
  Li  Li3  1  0.750000  0.872810  0.056542  1
  Eu  Eu4  1  0.750000  0.462639  0.822463  1
  Eu  Eu5  1  0.250000  0.037355  0.314817  1
  Eu  Eu6  1  0.750000  0.965365  0.680752  1
  Eu  Eu7  1  0.250000  0.529868  0.180531  1
  Pd  Pd8  1  0.250000  0.762147  0.877813  1
  Pd  Pd9  1  0.250000  0.262476  0.623379  1
  Pd  Pd10  1  0.750000  0.738300  0.377543  1
  Pt  Pt11  1  0.750000  0.238866  0.123654  1
