# generated using pymatgen
data_Pr10Bi4Pb2AuBr
_symmetry_space_group_name_H-M   'P 1'
_cell_length_a   9.77609376
_cell_length_b   9.75874909
_cell_length_c   6.70676653
_cell_angle_alpha   90.02276297
_cell_angle_beta   89.95456068
_cell_angle_gamma   120.05880818
_symmetry_Int_Tables_number   1
_chemical_formula_structural   Pr10Bi4Pb2AuBr
_chemical_formula_sum   'Pr10 Bi4 Pb2 Au1 Br1'
_cell_volume   553.79053646
_cell_formula_units_Z   1
loop_
 _symmetry_equiv_pos_site_id
 _symmetry_equiv_pos_as_xyz
  1  'x, y, z'
loop_
 _atom_site_type_symbol
 _atom_site_label
 _atom_site_symmetry_multiplicity
 _atom_site_fract_x
 _atom_site_fract_y
 _atom_site_fract_z
 _atom_site_occupancy
  Pr  Pr0  1  0.267800  0.000000  0.746587  1
  Pr  Pr1  1  0.732200  0.000000  0.253413  1
  Pr  Pr2  1  0.998439  0.266753  0.747034  1
  Pr  Pr3  1  0.001561  0.733247  0.252966  1
  Pr  Pr4  1  0.731687  0.733247  0.747034  1
  Pr  Pr5  1  0.268313  0.266753  0.252966  1
  Pr  Pr6  1  0.333293  0.666588  0.500000  1
  Pr  Pr7  1  0.666707  0.333412  0.500000  1
  Pr  Pr8  1  0.666048  0.332096  0.000000  1
  Pr  Pr9  1  0.333952  0.667904  0.000000  1
  Bi  Bi10  1  0.000077  0.617114  0.748372  1
  Bi  Bi11  1  0.999923  0.382886  0.251628  1
  Bi  Bi12  1  0.382963  0.382886  0.748372  1
  Bi  Bi13  1  0.617037  0.617114  0.251628  1
  Pb  Pb14  1  0.616162  0.000000  0.748212  1
  Pb  Pb15  1  0.383838  0.000000  0.251788  1
  Au  Au16  1  0.000000  0.000000  0.500000  1
  Br  Br17  1  0.000000  0.000000  0.000000  1
