# generated using pymatgen
data_Ac2Ge2Pd
_symmetry_space_group_name_H-M   'P 1'
_cell_length_a   6.20619032
_cell_length_b   6.20619098
_cell_length_c   12.03426144
_cell_angle_alpha   118.71239841
_cell_angle_beta   118.71240130
_cell_angle_gamma   43.14399328
_symmetry_Int_Tables_number   1
_chemical_formula_structural   Ac2Ge2Pd
_chemical_formula_sum   'Ac4 Ge4 Pd2'
_cell_volume   271.40011864
_cell_formula_units_Z   2
loop_
 _symmetry_equiv_pos_site_id
 _symmetry_equiv_pos_as_xyz
  1  'x, y, z'
loop_
 _atom_site_type_symbol
 _atom_site_label
 _atom_site_symmetry_multiplicity
 _atom_site_fract_x
 _atom_site_fract_y
 _atom_site_fract_z
 _atom_site_occupancy
  Ac  Ac0  1  0.935016  0.935016  0.142578  1
  Ac  Ac1  1  0.796849  0.796849  0.393873  1
  Ac  Ac2  1  0.203151  0.203151  0.606127  1
  Ac  Ac3  1  0.064984  0.064984  0.857422  1
  Ge  Ge4  1  0.626487  0.626487  0.082590  1
  Ge  Ge5  1  0.502682  0.502682  0.388278  1
  Ge  Ge6  1  0.497318  0.497318  0.611722  1
  Ge  Ge7  1  0.373513  0.373513  0.917410  1
  Pd  Pd8  1  0.245468  0.245468  0.188297  1
  Pd  Pd9  1  0.754532  0.754532  0.811703  1
