# generated using pymatgen
data_CrSi12(P4Rh)3
_symmetry_space_group_name_H-M   'P 1'
_cell_length_a   5.90494874
_cell_length_b   6.11714369
_cell_length_c   13.10338078
_cell_angle_alpha   89.80625689
_cell_angle_beta   90.19678824
_cell_angle_gamma   90.23823813
_symmetry_Int_Tables_number   1
_chemical_formula_structural   CrSi12(P4Rh)3
_chemical_formula_sum   'Cr1 Si12 P12 Rh3'
_cell_volume   473.30315271
_cell_formula_units_Z   1
loop_
 _symmetry_equiv_pos_site_id
 _symmetry_equiv_pos_as_xyz
  1  'x, y, z'
loop_
 _atom_site_type_symbol
 _atom_site_label
 _atom_site_symmetry_multiplicity
 _atom_site_fract_x
 _atom_site_fract_y
 _atom_site_fract_z
 _atom_site_occupancy
  Cr  Cr0  1  0.026792  0.517449  0.388270  1
  Si  Si1  1  0.973416  0.158696  0.313706  1
  Si  Si2  1  0.467945  0.839680  0.682580  1
  Si  Si3  1  0.932984  0.621779  0.213710  1
  Si  Si4  1  0.431543  0.373412  0.786831  1
  Si  Si5  1  0.340766  0.914913  0.950258  1
  Si  Si6  1  0.840706  0.083829  0.048052  1
  Si  Si7  1  0.915550  0.530603  0.673865  1
  Si  Si8  1  0.414762  0.469499  0.325351  1
  Si  Si9  1  0.996328  0.063398  0.569875  1
  Si  Si10  1  0.494674  0.941190  0.429427  1
  Si  Si11  1  0.911821  0.626410  0.927431  1
  Si  Si12  1  0.410938  0.372924  0.071991  1
  P  P13  1  0.578596  0.029779  0.825470  1
  P  P14  1  0.079522  0.964852  0.172332  1
  P  P15  1  0.519502  0.562748  0.930507  1
  P  P16  1  0.019069  0.436191  0.068827  1
  P  P17  1  0.609089  0.114100  0.573955  1
  P  P18  1  0.108054  0.889447  0.425742  1
  P  P19  1  0.545995  0.642645  0.180157  1
  P  P20  1  0.044610  0.356974  0.819263  1
  P  P21  1  0.581694  0.131848  0.288499  1
  P  P22  1  0.079555  0.869074  0.710264  1
  P  P23  1  0.154574  0.402159  0.555870  1
  P  P24  1  0.646937  0.602602  0.447903  1
  Rh  Rh25  1  0.965788  0.987052  0.878563  1
  Rh  Rh26  1  0.466291  0.011858  0.120073  1
  Rh  Rh27  1  0.536299  0.484887  0.621228  1
