# generated using pymatgen
data_PaMn3P2
_symmetry_space_group_name_H-M   'P 1'
_cell_length_a   3.70261900
_cell_length_b   10.78398800
_cell_length_c   12.63096500
_cell_angle_alpha   90.00000000
_cell_angle_beta   90.00000000
_cell_angle_gamma   90.00000000
_symmetry_Int_Tables_number   1
_chemical_formula_structural   PaMn3P2
_chemical_formula_sum   'Pa6 Mn18 P12'
_cell_volume   504.34178714
_cell_formula_units_Z   6
loop_
 _symmetry_equiv_pos_site_id
 _symmetry_equiv_pos_as_xyz
  1  'x, y, z'
loop_
 _atom_site_type_symbol
 _atom_site_label
 _atom_site_symmetry_multiplicity
 _atom_site_fract_x
 _atom_site_fract_y
 _atom_site_fract_z
 _atom_site_occupancy
  Pa  Pa0  1  0.751836  0.000000  0.467077  1
  Pa  Pa1  1  0.251836  0.500000  0.532923  1
  Pa  Pa2  1  0.251812  0.674295  0.791619  1
  Pa  Pa3  1  0.251812  0.325705  0.791619  1
  Pa  Pa4  1  0.751812  0.825705  0.208381  1
  Pa  Pa5  1  0.751812  0.174295  0.208381  1
  Mn  Mn6  1  0.751834  0.000000  0.008870  1
  Mn  Mn7  1  0.251834  0.500000  0.991130  1
  Mn  Mn8  1  0.251838  0.198791  0.568951  1
  Mn  Mn9  1  0.251838  0.801209  0.568951  1
  Mn  Mn10  1  0.751838  0.301209  0.431049  1
  Mn  Mn11  1  0.751838  0.698791  0.431049  1
  Mn  Mn12  1  0.251814  0.619464  0.296169  1
  Mn  Mn13  1  0.251814  0.380536  0.296169  1
  Mn  Mn14  1  0.751814  0.880536  0.703831  1
  Mn  Mn15  1  0.751814  0.119464  0.703831  1
  Mn  Mn16  1  0.251788  0.169756  0.003349  1
  Mn  Mn17  1  0.251788  0.830244  0.003349  1
  Mn  Mn18  1  0.751788  0.330244  0.996651  1
  Mn  Mn19  1  0.751788  0.669756  0.996651  1
  Mn  Mn20  1  0.251797  0.000000  0.844049  1
  Mn  Mn21  1  0.751797  0.500000  0.155951  1
  Mn  Mn22  1  0.251807  0.000000  0.296888  1
  Mn  Mn23  1  0.751807  0.500000  0.703112  1
  P  P24  1  0.251850  0.187911  0.385303  1
  P  P25  1  0.251850  0.812089  0.385303  1
  P  P26  1  0.751850  0.312089  0.614697  1
  P  P27  1  0.751850  0.687911  0.614697  1
  P  P28  1  0.251814  0.000000  0.114705  1
  P  P29  1  0.751814  0.500000  0.885295  1
  P  P30  1  0.251828  0.653494  0.112289  1
  P  P31  1  0.251828  0.346506  0.112289  1
  P  P32  1  0.751828  0.846506  0.887711  1
  P  P33  1  0.751828  0.153494  0.887711  1
  P  P34  1  0.251854  0.000000  0.646111  1
  P  P35  1  0.751854  0.500000  0.353889  1
