# generated using pymatgen
data_CeSm5Cu2(GeSe7)2
_symmetry_space_group_name_H-M   'P 1'
_cell_length_a   10.57489418
_cell_length_b   10.53738443
_cell_length_c   6.07134400
_cell_angle_alpha   90.05387902
_cell_angle_beta   89.95558245
_cell_angle_gamma   119.87161060
_symmetry_Int_Tables_number   1
_chemical_formula_structural   CeSm5Cu2(GeSe7)2
_chemical_formula_sum   'Ce1 Sm5 Cu2 Ge2 Se14'
_cell_volume   586.65735236
_cell_formula_units_Z   1
loop_
 _symmetry_equiv_pos_site_id
 _symmetry_equiv_pos_as_xyz
  1  'x, y, z'
loop_
 _atom_site_type_symbol
 _atom_site_label
 _atom_site_symmetry_multiplicity
 _atom_site_fract_x
 _atom_site_fract_y
 _atom_site_fract_z
 _atom_site_occupancy
  Ce  Ce0  1  0.355807  0.226033  0.755189  1
  Sm  Sm1  1  0.128440  0.354943  0.255361  1
  Sm  Sm2  1  0.870194  0.644282  0.756012  1
  Sm  Sm3  1  0.645287  0.774667  0.256668  1
  Sm  Sm4  1  0.225064  0.869732  0.254792  1
  Sm  Sm5  1  0.773280  0.128950  0.755092  1
  Cu  Cu6  1  0.000372  0.000324  0.286390  1
  Cu  Cu7  1  0.997734  0.998558  0.786817  1
  Ge  Ge8  1  0.333143  0.667774  0.670540  1
  Ge  Ge9  1  0.668301  0.333875  0.171151  1
  Se  Se10  1  0.333527  0.666578  0.057302  1
  Se  Se11  1  0.671530  0.335347  0.557952  1
  Se  Se12  1  0.091549  0.256396  0.772750  1
  Se  Se13  1  0.905760  0.742603  0.276575  1
  Se  Se14  1  0.740661  0.836034  0.775235  1
  Se  Se15  1  0.160271  0.902948  0.776484  1
  Se  Se16  1  0.837341  0.094824  0.274979  1
  Se  Se17  1  0.257439  0.163016  0.270624  1
  Se  Se18  1  0.419652  0.517356  0.507134  1
  Se  Se19  1  0.582601  0.486017  0.011867  1
  Se  Se20  1  0.482459  0.904416  0.508164  1
  Se  Se21  1  0.096962  0.580173  0.508472  1
  Se  Se22  1  0.903620  0.419762  0.007228  1
  Se  Se23  1  0.519007  0.095391  0.013215  1
