# generated using pymatgen
data_Pr3NdTe3N2
_symmetry_space_group_name_H-M   'P 1'
_cell_length_a   7.46403507
_cell_length_b   11.49597611
_cell_length_c   11.84977100
_cell_angle_alpha   90.00000000
_cell_angle_beta   90.00000000
_cell_angle_gamma   89.98397673
_symmetry_Int_Tables_number   1
_chemical_formula_structural   Pr3NdTe3N2
_chemical_formula_sum   'Pr12 Nd4 Te12 N8'
_cell_volume   1016.78578206
_cell_formula_units_Z   4
loop_
 _symmetry_equiv_pos_site_id
 _symmetry_equiv_pos_as_xyz
  1  'x, y, z'
loop_
 _atom_site_type_symbol
 _atom_site_label
 _atom_site_symmetry_multiplicity
 _atom_site_fract_x
 _atom_site_fract_y
 _atom_site_fract_z
 _atom_site_occupancy
  Pr  Pr0  1  0.145887  0.389769  0.950469  1
  Pr  Pr1  1  0.408331  0.159347  0.250000  1
  Pr  Pr2  1  0.353927  0.889765  0.049163  1
  Pr  Pr3  1  0.729522  0.468611  0.750000  1
  Pr  Pr4  1  0.854040  0.610238  0.450585  1
  Pr  Pr5  1  0.770745  0.968723  0.250000  1
  Pr  Pr6  1  0.270550  0.531257  0.250000  1
  Pr  Pr7  1  0.145887  0.389769  0.549531  1
  Pr  Pr8  1  0.353927  0.889765  0.450837  1
  Pr  Pr9  1  0.646014  0.110109  0.549728  1
  Pr  Pr10  1  0.854040  0.610238  0.049415  1
  Pr  Pr11  1  0.646014  0.110109  0.950272  1
  Nd  Nd12  1  0.090423  0.658366  0.750000  1
  Nd  Nd13  1  0.909491  0.341814  0.250000  1
  Nd  Nd14  1  0.232037  0.031282  0.750000  1
  Nd  Nd15  1  0.590188  0.841806  0.750000  1
  Te  Te16  1  0.064570  0.135733  0.079448  1
  Te  Te17  1  0.082569  0.774381  0.250000  1
  Te  Te18  1  0.566049  0.364662  0.079431  1
  Te  Te19  1  0.582448  0.725563  0.250000  1
  Te  Te20  1  0.934588  0.864415  0.919922  1
  Te  Te21  1  0.434422  0.635755  0.920129  1
  Te  Te22  1  0.918492  0.224918  0.750000  1
  Te  Te23  1  0.934588  0.864415  0.580078  1
  Te  Te24  1  0.064570  0.135733  0.420552  1
  Te  Te25  1  0.434422  0.635755  0.579871  1
  Te  Te26  1  0.566049  0.364662  0.420569  1
  Te  Te27  1  0.417217  0.273828  0.750000  1
  N  N28  1  0.446953  0.967288  0.622734  1
  N  N29  1  0.552487  0.032371  0.121672  1
  N  N30  1  0.948070  0.532961  0.622252  1
  N  N31  1  0.051985  0.466987  0.377779  1
  N  N32  1  0.948070  0.532961  0.877748  1
  N  N33  1  0.051985  0.466987  0.122221  1
  N  N34  1  0.552487  0.032371  0.378328  1
  N  N35  1  0.446953  0.967288  0.877266  1
