# generated using pymatgen
data_TmPu7(BeSi3)4
_symmetry_space_group_name_H-M   'P 1'
_cell_length_a   7.80947800
_cell_length_b   7.81382023
_cell_length_c   7.96467000
_cell_angle_alpha   90.00000000
_cell_angle_beta   90.00000000
_cell_angle_gamma   120.01838252
_symmetry_Int_Tables_number   1
_chemical_formula_structural   TmPu7(BeSi3)4
_chemical_formula_sum   'Tm1 Pu7 Be4 Si12'
_cell_volume   420.82677448
_cell_formula_units_Z   1
loop_
 _symmetry_equiv_pos_site_id
 _symmetry_equiv_pos_as_xyz
  1  'x, y, z'
loop_
 _atom_site_type_symbol
 _atom_site_label
 _atom_site_symmetry_multiplicity
 _atom_site_fract_x
 _atom_site_fract_y
 _atom_site_fract_z
 _atom_site_occupancy
  Tm  Tm0  1  0.999414  0.499707  0.250000  1
  Pu  Pu1  1  0.500229  0.499348  0.250000  1
  Pu  Pu2  1  0.499754  0.999021  0.750000  1
  Pu  Pu3  1  0.000711  0.500355  0.750000  1
  Pu  Pu4  1  0.499754  0.500730  0.750000  1
  Pu  Pu5  1  0.500229  0.000883  0.250000  1
  Pu  Pu6  1  0.999855  0.999928  0.750000  1
  Pu  Pu7  1  0.000095  0.000047  0.250000  1
  Be  Be8  1  0.331580  0.665791  0.006337  1
  Be  Be9  1  0.668421  0.334210  0.001621  1
  Be  Be10  1  0.668421  0.334210  0.498379  1
  Be  Be11  1  0.331580  0.665791  0.493663  1
  Si  Si12  1  0.172087  0.827876  0.499622  1
  Si  Si13  1  0.172087  0.344210  0.499622  1
  Si  Si14  1  0.654005  0.827002  0.496950  1
  Si  Si15  1  0.345988  0.172995  0.002024  1
  Si  Si16  1  0.827905  0.655787  0.499804  1
  Si  Si17  1  0.827905  0.172120  0.000196  1
  Si  Si18  1  0.827905  0.655787  0.000196  1
  Si  Si19  1  0.172087  0.344210  0.000378  1
  Si  Si20  1  0.654005  0.827002  0.003050  1
  Si  Si21  1  0.345988  0.172995  0.497976  1
  Si  Si22  1  0.827905  0.172120  0.499804  1
  Si  Si23  1  0.172087  0.827876  0.000378  1
