# generated using pymatgen
data_Ta8Ga5SiMo2
_symmetry_space_group_name_H-M   'P 1'
_cell_length_a   6.61580751
_cell_length_b   7.66626545
_cell_length_c   6.61580600
_cell_angle_alpha   115.42036618
_cell_angle_beta   90.29637877
_cell_angle_gamma   115.42036833
_symmetry_Int_Tables_number   1
_chemical_formula_structural   Ta8Ga5SiMo2
_chemical_formula_sum   'Ta8 Ga5 Si1 Mo2'
_cell_volume   266.23363447
_cell_formula_units_Z   1
loop_
 _symmetry_equiv_pos_site_id
 _symmetry_equiv_pos_as_xyz
  1  'x, y, z'
loop_
 _atom_site_type_symbol
 _atom_site_label
 _atom_site_symmetry_multiplicity
 _atom_site_fract_x
 _atom_site_fract_y
 _atom_site_fract_z
 _atom_site_occupancy
  Ta  Ta0  1  0.514188  0.697175  0.682987  1
  Ta  Ta1  1  0.183482  0.689265  0.005781  1
  Ta  Ta2  1  0.682848  0.693508  0.188358  1
  Ta  Ta3  1  0.005149  0.693508  0.510658  1
  Ta  Ta4  1  0.494219  0.310735  0.316518  1
  Ta  Ta5  1  0.817013  0.302825  0.985812  1
  Ta  Ta6  1  0.311642  0.306492  0.817152  1
  Ta  Ta7  1  0.989342  0.306492  0.494851  1
  Ga  Ga8  1  0.747772  0.500000  0.752228  1
  Ga  Ga9  1  0.247772  0.500000  0.252228  1
  Ga  Ga10  1  0.137796  0.000000  0.362204  1
  Ga  Ga11  1  0.634040  0.000000  0.136096  1
  Ga  Ga12  1  0.363904  0.000000  0.865960  1
  Si  Si13  1  0.867553  0.000000  0.632447  1
  Mo  Mo14  1  0.997112  0.000000  0.993827  1
  Mo  Mo15  1  0.506173  0.000000  0.502888  1
