# generated using pymatgen
data_Tm4MnRu7
_symmetry_space_group_name_H-M   'P 1'
_cell_length_a   5.30344778
_cell_length_b   5.17879046
_cell_length_c   8.87053700
_cell_angle_alpha   90.00000000
_cell_angle_beta   90.00000000
_cell_angle_gamma   120.57633745
_symmetry_Int_Tables_number   1
_chemical_formula_structural   Tm4MnRu7
_chemical_formula_sum   'Tm4 Mn1 Ru7'
_cell_volume   209.75657331
_cell_formula_units_Z   1
loop_
 _symmetry_equiv_pos_site_id
 _symmetry_equiv_pos_as_xyz
  1  'x, y, z'
loop_
 _atom_site_type_symbol
 _atom_site_label
 _atom_site_symmetry_multiplicity
 _atom_site_fract_x
 _atom_site_fract_y
 _atom_site_fract_z
 _atom_site_occupancy
  Tm  Tm0  1  0.667886  0.335648  0.566264  1
  Tm  Tm1  1  0.331242  0.663356  0.432836  1
  Tm  Tm2  1  0.331242  0.663356  0.067164  1
  Tm  Tm3  1  0.667886  0.335648  0.933736  1
  Mn  Mn4  1  0.166633  0.333994  0.750000  1
  Ru  Ru5  1  0.001079  0.003472  0.502158  1
  Ru  Ru6  1  0.001079  0.003472  0.997842  1
  Ru  Ru7  1  0.172953  0.825196  0.750000  1
  Ru  Ru8  1  0.653758  0.825979  0.750000  1
  Ru  Ru9  1  0.833297  0.666877  0.250000  1
  Ru  Ru10  1  0.826865  0.171236  0.250000  1
  Ru  Ru11  1  0.346080  0.171766  0.250000  1
