# generated using pymatgen
data_Yb5Ho(Si3Os)8
_symmetry_space_group_name_H-M   'P 1'
_cell_length_a   10.16996190
_cell_length_b   10.16996161
_cell_length_c   8.16060337
_cell_angle_alpha   89.94584142
_cell_angle_beta   90.05415897
_cell_angle_gamma   132.66124065
_symmetry_Int_Tables_number   1
_chemical_formula_structural   Yb5Ho(Si3Os)8
_chemical_formula_sum   'Yb5 Ho1 Si24 Os8'
_cell_volume   620.68102560
_cell_formula_units_Z   1
loop_
 _symmetry_equiv_pos_site_id
 _symmetry_equiv_pos_as_xyz
  1  'x, y, z'
loop_
 _atom_site_type_symbol
 _atom_site_label
 _atom_site_symmetry_multiplicity
 _atom_site_fract_x
 _atom_site_fract_y
 _atom_site_fract_z
 _atom_site_occupancy
  Yb  Yb0  1  0.499640  0.499614  0.499892  1
  Yb  Yb1  1  0.999614  0.999640  0.000108  1
  Yb  Yb2  1  0.500430  0.000430  0.750000  1
  Yb  Yb3  1  0.000110  0.500110  0.250000  1
  Yb  Yb4  1  0.499059  0.999059  0.250000  1
  Ho  Ho5  1  0.998628  0.498628  0.750000  1
  Si  Si6  1  0.794140  0.203513  0.498028  1
  Si  Si7  1  0.295578  0.705583  0.000355  1
  Si  Si8  1  0.205583  0.795578  0.499645  1
  Si  Si9  1  0.703513  0.294140  0.001972  1
  Si  Si10  1  0.332820  0.333772  0.832052  1
  Si  Si11  1  0.663819  0.668084  0.168414  1
  Si  Si12  1  0.168084  0.163819  0.331586  1
  Si  Si13  1  0.833772  0.832820  0.667948  1
  Si  Si14  1  0.125925  0.892287  0.730132  1
  Si  Si15  1  0.108908  0.874335  0.268818  1
  Si  Si16  1  0.608263  0.373790  0.231186  1
  Si  Si17  1  0.626344  0.392581  0.769860  1
  Si  Si18  1  0.873790  0.108263  0.268814  1
  Si  Si19  1  0.892581  0.126344  0.730140  1
  Si  Si20  1  0.392287  0.625925  0.769868  1
  Si  Si21  1  0.374335  0.608908  0.231182  1
  Si  Si22  1  0.349048  0.113446  0.507615  1
  Si  Si23  1  0.887140  0.653079  0.491524  1
  Si  Si24  1  0.386263  0.151276  0.008934  1
  Si  Si25  1  0.847526  0.613409  0.990509  1
  Si  Si26  1  0.651276  0.886263  0.491066  1
  Si  Si27  1  0.113409  0.347526  0.509491  1
  Si  Si28  1  0.613446  0.849048  0.992385  1
  Si  Si29  1  0.153079  0.387140  0.008476  1
  Os  Os30  1  0.672976  0.331138  0.501528  1
  Os  Os31  1  0.169421  0.828387  0.998332  1
  Os  Os32  1  0.328387  0.669421  0.501668  1
  Os  Os33  1  0.831138  0.172976  0.998472  1
  Os  Os34  1  0.127034  0.126775  0.624911  1
  Os  Os35  1  0.872572  0.873284  0.374724  1
  Os  Os36  1  0.373284  0.372572  0.125276  1
  Os  Os37  1  0.626775  0.627034  0.875089  1
