# generated using pymatgen
data_CsLiThO3
_symmetry_space_group_name_H-M   'P 1'
_cell_length_a   6.65055600
_cell_length_b   6.65055565
_cell_length_c   9.28039600
_cell_angle_alpha   90.00000000
_cell_angle_beta   90.00000000
_cell_angle_gamma   147.93720248
_symmetry_Int_Tables_number   1
_chemical_formula_structural   CsLiThO3
_chemical_formula_sum   'Cs2 Li2 Th2 O6'
_cell_volume   217.89784190
_cell_formula_units_Z   2
loop_
 _symmetry_equiv_pos_site_id
 _symmetry_equiv_pos_as_xyz
  1  'x, y, z'
loop_
 _atom_site_type_symbol
 _atom_site_label
 _atom_site_symmetry_multiplicity
 _atom_site_fract_x
 _atom_site_fract_y
 _atom_site_fract_z
 _atom_site_occupancy
  Cs  Cs0  1  0.737905  0.262093  0.250000  1
  Cs  Cs1  1  0.262093  0.737905  0.750000  1
  Li  Li2  1  0.457912  0.542086  0.250000  1
  Li  Li3  1  0.542086  0.457912  0.750000  1
  Th  Th4  1  0.000000  0.000000  0.000000  1
  Th  Th5  1  0.000000  0.000000  0.500000  1
  O  O6  1  0.397068  0.602930  0.059491  1
  O  O7  1  0.033661  0.966336  0.250000  1
  O  O8  1  0.397068  0.602930  0.440509  1
  O  O9  1  0.602930  0.397068  0.559491  1
  O  O10  1  0.966336  0.033661  0.750000  1
  O  O11  1  0.602930  0.397068  0.940509  1
