# generated using pymatgen
data_LaCd3PtRh3O14
_symmetry_space_group_name_H-M   'P 1'
_cell_length_a   7.36677514
_cell_length_b   7.35764780
_cell_length_c   7.36677500
_cell_angle_alpha   59.25891985
_cell_angle_beta   59.41497719
_cell_angle_gamma   59.25892085
_symmetry_Int_Tables_number   1
_chemical_formula_structural   LaCd3PtRh3O14
_chemical_formula_sum   'La1 Cd3 Pt1 Rh3 O14'
_cell_volume   277.91307724
_cell_formula_units_Z   1
loop_
 _symmetry_equiv_pos_site_id
 _symmetry_equiv_pos_as_xyz
  1  'x, y, z'
loop_
 _atom_site_type_symbol
 _atom_site_label
 _atom_site_symmetry_multiplicity
 _atom_site_fract_x
 _atom_site_fract_y
 _atom_site_fract_z
 _atom_site_occupancy
  La  La0  1  0.125000  0.125000  0.125000  1
  Cd  Cd1  1  0.625000  0.125000  0.125000  1
  Cd  Cd2  1  0.125000  0.625000  0.125000  1
  Cd  Cd3  1  0.125000  0.125000  0.625000  1
  Pt  Pt4  1  0.625000  0.125000  0.625000  1
  Rh  Rh5  1  0.625000  0.625000  0.125000  1
  Rh  Rh6  1  0.625000  0.625000  0.625000  1
  Rh  Rh7  1  0.125000  0.625000  0.625000  1
  O  O8  1  0.702091  0.295091  0.294515  1
  O  O9  1  0.703462  0.296447  0.703462  1
  O  O10  1  0.995117  0.992622  0.995117  1
  O  O11  1  0.298821  0.698017  0.298821  1
  O  O12  1  0.699581  0.693273  0.303223  1
  O  O13  1  0.946777  0.556727  0.550419  1
  O  O14  1  0.303223  0.693273  0.699581  1
  O  O15  1  0.254883  0.257378  0.254883  1
  O  O16  1  0.951179  0.551983  0.951179  1
  O  O17  1  0.546538  0.953553  0.546538  1
  O  O18  1  0.550419  0.556727  0.946777  1
  O  O19  1  0.955485  0.954909  0.547909  1
  O  O20  1  0.547909  0.954909  0.955485  1
  O  O21  1  0.294515  0.295091  0.702091  1
