# generated using pymatgen
data_LiTm8Re(B12Ir)2
_symmetry_space_group_name_H-M   'P 1'
_cell_length_a   3.63213900
_cell_length_b   9.08730296
_cell_length_c   11.44121418
_cell_angle_alpha   90.35537204
_cell_angle_beta   90.00000000
_cell_angle_gamma   90.00000000
_symmetry_Int_Tables_number   1
_chemical_formula_structural   LiTm8Re(B12Ir)2
_chemical_formula_sum   'Li1 Tm8 Re1 B24 Ir2'
_cell_volume   377.62542727
_cell_formula_units_Z   1
loop_
 _symmetry_equiv_pos_site_id
 _symmetry_equiv_pos_as_xyz
  1  'x, y, z'
loop_
 _atom_site_type_symbol
 _atom_site_label
 _atom_site_symmetry_multiplicity
 _atom_site_fract_x
 _atom_site_fract_y
 _atom_site_fract_z
 _atom_site_occupancy
  Li  Li0  1  0.000000  0.636329  0.323482  1
  Tm  Tm1  1  0.000000  0.326218  0.413183  1
  Tm  Tm2  1  0.000000  0.679951  0.587231  1
  Tm  Tm3  1  0.000000  0.822332  0.082930  1
  Tm  Tm4  1  0.000000  0.175221  0.912753  1
  Tm  Tm5  1  0.000000  0.939818  0.370474  1
  Tm  Tm6  1  0.000000  0.054140  0.626347  1
  Tm  Tm7  1  0.000000  0.445200  0.130496  1
  Tm  Tm8  1  0.000000  0.557571  0.874780  1
  Re  Re9  1  0.000000  0.862142  0.821119  1
  B  B10  1  0.500000  0.553683  0.434695  1
  B  B11  1  0.500000  0.448357  0.564647  1
  B  B12  1  0.500000  0.054032  0.066183  1
  B  B13  1  0.500000  0.947485  0.933409  1
  B  B14  1  0.500000  0.748159  0.420110  1
  B  B15  1  0.500000  0.251900  0.578267  1
  B  B16  1  0.500000  0.250536  0.080200  1
  B  B17  1  0.500000  0.751682  0.919996  1
  B  B18  1  0.500000  0.792061  0.262779  1
  B  B19  1  0.500000  0.207177  0.734607  1
  B  B20  1  0.500000  0.294641  0.236817  1
  B  B21  1  0.500000  0.707121  0.765340  1
  B  B22  1  0.500000  0.633302  0.183269  1
  B  B23  1  0.500000  0.367750  0.816968  1
  B  B24  1  0.500000  0.131937  0.315448  1
  B  B25  1  0.500000  0.868359  0.684471  1
  B  B26  1  0.500000  0.979749  0.212152  1
  B  B27  1  0.500000  0.018156  0.786510  1
  B  B28  1  0.500000  0.481429  0.289021  1
  B  B29  1  0.500000  0.517850  0.713229  1
  B  B30  1  0.500000  0.607152  0.031635  1
  B  B31  1  0.500000  0.393426  0.972258  1
  B  B32  1  0.500000  0.105528  0.469364  1
  B  B33  1  0.500000  0.891972  0.527432  1
  Ir  Ir34  1  0.000000  0.360331  0.681247  1
  Ir  Ir35  1  0.000000  0.137306  0.177148  1
