# generated using pymatgen
data_Fe6Re2Mo5
_symmetry_space_group_name_H-M   'P 1'
_cell_length_a   4.78021511
_cell_length_b   4.78021437
_cell_length_c   9.16497726
_cell_angle_alpha   74.88323829
_cell_angle_beta   74.88323897
_cell_angle_gamma   59.99999152
_symmetry_Int_Tables_number   1
_chemical_formula_structural   Fe6Re2Mo5
_chemical_formula_sum   'Fe6 Re2 Mo5'
_cell_volume   172.94787438
_cell_formula_units_Z   1
loop_
 _symmetry_equiv_pos_site_id
 _symmetry_equiv_pos_as_xyz
  1  'x, y, z'
loop_
 _atom_site_type_symbol
 _atom_site_label
 _atom_site_symmetry_multiplicity
 _atom_site_fract_x
 _atom_site_fract_y
 _atom_site_fract_z
 _atom_site_occupancy
  Fe  Fe0  1  0.907179  0.907179  0.765189  1
  Fe  Fe1  1  0.420452  0.907179  0.765189  1
  Fe  Fe2  1  0.907179  0.420452  0.765189  1
  Fe  Fe3  1  0.092778  0.092778  0.234114  1
  Fe  Fe4  1  0.580332  0.092778  0.234114  1
  Fe  Fe5  1  0.092778  0.580332  0.234114  1
  Re  Re6  1  0.999972  0.999972  0.000085  1
  Re  Re7  1  0.451494  0.451494  0.645518  1
  Mo  Mo8  1  0.835043  0.835043  0.494870  1
  Mo  Mo9  1  0.164504  0.164504  0.506488  1
  Mo  Mo10  1  0.650312  0.650312  0.049067  1
  Mo  Mo11  1  0.350127  0.350127  0.949616  1
  Mo  Mo12  1  0.547850  0.547850  0.356450  1
