# generated using pymatgen
data_La7Tb12HoSn16
_symmetry_space_group_name_H-M   'P 1'
_cell_length_a   8.10298243
_cell_length_b   8.34561561
_cell_length_c   15.76777100
_cell_angle_alpha   90.02369241
_cell_angle_beta   90.26000678
_cell_angle_gamma   89.84911650
_symmetry_Int_Tables_number   1
_chemical_formula_structural   La7Tb12HoSn16
_chemical_formula_sum   'La7 Tb12 Ho1 Sn16'
_cell_volume   1066.27092331
_cell_formula_units_Z   1
loop_
 _symmetry_equiv_pos_site_id
 _symmetry_equiv_pos_as_xyz
  1  'x, y, z'
loop_
 _atom_site_type_symbol
 _atom_site_label
 _atom_site_symmetry_multiplicity
 _atom_site_fract_x
 _atom_site_fract_y
 _atom_site_fract_z
 _atom_site_occupancy
  La  La0  1  0.994383  0.821966  0.902085  1
  La  La1  1  0.505704  0.320880  0.096248  1
  La  La2  1  0.003799  0.177792  0.405365  1
  La  La3  1  0.507308  0.321806  0.404456  1
  La  La4  1  0.004498  0.176995  0.095627  1
  La  La5  1  0.494610  0.677355  0.904074  1
  La  La6  1  0.994732  0.821259  0.596227  1
  Tb  Tb7  1  0.650529  0.168395  0.624865  1
  Tb  Tb8  1  0.152481  0.334133  0.875389  1
  Tb  Tb9  1  0.348502  0.832967  0.124292  1
  Tb  Tb10  1  0.849906  0.665968  0.377656  1
  Tb  Tb11  1  0.350734  0.831911  0.376107  1
  Tb  Tb12  1  0.848283  0.667287  0.123692  1
  Tb  Tb13  1  0.651615  0.167147  0.874114  1
  Tb  Tb14  1  0.151066  0.335283  0.622789  1
  Tb  Tb15  1  0.490884  0.678580  0.598162  1
  Tb  Tb16  1  0.818186  0.501039  0.748591  1
  Tb  Tb17  1  0.319269  0.001357  0.749114  1
  Tb  Tb18  1  0.182219  0.500035  0.250649  1
  Ho  Ho19  1  0.681458  0.998515  0.250266  1
  Sn  Sn20  1  0.682818  0.957138  0.460832  1
  Sn  Sn21  1  0.184833  0.540007  0.041595  1
  Sn  Sn22  1  0.315854  0.040544  0.958394  1
  Sn  Sn23  1  0.806188  0.464511  0.543339  1
  Sn  Sn24  1  0.317572  0.037093  0.541912  1
  Sn  Sn25  1  0.816058  0.459090  0.958233  1
  Sn  Sn26  1  0.683796  0.959187  0.040210  1
  Sn  Sn27  1  0.192433  0.541826  0.459912  1
  Sn  Sn28  1  0.452699  0.380441  0.749349  1
  Sn  Sn29  1  0.953837  0.124003  0.749315  1
  Sn  Sn30  1  0.548525  0.622041  0.250023  1
  Sn  Sn31  1  0.046102  0.876519  0.250890  1
  Sn  Sn32  1  0.684340  0.856184  0.747502  1
  Sn  Sn33  1  0.190576  0.641874  0.748414  1
  Sn  Sn34  1  0.311079  0.140312  0.250169  1
  Sn  Sn35  1  0.813123  0.358564  0.250144  1
