# generated using pymatgen
data_Pr3Er2P12Ru17Pt2
_symmetry_space_group_name_H-M   'P 1'
_cell_length_a   12.62183642
_cell_length_b   12.71521371
_cell_length_c   4.01090200
_cell_angle_alpha   90.00000000
_cell_angle_beta   90.00000000
_cell_angle_gamma   120.24503016
_symmetry_Int_Tables_number   1
_chemical_formula_structural   Pr3Er2P12Ru17Pt2
_chemical_formula_sum   'Pr3 Er2 P12 Ru17 Pt2'
_cell_volume   556.08512637
_cell_formula_units_Z   1
loop_
 _symmetry_equiv_pos_site_id
 _symmetry_equiv_pos_as_xyz
  1  'x, y, z'
loop_
 _atom_site_type_symbol
 _atom_site_label
 _atom_site_symmetry_multiplicity
 _atom_site_fract_x
 _atom_site_fract_y
 _atom_site_fract_z
 _atom_site_occupancy
  Pr  Pr0  1  0.183360  0.182555  0.500000  1
  Pr  Pr1  1  0.816640  0.999195  0.500000  1
  Pr  Pr2  1  0.000000  0.815521  0.500000  1
  Er  Er3  1  0.328932  0.663999  0.000000  1
  Er  Er4  1  0.671068  0.335066  0.000000  1
  P  P5  1  0.809992  0.810691  0.000000  1
  P  P6  1  0.190008  0.000698  0.000000  1
  P  P7  1  0.000000  0.188352  0.000000  1
  P  P8  1  0.174249  0.479353  0.500000  1
  P  P9  1  0.516266  0.700884  0.500000  1
  P  P10  1  0.297932  0.818267  0.500000  1
  P  P11  1  0.702068  0.520336  0.500000  1
  P  P12  1  0.825751  0.305104  0.500000  1
  P  P13  1  0.483734  0.184618  0.500000  1
  P  P14  1  0.367686  0.367535  0.000000  1
  P  P15  1  0.632314  0.999849  0.000000  1
  P  P16  1  0.000000  0.624867  0.000000  1
  Ru  Ru17  1  0.000000  0.446097  0.000000  1
  Ru  Ru18  1  0.706662  0.707994  0.500000  1
  Ru  Ru19  1  0.293338  0.001332  0.500000  1
  Ru  Ru20  1  0.000000  0.287474  0.500000  1
  Ru  Ru21  1  0.186211  0.381995  0.000000  1
  Ru  Ru22  1  0.615008  0.802015  0.000000  1
  Ru  Ru23  1  0.196265  0.815031  0.000000  1
  Ru  Ru24  1  0.803735  0.618766  0.000000  1
  Ru  Ru25  1  0.813789  0.195784  0.000000  1
  Ru  Ru26  1  0.384992  0.187007  0.000000  1
  Ru  Ru27  1  0.368375  0.496966  0.500000  1
  Ru  Ru28  1  0.504222  0.875953  0.500000  1
  Ru  Ru29  1  0.124387  0.629900  0.500000  1
  Ru  Ru30  1  0.875613  0.505513  0.500000  1
  Ru  Ru31  1  0.631625  0.128591  0.500000  1
  Ru  Ru32  1  0.495778  0.371731  0.500000  1
  Ru  Ru33  1  0.000000  0.999366  0.000000  1
  Pt  Pt34  1  0.550645  0.551120  0.000000  1
  Pt  Pt35  1  0.449355  0.000475  0.000000  1
