# generated using pymatgen
data_NaCd12Hg5
_symmetry_space_group_name_H-M   'P 1'
_cell_length_a   15.52734554
_cell_length_b   15.52734458
_cell_length_c   6.90755200
_cell_angle_alpha   98.91504295
_cell_angle_beta   98.91504240
_cell_angle_gamma   14.46249752
_symmetry_Int_Tables_number   1
_chemical_formula_structural   NaCd12Hg5
_chemical_formula_sum   'Na1 Cd12 Hg5'
_cell_volume   410.82129937
_cell_formula_units_Z   1
loop_
 _symmetry_equiv_pos_site_id
 _symmetry_equiv_pos_as_xyz
  1  'x, y, z'
loop_
 _atom_site_type_symbol
 _atom_site_label
 _atom_site_symmetry_multiplicity
 _atom_site_fract_x
 _atom_site_fract_y
 _atom_site_fract_z
 _atom_site_occupancy
  Na  Na0  1  0.000000  0.000000  0.500000  1
  Cd  Cd1  1  0.109441  0.109441  0.069556  1
  Cd  Cd2  1  0.224457  0.224457  0.110562  1
  Cd  Cd3  1  0.334957  0.334957  0.160761  1
  Cd  Cd4  1  0.444854  0.444854  0.209001  1
  Cd  Cd5  1  0.554977  0.554977  0.286499  1
  Cd  Cd6  1  0.780713  0.780713  0.387693  1
  Cd  Cd7  1  0.219287  0.219287  0.612308  1
  Cd  Cd8  1  0.445023  0.445023  0.713501  1
  Cd  Cd9  1  0.555146  0.555146  0.790998  1
  Cd  Cd10  1  0.665042  0.665042  0.839239  1
  Cd  Cd11  1  0.775542  0.775542  0.889437  1
  Cd  Cd12  1  0.890560  0.890560  0.930445  1
  Hg  Hg13  1  0.000000  0.000000  0.000000  1
  Hg  Hg14  1  0.669670  0.669670  0.327401  1
  Hg  Hg15  1  0.891702  0.891702  0.436932  1
  Hg  Hg16  1  0.108298  0.108298  0.563069  1
  Hg  Hg17  1  0.330330  0.330330  0.672599  1
