# generated using pymatgen
data_La4Cu(NiSb4)2
_symmetry_space_group_name_H-M   'P 1'
_cell_length_a   10.88279145
_cell_length_b   10.88279132
_cell_length_c   10.88279121
_cell_angle_alpha   146.50444542
_cell_angle_beta   146.50444226
_cell_angle_gamma   48.09810004
_symmetry_Int_Tables_number   1
_chemical_formula_structural   La4Cu(NiSb4)2
_chemical_formula_sum   'La4 Cu1 Ni2 Sb8'
_cell_volume   390.94000543
_cell_formula_units_Z   1
loop_
 _symmetry_equiv_pos_site_id
 _symmetry_equiv_pos_as_xyz
  1  'x, y, z'
loop_
 _atom_site_type_symbol
 _atom_site_label
 _atom_site_symmetry_multiplicity
 _atom_site_fract_x
 _atom_site_fract_y
 _atom_site_fract_z
 _atom_site_occupancy
  La  La0  1  0.634154  0.634154  0.502048  1
  La  La1  1  0.132105  0.132105  0.497952  1
  La  La2  1  0.365846  0.867895  0.000000  1
  La  La3  1  0.867895  0.365846  0.000000  1
  Cu  Cu4  1  0.000000  0.000000  0.000000  1
  Ni  Ni5  1  0.000000  0.500000  0.500000  1
  Ni  Ni6  1  0.500000  0.000000  0.500000  1
  Sb  Sb7  1  0.321501  0.321501  0.515034  1
  Sb  Sb8  1  0.806467  0.806467  0.484966  1
  Sb  Sb9  1  0.678499  0.193533  0.000000  1
  Sb  Sb10  1  0.193533  0.678499  0.000000  1
  Sb  Sb11  1  0.249812  0.249812  0.000000  1
  Sb  Sb12  1  0.750188  0.750188  0.000000  1
  Sb  Sb13  1  0.750000  0.250000  0.500000  1
  Sb  Sb14  1  0.250000  0.750000  0.500000  1
