# generated using pymatgen
data_ScTa6InS12
_symmetry_space_group_name_H-M   'P 1'
_cell_length_a   5.77152600
_cell_length_b   5.77152502
_cell_length_c   14.11102400
_cell_angle_alpha   90.00000000
_cell_angle_beta   90.00000000
_cell_angle_gamma   120.00000563
_symmetry_Int_Tables_number   1
_chemical_formula_structural   ScTa6InS12
_chemical_formula_sum   'Sc1 Ta6 In1 S12'
_cell_volume   407.07119912
_cell_formula_units_Z   1
loop_
 _symmetry_equiv_pos_site_id
 _symmetry_equiv_pos_as_xyz
  1  'x, y, z'
loop_
 _atom_site_type_symbol
 _atom_site_label
 _atom_site_symmetry_multiplicity
 _atom_site_fract_x
 _atom_site_fract_y
 _atom_site_fract_z
 _atom_site_occupancy
  Sc  Sc0  1  0.666667  0.333333  0.750000  1
  Ta  Ta1  1  0.333333  0.666667  0.979371  1
  Ta  Ta2  1  0.000000  0.000000  0.980669  1
  Ta  Ta3  1  0.000000  0.000000  0.519331  1
  Ta  Ta4  1  0.333333  0.666667  0.520629  1
  Ta  Ta5  1  0.666667  0.333333  0.980580  1
  Ta  Ta6  1  0.666667  0.333333  0.519420  1
  In  In7  1  0.333333  0.666667  0.250000  1
  S  S8  1  0.333319  0.999580  0.090482  1
  S  S9  1  0.667099  0.996763  0.632002  1
  S  S10  1  0.000420  0.333738  0.090482  1
  S  S11  1  0.666262  0.999580  0.409518  1
  S  S12  1  0.333319  0.333738  0.409518  1
  S  S13  1  0.000420  0.666681  0.409518  1
  S  S14  1  0.666262  0.666681  0.090482  1
  S  S15  1  0.329664  0.332901  0.632002  1
  S  S16  1  0.003237  0.670336  0.632002  1
  S  S17  1  0.329664  0.996763  0.867998  1
  S  S18  1  0.667099  0.670336  0.867998  1
  S  S19  1  0.003237  0.332901  0.867998  1
