# generated using pymatgen
data_Pr8SiAsI12
_symmetry_space_group_name_H-M   'P 1'
_cell_length_a   4.40614300
_cell_length_b   14.50311278
_cell_length_c   15.31791997
_cell_angle_alpha   90.01071593
_cell_angle_beta   90.00000000
_cell_angle_gamma   90.00000000
_symmetry_Int_Tables_number   1
_chemical_formula_structural   Pr8SiAsI12
_chemical_formula_sum   'Pr8 Si1 As1 I12'
_cell_volume   978.85778825
_cell_formula_units_Z   1
loop_
 _symmetry_equiv_pos_site_id
 _symmetry_equiv_pos_as_xyz
  1  'x, y, z'
loop_
 _atom_site_type_symbol
 _atom_site_label
 _atom_site_symmetry_multiplicity
 _atom_site_fract_x
 _atom_site_fract_y
 _atom_site_fract_z
 _atom_site_occupancy
  Pr  Pr0  1  0.500000  0.115322  0.345506  1
  Pr  Pr1  1  0.500000  0.884678  0.654494  1
  Pr  Pr2  1  0.500000  0.614990  0.153886  1
  Pr  Pr3  1  0.500000  0.385010  0.846114  1
  Pr  Pr4  1  0.000000  0.111827  0.574566  1
  Pr  Pr5  1  0.000000  0.888173  0.425434  1
  Pr  Pr6  1  0.000000  0.613463  0.924204  1
  Pr  Pr7  1  0.000000  0.386537  0.075796  1
  Si  Si8  1  0.500000  0.500000  0.000000  1
  As  As9  1  0.500000  0.000000  0.500000  1
  I  I10  1  0.500000  0.244029  0.162594  1
  I  I11  1  0.500000  0.755971  0.837406  1
  I  I12  1  0.500000  0.746330  0.339928  1
  I  I13  1  0.500000  0.253670  0.660072  1
  I  I14  1  0.000000  0.258418  0.413910  1
  I  I15  1  0.000000  0.741582  0.586090  1
  I  I16  1  0.000000  0.758847  0.086257  1
  I  I17  1  0.000000  0.241153  0.913743  1
  I  I18  1  0.000000  0.998736  0.240752  1
  I  I19  1  0.000000  0.001264  0.759248  1
  I  I20  1  0.000000  0.499085  0.259816  1
  I  I21  1  0.000000  0.500915  0.740184  1
