# generated using pymatgen
data_PrAgIr2O7
_symmetry_space_group_name_H-M   'P 1'
_cell_length_a   7.31540603
_cell_length_b   7.24590433
_cell_length_c   7.31540668
_cell_angle_alpha   60.31379305
_cell_angle_beta   61.57584169
_cell_angle_gamma   60.31378564
_symmetry_Int_Tables_number   1
_chemical_formula_structural   PrAgIr2O7
_chemical_formula_sum   'Pr2 Ag2 Ir4 O14'
_cell_volume   278.64718040
_cell_formula_units_Z   2
loop_
 _symmetry_equiv_pos_site_id
 _symmetry_equiv_pos_as_xyz
  1  'x, y, z'
loop_
 _atom_site_type_symbol
 _atom_site_label
 _atom_site_symmetry_multiplicity
 _atom_site_fract_x
 _atom_site_fract_y
 _atom_site_fract_z
 _atom_site_occupancy
  Pr  Pr0  1  0.125000  0.125000  0.625000  1
  Pr  Pr1  1  0.625000  0.125000  0.125000  1
  Ag  Ag2  1  0.125000  0.125000  0.125000  1
  Ag  Ag3  1  0.125000  0.625000  0.125000  1
  Ir  Ir4  1  0.625000  0.625000  0.625000  1
  Ir  Ir5  1  0.125000  0.625000  0.625000  1
  Ir  Ir6  1  0.625000  0.125000  0.625000  1
  Ir  Ir7  1  0.625000  0.625000  0.125000  1
  O  O8  1  0.947238  0.547522  0.553886  1
  O  O9  1  0.302762  0.298646  0.696114  1
  O  O10  1  0.941076  0.558924  0.941076  1
  O  O11  1  0.696114  0.298646  0.302762  1
  O  O12  1  0.553886  0.547522  0.947238  1
  O  O13  1  0.539854  0.960146  0.539854  1
  O  O14  1  0.553886  0.951354  0.947238  1
  O  O15  1  0.234469  0.265531  0.234469  1
  O  O16  1  0.302762  0.702478  0.696114  1
  O  O17  1  0.710146  0.289854  0.710146  1
  O  O18  1  0.015531  0.984469  0.015531  1
  O  O19  1  0.947238  0.951354  0.553886  1
  O  O20  1  0.308924  0.691076  0.308924  1
  O  O21  1  0.696114  0.702478  0.302762  1
