# generated using pymatgen
data_Tb3HoMnAl18Pd5
_symmetry_space_group_name_H-M   'P 1'
_cell_length_a   7.60614833
_cell_length_b   7.60804457
_cell_length_c   9.49084734
_cell_angle_alpha   90.03924242
_cell_angle_beta   90.00465587
_cell_angle_gamma   119.59087331
_symmetry_Int_Tables_number   1
_chemical_formula_structural   Tb3HoMnAl18Pd5
_chemical_formula_sum   'Tb3 Ho1 Mn1 Al18 Pd5'
_cell_volume   477.58317596
_cell_formula_units_Z   1
loop_
 _symmetry_equiv_pos_site_id
 _symmetry_equiv_pos_as_xyz
  1  'x, y, z'
loop_
 _atom_site_type_symbol
 _atom_site_label
 _atom_site_symmetry_multiplicity
 _atom_site_fract_x
 _atom_site_fract_y
 _atom_site_fract_z
 _atom_site_occupancy
  Tb  Tb0  1  0.994975  0.669990  0.248513  1
  Tb  Tb1  1  0.005201  0.330014  0.751433  1
  Tb  Tb2  1  0.669842  0.994840  0.248600  1
  Ho  Ho3  1  0.329784  0.005089  0.751715  1
  Mn  Mn4  1  0.000254  0.000099  0.999758  1
  Al  Al5  1  0.124717  0.124629  0.241611  1
  Al  Al6  1  0.876001  0.875602  0.758346  1
  Al  Al7  1  0.999408  0.324138  0.072095  1
  Al  Al8  1  0.001285  0.676477  0.927430  1
  Al  Al9  1  0.998307  0.665078  0.578522  1
  Al  Al10  1  0.335394  0.002162  0.422327  1
  Al  Al11  1  0.002235  0.335471  0.421887  1
  Al  Al12  1  0.663943  0.997785  0.578566  1
  Al  Al13  1  0.675274  0.000596  0.927497  1
  Al  Al14  1  0.324211  0.999406  0.071528  1
  Al  Al15  1  0.334275  0.333787  0.557598  1
  Al  Al16  1  0.665739  0.665741  0.442963  1
  Al  Al17  1  0.676439  0.676438  0.050725  1
  Al  Al18  1  0.323583  0.323020  0.948708  1
  Al  Al19  1  0.340295  0.545620  0.248444  1
  Al  Al20  1  0.659201  0.453694  0.751526  1
  Al  Al21  1  0.545556  0.340187  0.248464  1
  Al  Al22  1  0.454199  0.660080  0.751522  1
  Pd  Pd23  1  0.671982  0.327768  0.999851  1
  Pd  Pd24  1  0.327890  0.672245  0.999869  1
  Pd  Pd25  1  0.327744  0.672388  0.500152  1
  Pd  Pd26  1  0.672111  0.327634  0.500149  1
  Pd  Pd27  1  0.000157  0.000025  0.500202  1
