# generated using pymatgen
data_Zr7Ti(InCu2)4
_symmetry_space_group_name_H-M   'P 1'
_cell_length_a   7.24525237
_cell_length_b   7.24525268
_cell_length_c   6.77198700
_cell_angle_alpha   90.00000000
_cell_angle_beta   90.00000000
_cell_angle_gamma   90.11761656
_symmetry_Int_Tables_number   1
_chemical_formula_structural   Zr7Ti(InCu2)4
_chemical_formula_sum   'Zr7 Ti1 In4 Cu8'
_cell_volume   355.48579797
_cell_formula_units_Z   1
loop_
 _symmetry_equiv_pos_site_id
 _symmetry_equiv_pos_as_xyz
  1  'x, y, z'
loop_
 _atom_site_type_symbol
 _atom_site_label
 _atom_site_symmetry_multiplicity
 _atom_site_fract_x
 _atom_site_fract_y
 _atom_site_fract_z
 _atom_site_occupancy
  Zr  Zr0  1  0.150772  0.150772  0.000000  1
  Zr  Zr1  1  0.849577  0.849577  0.000000  1
  Zr  Zr2  1  0.648778  0.347347  0.500000  1
  Zr  Zr3  1  0.347347  0.648778  0.500000  1
  Zr  Zr4  1  0.694102  0.304958  0.000000  1
  Zr  Zr5  1  0.304958  0.694102  0.000000  1
  Zr  Zr6  1  0.805821  0.805821  0.500000  1
  Ti  Ti7  1  0.193268  0.193268  0.500000  1
  In  In8  1  0.497070  0.001749  0.254294  1
  In  In9  1  0.497070  0.001749  0.745706  1
  In  In10  1  0.001749  0.497070  0.254294  1
  In  In11  1  0.001749  0.497070  0.745706  1
  Cu  Cu12  1  0.374088  0.374088  0.206670  1
  Cu  Cu13  1  0.621715  0.621715  0.799509  1
  Cu  Cu14  1  0.621715  0.621715  0.200491  1
  Cu  Cu15  1  0.882765  0.125301  0.697277  1
  Cu  Cu16  1  0.882765  0.125301  0.302723  1
  Cu  Cu17  1  0.374088  0.374088  0.793330  1
  Cu  Cu18  1  0.125301  0.882765  0.302723  1
  Cu  Cu19  1  0.125301  0.882765  0.697277  1
