# generated using pymatgen
data_Lu12Fe3AgBi
_symmetry_space_group_name_H-M   'P 1'
_cell_length_a   8.16869962
_cell_length_b   8.16870006
_cell_length_c   8.16869909
_cell_angle_alpha   110.05574571
_cell_angle_beta   107.24154196
_cell_angle_gamma   111.14105294
_symmetry_Int_Tables_number   1
_chemical_formula_structural   Lu12Fe3AgBi
_chemical_formula_sum   'Lu12 Fe3 Ag1 Bi1'
_cell_volume   419.08787575
_cell_formula_units_Z   1
loop_
 _symmetry_equiv_pos_site_id
 _symmetry_equiv_pos_as_xyz
  1  'x, y, z'
loop_
 _atom_site_type_symbol
 _atom_site_label
 _atom_site_symmetry_multiplicity
 _atom_site_fract_x
 _atom_site_fract_y
 _atom_site_fract_z
 _atom_site_occupancy
  Lu  Lu0  1  0.304592  0.313685  0.618277  1
  Lu  Lu1  1  0.695408  0.686315  0.381723  1
  Lu  Lu2  1  0.695408  0.313685  0.009093  1
  Lu  Lu3  1  0.304592  0.686315  0.990907  1
  Lu  Lu4  1  0.190812  0.439978  0.249166  1
  Lu  Lu5  1  0.809188  0.560022  0.750834  1
  Lu  Lu6  1  0.190812  0.941645  0.750834  1
  Lu  Lu7  1  0.967643  0.192434  0.775210  1
  Lu  Lu8  1  0.809188  0.058355  0.249166  1
  Lu  Lu9  1  0.032357  0.807566  0.224790  1
  Lu  Lu10  1  0.417224  0.192434  0.224790  1
  Lu  Lu11  1  0.582776  0.807566  0.775210  1
  Fe  Fe12  1  0.382667  0.382667  0.000000  1
  Fe  Fe13  1  0.617333  0.617333  0.000000  1
  Fe  Fe14  1  0.000000  0.000000  0.000000  1
  Ag  Ag15  1  0.000000  0.500000  0.500000  1
  Bi  Bi16  1  0.500000  0.000000  0.500000  1
