# generated using pymatgen
data_NdLu2RhO7
_symmetry_space_group_name_H-M   'P 1'
_cell_length_a   6.37948742
_cell_length_b   6.37948988
_cell_length_c   7.45271300
_cell_angle_alpha   90.00000000
_cell_angle_beta   90.00000000
_cell_angle_gamma   109.36028110
_symmetry_Int_Tables_number   1
_chemical_formula_structural   NdLu2RhO7
_chemical_formula_sum   'Nd2 Lu4 Rh2 O14'
_cell_volume   286.15824498
_cell_formula_units_Z   2
loop_
 _symmetry_equiv_pos_site_id
 _symmetry_equiv_pos_as_xyz
  1  'x, y, z'
loop_
 _atom_site_type_symbol
 _atom_site_label
 _atom_site_symmetry_multiplicity
 _atom_site_fract_x
 _atom_site_fract_y
 _atom_site_fract_z
 _atom_site_occupancy
  Nd  Nd0  1  0.500000  0.500000  0.500000  1
  Nd  Nd1  1  0.500000  0.500000  0.000000  1
  Lu  Lu2  1  0.534664  0.000184  0.750000  1
  Lu  Lu3  1  0.000185  0.534664  0.250000  1
  Lu  Lu4  1  0.465336  0.999816  0.250000  1
  Lu  Lu5  1  0.999815  0.465336  0.750000  1
  Rh  Rh6  1  0.000000  0.000000  0.500000  1
  Rh  Rh7  1  0.000000  0.000000  0.000000  1
  O  O8  1  0.674173  0.929924  0.470837  1
  O  O9  1  0.929923  0.674173  0.529163  1
  O  O10  1  0.674173  0.929924  0.029163  1
  O  O11  1  0.929923  0.674173  0.970837  1
  O  O12  1  0.325827  0.070076  0.529163  1
  O  O13  1  0.070077  0.325827  0.470837  1
  O  O14  1  0.325827  0.070076  0.970837  1
  O  O15  1  0.070077  0.325827  0.029163  1
  O  O16  1  0.926146  0.073855  0.750000  1
  O  O17  1  0.073854  0.926145  0.250000  1
  O  O18  1  0.358386  0.641614  0.750000  1
  O  O19  1  0.641614  0.358386  0.250000  1
  O  O20  1  0.644644  0.355355  0.750000  1
  O  O21  1  0.355356  0.644645  0.250000  1
