# generated using pymatgen
data_Pa6Al24CoOs7
_symmetry_space_group_name_H-M   'P 1'
_cell_length_a   8.86301600
_cell_length_b   8.86301686
_cell_length_c   9.38368000
_cell_angle_alpha   90.00000000
_cell_angle_beta   90.00000000
_cell_angle_gamma   119.99999680
_symmetry_Int_Tables_number   1
_chemical_formula_structural   Pa6Al24CoOs7
_chemical_formula_sum   'Pa6 Al24 Co1 Os7'
_cell_volume   638.36187768
_cell_formula_units_Z   1
loop_
 _symmetry_equiv_pos_site_id
 _symmetry_equiv_pos_as_xyz
  1  'x, y, z'
loop_
 _atom_site_type_symbol
 _atom_site_label
 _atom_site_symmetry_multiplicity
 _atom_site_fract_x
 _atom_site_fract_y
 _atom_site_fract_z
 _atom_site_occupancy
  Pa  Pa0  1  0.198161  0.396324  0.249505  1
  Pa  Pa1  1  0.801839  0.603676  0.750495  1
  Pa  Pa2  1  0.603676  0.801839  0.249505  1
  Pa  Pa3  1  0.396324  0.198161  0.750495  1
  Pa  Pa4  1  0.198161  0.801839  0.249505  1
  Pa  Pa5  1  0.801839  0.198161  0.750495  1
  Al  Al6  1  0.333333  0.666667  0.016203  1
  Al  Al7  1  0.666667  0.333333  0.983797  1
  Al  Al8  1  0.666667  0.333333  0.517364  1
  Al  Al9  1  0.333333  0.666667  0.482636  1
  Al  Al10  1  0.161254  0.322509  0.578583  1
  Al  Al11  1  0.838746  0.677491  0.421417  1
  Al  Al12  1  0.677491  0.838746  0.578583  1
  Al  Al13  1  0.840301  0.680605  0.078914  1
  Al  Al14  1  0.322509  0.161254  0.421417  1
  Al  Al15  1  0.159699  0.319395  0.921086  1
  Al  Al16  1  0.161254  0.838746  0.578583  1
  Al  Al17  1  0.319395  0.159699  0.078914  1
  Al  Al18  1  0.838746  0.161254  0.421417  1
  Al  Al19  1  0.680605  0.840301  0.921086  1
  Al  Al20  1  0.840301  0.159699  0.078914  1
  Al  Al21  1  0.159699  0.840301  0.921086  1
  Al  Al22  1  0.563061  0.126121  0.250013  1
  Al  Al23  1  0.436939  0.873879  0.749987  1
  Al  Al24  1  0.873879  0.436939  0.250013  1
  Al  Al25  1  0.126121  0.563061  0.749987  1
  Al  Al26  1  0.563061  0.436939  0.250013  1
  Al  Al27  1  0.436939  0.563061  0.749987  1
  Al  Al28  1  0.000000  0.000000  0.242314  1
  Al  Al29  1  0.000000  0.000000  0.757686  1
  Co  Co30  1  0.000000  0.000000  0.000000  1
  Os  Os31  1  0.500000  0.000000  0.000000  1
  Os  Os32  1  0.000000  0.500000  0.000000  1
  Os  Os33  1  0.500000  0.000000  0.500000  1
  Os  Os34  1  0.500000  0.500000  0.000000  1
  Os  Os35  1  0.000000  0.500000  0.500000  1
  Os  Os36  1  0.500000  0.500000  0.500000  1
  Os  Os37  1  0.000000  0.000000  0.500000  1
