# generated using pymatgen
data_Sr3Li11Ag
_symmetry_space_group_name_H-M   'P 1'
_cell_length_a   10.40060500
_cell_length_b   10.40060822
_cell_length_c   8.55249800
_cell_angle_alpha   90.00000000
_cell_angle_beta   90.00000000
_cell_angle_gamma   119.99999929
_symmetry_Int_Tables_number   1
_chemical_formula_structural   Sr3Li11Ag
_chemical_formula_sum   'Sr6 Li22 Ag2'
_cell_volume   801.20002890
_cell_formula_units_Z   2
loop_
 _symmetry_equiv_pos_site_id
 _symmetry_equiv_pos_as_xyz
  1  'x, y, z'
loop_
 _atom_site_type_symbol
 _atom_site_label
 _atom_site_symmetry_multiplicity
 _atom_site_fract_x
 _atom_site_fract_y
 _atom_site_fract_z
 _atom_site_occupancy
  Sr  Sr0  1  0.526308  0.052616  0.250000  1
  Sr  Sr1  1  0.473692  0.947384  0.750000  1
  Sr  Sr2  1  0.947384  0.473692  0.250000  1
  Sr  Sr3  1  0.052616  0.526308  0.750000  1
  Sr  Sr4  1  0.526308  0.473692  0.250000  1
  Sr  Sr5  1  0.473692  0.526308  0.750000  1
  Li  Li6  1  0.161118  0.322235  0.060536  1
  Li  Li7  1  0.838882  0.677765  0.939464  1
  Li  Li8  1  0.677765  0.838882  0.060536  1
  Li  Li9  1  0.838882  0.677765  0.560536  1
  Li  Li10  1  0.322235  0.161118  0.939464  1
  Li  Li11  1  0.161118  0.322235  0.439464  1
  Li  Li12  1  0.161118  0.838882  0.060536  1
  Li  Li13  1  0.322235  0.161118  0.560536  1
  Li  Li14  1  0.838882  0.161118  0.939464  1
  Li  Li15  1  0.677765  0.838882  0.439464  1
  Li  Li16  1  0.838882  0.161118  0.560536  1
  Li  Li17  1  0.161118  0.838882  0.439464  1
  Li  Li18  1  0.903199  0.806398  0.250000  1
  Li  Li19  1  0.096801  0.193602  0.750000  1
  Li  Li20  1  0.193602  0.096801  0.250000  1
  Li  Li21  1  0.806398  0.903199  0.750000  1
  Li  Li22  1  0.903199  0.096801  0.250000  1
  Li  Li23  1  0.096801  0.903199  0.750000  1
  Li  Li24  1  0.333333  0.666667  0.081007  1
  Li  Li25  1  0.666667  0.333333  0.918993  1
  Li  Li26  1  0.666667  0.333333  0.581007  1
  Li  Li27  1  0.333333  0.666667  0.418993  1
  Ag  Ag28  1  0.000000  0.000000  0.000000  1
  Ag  Ag29  1  0.000000  0.000000  0.500000  1
