# generated using pymatgen
data_Th5Sn2BiP
_symmetry_space_group_name_H-M   'P 1'
_cell_length_a   9.50350608
_cell_length_b   9.52747032
_cell_length_c   6.66655600
_cell_angle_alpha   90.00000000
_cell_angle_beta   90.00000000
_cell_angle_gamma   120.08344414
_symmetry_Int_Tables_number   1
_chemical_formula_structural   Th5Sn2BiP
_chemical_formula_sum   'Th10 Sn4 Bi2 P2'
_cell_volume   522.30939620
_cell_formula_units_Z   2
loop_
 _symmetry_equiv_pos_site_id
 _symmetry_equiv_pos_as_xyz
  1  'x, y, z'
loop_
 _atom_site_type_symbol
 _atom_site_label
 _atom_site_symmetry_multiplicity
 _atom_site_fract_x
 _atom_site_fract_y
 _atom_site_fract_z
 _atom_site_occupancy
  Th  Th0  1  0.669182  0.335195  0.003941  1
  Th  Th1  1  0.330818  0.666014  0.003941  1
  Th  Th2  1  0.330818  0.666014  0.496059  1
  Th  Th3  1  0.669182  0.335195  0.496059  1
  Th  Th4  1  0.753436  0.750229  0.750000  1
  Th  Th5  1  0.246564  0.996793  0.750000  1
  Th  Th6  1  0.000000  0.251506  0.750000  1
  Th  Th7  1  0.248270  0.248330  0.250000  1
  Th  Th8  1  0.751730  0.000060  0.250000  1
  Th  Th9  1  0.000000  0.750015  0.250000  1
  Sn  Sn10  1  0.000000  0.605688  0.750000  1
  Sn  Sn11  1  0.607257  0.606898  0.250000  1
  Sn  Sn12  1  0.392743  0.999641  0.250000  1
  Sn  Sn13  1  0.000000  0.393587  0.250000  1
  Bi  Bi14  1  0.394343  0.394087  0.750000  1
  Bi  Bi15  1  0.605657  0.999743  0.750000  1
  P  P16  1  0.000000  0.000503  0.999754  1
  P  P17  1  0.000000  0.000503  0.500246  1
