# generated using pymatgen
data_TiZn5(GaRh2)6
_symmetry_space_group_name_H-M   'P 1'
_cell_length_a   4.28559500
_cell_length_b   6.08311800
_cell_length_c   12.87847400
_cell_angle_alpha   90.00000000
_cell_angle_beta   90.00016030
_cell_angle_gamma   90.00000000
_symmetry_Int_Tables_number   1
_chemical_formula_structural   TiZn5(GaRh2)6
_chemical_formula_sum   'Ti1 Zn5 Ga6 Rh12'
_cell_volume   335.73898501
_cell_formula_units_Z   1
loop_
 _symmetry_equiv_pos_site_id
 _symmetry_equiv_pos_as_xyz
  1  'x, y, z'
loop_
 _atom_site_type_symbol
 _atom_site_label
 _atom_site_symmetry_multiplicity
 _atom_site_fract_x
 _atom_site_fract_y
 _atom_site_fract_z
 _atom_site_occupancy
  Ti  Ti0  1  0.000000  0.500000  0.000000  1
  Zn  Zn1  1  0.499771  0.000000  0.167984  1
  Zn  Zn2  1  0.999766  0.500000  0.334142  1
  Zn  Zn3  1  0.500000  0.000000  0.500000  1
  Zn  Zn4  1  0.000234  0.500000  0.665858  1
  Zn  Zn5  1  0.500229  0.000000  0.832016  1
  Ga  Ga6  1  0.000000  0.000000  0.000000  1
  Ga  Ga7  1  0.499793  0.500000  0.167868  1
  Ga  Ga8  1  0.999769  0.000000  0.336760  1
  Ga  Ga9  1  0.500000  0.500000  0.500000  1
  Ga  Ga10  1  0.000231  0.000000  0.663241  1
  Ga  Ga11  1  0.500207  0.500000  0.832133  1
  Rh  Rh12  1  0.500000  0.250548  0.000000  1
  Rh  Rh13  1  0.500000  0.749451  0.000000  1
  Rh  Rh14  1  0.999791  0.250494  0.164907  1
  Rh  Rh15  1  0.999791  0.749505  0.164907  1
  Rh  Rh16  1  0.499785  0.250184  0.332220  1
  Rh  Rh17  1  0.499785  0.749817  0.332220  1
  Rh  Rh18  1  0.000000  0.251160  0.500000  1
  Rh  Rh19  1  0.000000  0.748841  0.500000  1
  Rh  Rh20  1  0.500215  0.250184  0.667780  1
  Rh  Rh21  1  0.500215  0.749817  0.667780  1
  Rh  Rh22  1  0.000208  0.250494  0.835093  1
  Rh  Rh23  1  0.000208  0.749505  0.835093  1
