# generated using pymatgen
data_Pr3SmMn2Zn2O12
_symmetry_space_group_name_H-M   'P 1'
_cell_length_a   5.47390706
_cell_length_b   5.67163498
_cell_length_c   7.79810478
_cell_angle_alpha   89.95500300
_cell_angle_beta   89.99630955
_cell_angle_gamma   89.89403776
_symmetry_Int_Tables_number   1
_chemical_formula_structural   Pr3SmMn2Zn2O12
_chemical_formula_sum   'Pr3 Sm1 Mn2 Zn2 O12'
_cell_volume   242.09949321
_cell_formula_units_Z   1
loop_
 _symmetry_equiv_pos_site_id
 _symmetry_equiv_pos_as_xyz
  1  'x, y, z'
loop_
 _atom_site_type_symbol
 _atom_site_label
 _atom_site_symmetry_multiplicity
 _atom_site_fract_x
 _atom_site_fract_y
 _atom_site_fract_z
 _atom_site_occupancy
  Pr  Pr0  1  0.986863  0.056155  0.249109  1
  Pr  Pr1  1  0.486924  0.445481  0.749966  1
  Pr  Pr2  1  0.013525  0.943276  0.750613  1
  Sm  Sm3  1  0.514957  0.560906  0.251273  1
  Mn  Mn4  1  0.001224  0.500166  0.498232  1
  Mn  Mn5  1  0.498807  0.999914  0.001512  1
  Zn  Zn6  1  0.500279  0.002015  0.499001  1
  Zn  Zn7  1  0.999755  0.499793  0.001899  1
  O  O8  1  0.098165  0.476066  0.260040  1
  O  O9  1  0.586311  0.024833  0.760424  1
  O  O10  1  0.914475  0.522370  0.739311  1
  O  O11  1  0.413618  0.968987  0.240294  1
  O  O12  1  0.284492  0.694522  0.542895  1
  O  O13  1  0.782128  0.803316  0.045504  1
  O  O14  1  0.714081  0.309031  0.450604  1
  O  O15  1  0.213307  0.193142  0.956904  1
  O  O16  1  0.191611  0.215915  0.547373  1
  O  O17  1  0.687683  0.286567  0.052272  1
  O  O18  1  0.804830  0.780192  0.449543  1
  O  O19  1  0.306967  0.717354  0.953228  1
