# generated using pymatgen
data_ThV3(SeO3)8
_symmetry_space_group_name_H-M   'P 1'
_cell_length_a   8.22531077
_cell_length_b   8.22531085
_cell_length_c   8.22531100
_cell_angle_alpha   89.30118866
_cell_angle_beta   90.69881135
_cell_angle_gamma   90.69881227
_symmetry_Int_Tables_number   1
_chemical_formula_structural   ThV3(SeO3)8
_chemical_formula_sum   'Th1 V3 Se8 O24'
_cell_volume   556.36631603
_cell_formula_units_Z   1
loop_
 _symmetry_equiv_pos_site_id
 _symmetry_equiv_pos_as_xyz
  1  'x, y, z'
loop_
 _atom_site_type_symbol
 _atom_site_label
 _atom_site_symmetry_multiplicity
 _atom_site_fract_x
 _atom_site_fract_y
 _atom_site_fract_z
 _atom_site_occupancy
  Th  Th0  1  0.000000  0.000000  0.500000  1
  V  V1  1  0.500000  0.500000  0.500000  1
  V  V2  1  0.500000  0.000000  0.000000  1
  V  V3  1  0.000000  0.500000  0.000000  1
  Se  Se4  1  0.812350  0.621044  0.305346  1
  Se  Se5  1  0.194654  0.187650  0.121044  1
  Se  Se6  1  0.675252  0.324748  0.824748  1
  Se  Se7  1  0.378956  0.805346  0.687650  1
  Se  Se8  1  0.187650  0.378956  0.694654  1
  Se  Se9  1  0.805346  0.812350  0.878956  1
  Se  Se10  1  0.324748  0.675252  0.175252  1
  Se  Se11  1  0.621044  0.194654  0.312350  1
  O  O12  1  0.732490  0.490598  0.454546  1
  O  O13  1  0.271144  0.047508  0.983302  1
  O  O14  1  0.766513  0.463908  0.953840  1
  O  O15  1  0.259431  0.922136  0.563634  1
  O  O16  1  0.516698  0.728856  0.547508  1
  O  O17  1  0.045454  0.267510  0.990598  1
  O  O18  1  0.936366  0.740569  0.422136  1
  O  O19  1  0.546160  0.233487  0.963908  1
  O  O20  1  0.536092  0.453840  0.733487  1
  O  O21  1  0.077864  0.063634  0.240569  1
  O  O22  1  0.509402  0.954546  0.767510  1
  O  O23  1  0.952492  0.483302  0.228856  1
  O  O24  1  0.267510  0.509402  0.545454  1
  O  O25  1  0.728856  0.952492  0.016698  1
  O  O26  1  0.233487  0.536092  0.046160  1
  O  O27  1  0.740569  0.077864  0.436366  1
  O  O28  1  0.483302  0.271144  0.452492  1
  O  O29  1  0.954546  0.732490  0.009402  1
  O  O30  1  0.063634  0.259431  0.577864  1
  O  O31  1  0.453840  0.766513  0.036092  1
  O  O32  1  0.463908  0.546160  0.266513  1
  O  O33  1  0.922136  0.936366  0.759431  1
  O  O34  1  0.490598  0.045454  0.232490  1
  O  O35  1  0.047508  0.516698  0.771144  1
