# generated using pymatgen
data_Li4La3PrSn4
_symmetry_space_group_name_H-M   'P 1'
_cell_length_a   7.87611606
_cell_length_b   4.83886500
_cell_length_c   8.34150906
_cell_angle_alpha   90.00000000
_cell_angle_beta   90.01384793
_cell_angle_gamma   90.00000000
_symmetry_Int_Tables_number   1
_chemical_formula_structural   Li4La3PrSn4
_chemical_formula_sum   'Li4 La3 Pr1 Sn4'
_cell_volume   317.90709904
_cell_formula_units_Z   1
loop_
 _symmetry_equiv_pos_site_id
 _symmetry_equiv_pos_as_xyz
  1  'x, y, z'
loop_
 _atom_site_type_symbol
 _atom_site_label
 _atom_site_symmetry_multiplicity
 _atom_site_fract_x
 _atom_site_fract_y
 _atom_site_fract_z
 _atom_site_occupancy
  Li  Li0  1  0.818091  0.749999  0.079101  1
  Li  Li1  1  0.318785  0.749999  0.421007  1
  Li  Li2  1  0.681270  0.249999  0.579683  1
  Li  Li3  1  0.181799  0.249999  0.920510  1
  La  La4  1  0.500963  0.249999  0.220853  1
  La  La5  1  0.001002  0.249999  0.278577  1
  La  La6  1  0.998958  0.749999  0.721338  1
  Pr  Pr7  1  0.498682  0.749999  0.778425  1
  Sn  Sn8  1  0.226369  0.749999  0.088217  1
  Sn  Sn9  1  0.725671  0.749999  0.411646  1
  Sn  Sn10  1  0.275308  0.249999  0.590518  1
  Sn  Sn11  1  0.773107  0.249999  0.910126  1
