# generated using pymatgen
data_Sc4CdNi
_symmetry_space_group_name_H-M   'P 1'
_cell_length_a   8.95972881
_cell_length_b   8.95972868
_cell_length_c   8.95972800
_cell_angle_alpha   60.00000251
_cell_angle_beta   60.00000301
_cell_angle_gamma   60.00000151
_symmetry_Int_Tables_number   1
_chemical_formula_structural   Sc4CdNi
_chemical_formula_sum   'Sc16 Cd4 Ni4'
_cell_volume   508.59205819
_cell_formula_units_Z   4
loop_
 _symmetry_equiv_pos_site_id
 _symmetry_equiv_pos_as_xyz
  1  'x, y, z'
loop_
 _atom_site_type_symbol
 _atom_site_label
 _atom_site_symmetry_multiplicity
 _atom_site_fract_x
 _atom_site_fract_y
 _atom_site_fract_z
 _atom_site_occupancy
  Sc  Sc0  1  0.348520  0.348520  0.348520  1
  Sc  Sc1  1  0.348520  0.348520  0.954439  1
  Sc  Sc2  1  0.348520  0.954439  0.348520  1
  Sc  Sc3  1  0.954439  0.348520  0.348520  1
  Sc  Sc4  1  0.812039  0.187961  0.187961  1
  Sc  Sc5  1  0.187961  0.812039  0.812039  1
  Sc  Sc6  1  0.187961  0.812039  0.187961  1
  Sc  Sc7  1  0.812039  0.187961  0.812039  1
  Sc  Sc8  1  0.187961  0.187961  0.812039  1
  Sc  Sc9  1  0.812039  0.812039  0.187961  1
  Sc  Sc10  1  0.936592  0.563408  0.563408  1
  Sc  Sc11  1  0.563408  0.936592  0.936592  1
  Sc  Sc12  1  0.563408  0.936592  0.563408  1
  Sc  Sc13  1  0.936592  0.563408  0.936592  1
  Sc  Sc14  1  0.563408  0.563408  0.936592  1
  Sc  Sc15  1  0.936592  0.936592  0.563408  1
  Cd  Cd16  1  0.583308  0.583308  0.583308  1
  Cd  Cd17  1  0.583308  0.583308  0.250074  1
  Cd  Cd18  1  0.583308  0.250074  0.583308  1
  Cd  Cd19  1  0.250074  0.583308  0.583308  1
  Ni  Ni20  1  0.142224  0.142224  0.142224  1
  Ni  Ni21  1  0.142224  0.142224  0.573329  1
  Ni  Ni22  1  0.142224  0.573329  0.142224  1
  Ni  Ni23  1  0.573329  0.142224  0.142224  1
