# generated using pymatgen
data_Li4Dy4NiPt3
_symmetry_space_group_name_H-M   'P 1'
_cell_length_a   3.94327100
_cell_length_b   7.02600326
_cell_length_c   8.44718493
_cell_angle_alpha   89.84679823
_cell_angle_beta   90.00000000
_cell_angle_gamma   90.00000000
_symmetry_Int_Tables_number   1
_chemical_formula_structural   Li4Dy4NiPt3
_chemical_formula_sum   'Li4 Dy4 Ni1 Pt3'
_cell_volume   234.03209561
_cell_formula_units_Z   1
loop_
 _symmetry_equiv_pos_site_id
 _symmetry_equiv_pos_as_xyz
  1  'x, y, z'
loop_
 _atom_site_type_symbol
 _atom_site_label
 _atom_site_symmetry_multiplicity
 _atom_site_fract_x
 _atom_site_fract_y
 _atom_site_fract_z
 _atom_site_occupancy
  Li  Li0  1  0.250000  0.877704  0.944549  1
  Li  Li1  1  0.750000  0.122051  0.056472  1
  Li  Li2  1  0.750000  0.624715  0.445210  1
  Li  Li3  1  0.250000  0.376540  0.556187  1
  Dy  Dy4  1  0.250000  0.449206  0.177495  1
  Dy  Dy5  1  0.750000  0.553152  0.817102  1
  Dy  Dy6  1  0.750000  0.043682  0.679124  1
  Dy  Dy7  1  0.250000  0.947568  0.324838  1
  Ni  Ni8  1  0.250000  0.758791  0.628724  1
  Pt  Pt9  1  0.750000  0.245671  0.373967  1
  Pt  Pt10  1  0.750000  0.745080  0.126690  1
  Pt  Pt11  1  0.250000  0.255838  0.869647  1
