# generated using pymatgen
data_Ho2Al4Si2Ni
_symmetry_space_group_name_H-M   'P 1'
_cell_length_a   4.09965756
_cell_length_b   4.09963488
_cell_length_c   10.00853925
_cell_angle_alpha   101.83983317
_cell_angle_beta   101.84038392
_cell_angle_gamma   90.03083377
_symmetry_Int_Tables_number   1
_chemical_formula_structural   Ho2Al4Si2Ni
_chemical_formula_sum   'Ho2 Al4 Si2 Ni1'
_cell_volume   160.97308919
_cell_formula_units_Z   1
loop_
 _symmetry_equiv_pos_site_id
 _symmetry_equiv_pos_as_xyz
  1  'x, y, z'
loop_
 _atom_site_type_symbol
 _atom_site_label
 _atom_site_symmetry_multiplicity
 _atom_site_fract_x
 _atom_site_fract_y
 _atom_site_fract_z
 _atom_site_occupancy
  Ho  Ho0  1  0.187666  0.187677  0.374839  1
  Ho  Ho1  1  0.812335  0.812324  0.625162  1
  Al  Al2  1  0.568575  0.068675  0.137304  1
  Al  Al3  1  0.068676  0.568576  0.137304  1
  Al  Al4  1  0.931326  0.431424  0.862696  1
  Al  Al5  1  0.431423  0.931326  0.862695  1
  Si  Si6  1  0.661143  0.661144  0.322527  1
  Si  Si7  1  0.338859  0.338856  0.677473  1
  Ni  Ni8  1  0.000003  0.000002  0.000000  1
