# generated using pymatgen
data_PrNdDy2(TeO6)2
_symmetry_space_group_name_H-M   'P 1'
_cell_length_a   5.44248800
_cell_length_b   9.31101780
_cell_length_c   10.16501825
_cell_angle_alpha   89.88364017
_cell_angle_beta   90.00000000
_cell_angle_gamma   90.00000000
_symmetry_Int_Tables_number   1
_chemical_formula_structural   PrNdDy2(TeO6)2
_chemical_formula_sum   'Pr2 Nd2 Dy4 Te4 O24'
_cell_volume   515.11228047
_cell_formula_units_Z   2
loop_
 _symmetry_equiv_pos_site_id
 _symmetry_equiv_pos_as_xyz
  1  'x, y, z'
loop_
 _atom_site_type_symbol
 _atom_site_label
 _atom_site_symmetry_multiplicity
 _atom_site_fract_x
 _atom_site_fract_y
 _atom_site_fract_z
 _atom_site_occupancy
  Pr  Pr0  1  0.032681  0.219282  0.860001  1
  Pr  Pr1  1  0.532681  0.280718  0.139999  1
  Nd  Nd2  1  0.965684  0.719221  0.638776  1
  Nd  Nd3  1  0.465684  0.780779  0.361224  1
  Dy  Dy4  1  0.021803  0.103672  0.457995  1
  Dy  Dy5  1  0.521803  0.396328  0.542005  1
  Dy  Dy6  1  0.978186  0.604223  0.042175  1
  Dy  Dy7  1  0.478186  0.895777  0.957825  1
  Te  Te8  1  0.537415  0.008108  0.643454  1
  Te  Te9  1  0.037415  0.491892  0.356546  1
  Te  Te10  1  0.462434  0.509836  0.855578  1
  Te  Te11  1  0.962434  0.990164  0.144422  1
  O  O12  1  0.252520  0.423485  0.994446  1
  O  O13  1  0.752520  0.076515  0.005554  1
  O  O14  1  0.746395  0.921550  0.504406  1
  O  O15  1  0.246395  0.578450  0.495594  1
  O  O16  1  0.224072  0.108107  0.064198  1
  O  O17  1  0.724072  0.391893  0.935802  1
  O  O18  1  0.774814  0.609653  0.435989  1
  O  O19  1  0.274814  0.890347  0.564011  1
  O  O20  1  0.310530  0.357826  0.330823  1
  O  O21  1  0.810530  0.142174  0.669177  1
  O  O22  1  0.688917  0.856469  0.171630  1
  O  O23  1  0.188917  0.643531  0.828370  1
  O  O24  1  0.165039  0.948876  0.295639  1
  O  O25  1  0.665039  0.551124  0.704361  1
  O  O26  1  0.837365  0.450296  0.204910  1
  O  O27  1  0.337365  0.049704  0.795090  1
  O  O28  1  0.179122  0.635416  0.241041  1
  O  O29  1  0.679122  0.864584  0.758959  1
  O  O30  1  0.823816  0.134321  0.259700  1
  O  O31  1  0.323816  0.365679  0.740300  1
  O  O32  1  0.097132  0.840270  0.031638  1
  O  O33  1  0.597132  0.659730  0.968362  1
  O  O34  1  0.902076  0.340958  0.468510  1
  O  O35  1  0.402076  0.159042  0.531490  1
