# generated using pymatgen
data_Dy5Er(Si3Pt2)4
_symmetry_space_group_name_H-M   'P 1'
_cell_length_a   4.23672800
_cell_length_b   8.54136780
_cell_length_c   12.90644600
_cell_angle_alpha   80.24909747
_cell_angle_beta   90.00000000
_cell_angle_gamma   90.00000000
_symmetry_Int_Tables_number   1
_chemical_formula_structural   Dy5Er(Si3Pt2)4
_chemical_formula_sum   'Dy5 Er1 Si12 Pt8'
_cell_volume   460.30408776
_cell_formula_units_Z   1
loop_
 _symmetry_equiv_pos_site_id
 _symmetry_equiv_pos_as_xyz
  1  'x, y, z'
loop_
 _atom_site_type_symbol
 _atom_site_label
 _atom_site_symmetry_multiplicity
 _atom_site_fract_x
 _atom_site_fract_y
 _atom_site_fract_z
 _atom_site_occupancy
  Dy  Dy0  1  0.250000  0.583329  0.186399  1
  Dy  Dy1  1  0.750000  0.233790  0.560444  1
  Dy  Dy2  1  0.750000  0.416724  0.813579  1
  Dy  Dy3  1  0.750000  0.926012  0.815801  1
  Dy  Dy4  1  0.250000  0.073923  0.184195  1
  Er  Er5  1  0.250000  0.766291  0.439461  1
  Si  Si6  1  0.750000  0.589022  0.571430  1
  Si  Si7  1  0.750000  0.127016  0.004542  1
  Si  Si8  1  0.750000  0.872531  0.573635  1
  Si  Si9  1  0.250000  0.696379  0.713732  1
  Si  Si10  1  0.750000  0.303604  0.286356  1
  Si  Si11  1  0.750000  0.805726  0.277163  1
  Si  Si12  1  0.250000  0.872939  0.995482  1
  Si  Si13  1  0.250000  0.194202  0.723087  1
  Si  Si14  1  0.250000  0.378530  0.001512  1
  Si  Si15  1  0.250000  0.127015  0.426165  1
  Si  Si16  1  0.750000  0.621487  0.998484  1
  Si  Si17  1  0.250000  0.411537  0.428340  1
  Pt  Pt18  1  0.750000  0.351975  0.099052  1
  Pt  Pt19  1  0.250000  0.970717  0.623960  1
  Pt  Pt20  1  0.750000  0.849365  0.088925  1
  Pt  Pt21  1  0.750000  0.028244  0.376003  1
  Pt  Pt22  1  0.250000  0.648025  0.901055  1
  Pt  Pt23  1  0.250000  0.150557  0.911229  1
  Pt  Pt24  1  0.750000  0.533719  0.376434  1
  Pt  Pt25  1  0.250000  0.467344  0.623538  1
