# generated using pymatgen
data_Na5HoCo4(P6Ir7)2
_symmetry_space_group_name_H-M   'P 1'
_cell_length_a   3.88127600
_cell_length_b   11.05710478
_cell_length_c   12.51234952
_cell_angle_alpha   89.83212835
_cell_angle_beta   90.00000000
_cell_angle_gamma   90.00000000
_symmetry_Int_Tables_number   1
_chemical_formula_structural   Na5HoCo4(P6Ir7)2
_chemical_formula_sum   'Na5 Ho1 Co4 P12 Ir14'
_cell_volume   536.97362595
_cell_formula_units_Z   1
loop_
 _symmetry_equiv_pos_site_id
 _symmetry_equiv_pos_as_xyz
  1  'x, y, z'
loop_
 _atom_site_type_symbol
 _atom_site_label
 _atom_site_symmetry_multiplicity
 _atom_site_fract_x
 _atom_site_fract_y
 _atom_site_fract_z
 _atom_site_occupancy
  Na  Na0  1  0.000000  0.500528  0.528123  1
  Na  Na1  1  0.500000  0.999577  0.473114  1
  Na  Na2  1  0.500000  0.824993  0.201042  1
  Na  Na3  1  0.000000  0.676807  0.798686  1
  Na  Na4  1  0.000000  0.325097  0.798505  1
  Ho  Ho5  1  0.500000  0.169756  0.201696  1
  Co  Co6  1  0.000000  0.500140  0.994202  1
  Co  Co7  1  0.500000  0.000349  0.008031  1
  Co  Co8  1  0.000000  0.161045  0.007708  1
  Co  Co9  1  0.000000  0.836964  0.004121  1
  P  P10  1  0.500000  0.314146  0.622552  1
  P  P11  1  0.500000  0.689250  0.623118  1
  P  P12  1  0.000000  0.187191  0.382208  1
  P  P13  1  0.000000  0.811464  0.378049  1
  P  P14  1  0.500000  0.502026  0.883288  1
  P  P15  1  0.000000  0.996349  0.109283  1
  P  P16  1  0.500000  0.847359  0.897997  1
  P  P17  1  0.500000  0.150578  0.895903  1
  P  P18  1  0.000000  0.660578  0.103161  1
  P  P19  1  0.000000  0.338422  0.098942  1
  P  P20  1  0.500000  0.502723  0.348751  1
  P  P21  1  0.000000  0.000832  0.654762  1
  Ir  Ir22  1  0.500000  0.299483  0.429662  1
  Ir  Ir23  1  0.500000  0.704796  0.430865  1
  Ir  Ir24  1  0.000000  0.203313  0.570625  1
  Ir  Ir25  1  0.000000  0.799264  0.570820  1
  Ir  Ir26  1  0.500000  0.875944  0.715444  1
  Ir  Ir27  1  0.500000  0.126592  0.713396  1
  Ir  Ir28  1  0.000000  0.623092  0.285330  1
  Ir  Ir29  1  0.000000  0.367561  0.280378  1
  Ir  Ir30  1  0.500000  0.328559  0.991918  1
  Ir  Ir31  1  0.500000  0.669979  0.995870  1
  Ir  Ir32  1  0.500000  0.496416  0.163417  1
  Ir  Ir33  1  0.000000  0.003418  0.842119  1
  Ir  Ir34  1  0.500000  0.501678  0.702847  1
  Ir  Ir35  1  0.000000  0.003730  0.294071  1
