# generated using pymatgen
data_Rb6As3IrBr18
_symmetry_space_group_name_H-M   'P 1'
_cell_length_a   7.64906300
_cell_length_b   7.64906336
_cell_length_c   19.62167000
_cell_angle_alpha   90.00000000
_cell_angle_beta   90.00000000
_cell_angle_gamma   120.00000277
_symmetry_Int_Tables_number   1
_chemical_formula_structural   Rb6As3IrBr18
_chemical_formula_sum   'Rb6 As3 Ir1 Br18'
_cell_volume   994.22134606
_cell_formula_units_Z   1
loop_
 _symmetry_equiv_pos_site_id
 _symmetry_equiv_pos_as_xyz
  1  'x, y, z'
loop_
 _atom_site_type_symbol
 _atom_site_label
 _atom_site_symmetry_multiplicity
 _atom_site_fract_x
 _atom_site_fract_y
 _atom_site_fract_z
 _atom_site_occupancy
  Rb  Rb0  1  0.333333  0.666667  0.082649  1
  Rb  Rb1  1  0.666667  0.333333  0.936559  1
  Rb  Rb2  1  0.666667  0.333333  0.577450  1
  Rb  Rb3  1  0.333333  0.666667  0.439073  1
  Rb  Rb4  1  0.000000  0.000000  0.249529  1
  Rb  Rb5  1  0.000000  0.000000  0.730580  1
  As  As6  1  0.666667  0.333333  0.344000  1
  As  As7  1  0.666667  0.333333  0.157908  1
  As  As8  1  0.333333  0.666667  0.844251  1
  Ir  Ir9  1  0.333333  0.666667  0.664712  1
  Br  Br10  1  0.178960  0.357921  0.591278  1
  Br  Br11  1  0.827696  0.655391  0.413200  1
  Br  Br12  1  0.642079  0.821040  0.591278  1
  Br  Br13  1  0.828576  0.657152  0.085705  1
  Br  Br14  1  0.344609  0.172304  0.413200  1
  Br  Br15  1  0.172279  0.344559  0.912449  1
  Br  Br16  1  0.178960  0.821040  0.591278  1
  Br  Br17  1  0.342848  0.171424  0.085705  1
  Br  Br18  1  0.827696  0.172304  0.413200  1
  Br  Br19  1  0.655441  0.827721  0.912449  1
  Br  Br20  1  0.828576  0.171424  0.085705  1
  Br  Br21  1  0.172279  0.827721  0.912449  1
  Br  Br22  1  0.501788  0.003578  0.247690  1
  Br  Br23  1  0.488896  0.977790  0.740775  1
  Br  Br24  1  0.996422  0.498212  0.247690  1
  Br  Br25  1  0.022210  0.511104  0.740775  1
  Br  Br26  1  0.501788  0.498212  0.247690  1
  Br  Br27  1  0.488896  0.511104  0.740775  1
