# generated using pymatgen
data_Zr3BiC2
_symmetry_space_group_name_H-M   'P 1'
_cell_length_a   3.43131200
_cell_length_b   3.43131255
_cell_length_c   20.12491100
_cell_angle_alpha   90.00000000
_cell_angle_beta   90.00000000
_cell_angle_gamma   119.99999466
_symmetry_Int_Tables_number   1
_chemical_formula_structural   Zr3BiC2
_chemical_formula_sum   'Zr6 Bi2 C4'
_cell_volume   205.20366436
_cell_formula_units_Z   2
loop_
 _symmetry_equiv_pos_site_id
 _symmetry_equiv_pos_as_xyz
  1  'x, y, z'
loop_
 _atom_site_type_symbol
 _atom_site_label
 _atom_site_symmetry_multiplicity
 _atom_site_fract_x
 _atom_site_fract_y
 _atom_site_fract_z
 _atom_site_occupancy
  Zr  Zr0  1  0.000000  0.000000  0.000000  1
  Zr  Zr1  1  0.666668  0.333335  0.125990  1
  Zr  Zr2  1  0.666668  0.333335  0.374010  1
  Zr  Zr3  1  0.000000  0.000000  0.500000  1
  Zr  Zr4  1  0.333333  0.666666  0.625990  1
  Zr  Zr5  1  0.333333  0.666666  0.874010  1
  Bi  Bi6  1  0.000000  0.000000  0.250000  1
  Bi  Bi7  1  0.000000  0.000000  0.750000  1
  C  C8  1  0.333333  0.666666  0.069257  1
  C  C9  1  0.333333  0.666666  0.430744  1
  C  C10  1  0.666668  0.333335  0.569257  1
  C  C11  1  0.666668  0.333335  0.930743  1
