# generated using pymatgen
data_Yb3Ho3(Si3Ru)8
_symmetry_space_group_name_H-M   'P 1'
_cell_length_a   10.14550847
_cell_length_b   10.14550907
_cell_length_c   8.12607004
_cell_angle_alpha   90.00479901
_cell_angle_beta   90.00480565
_cell_angle_gamma   132.79673316
_symmetry_Int_Tables_number   1
_chemical_formula_structural   Yb3Ho3(Si3Ru)8
_chemical_formula_sum   'Yb3 Ho3 Si24 Ru8'
_cell_volume   613.74411119
_cell_formula_units_Z   1
loop_
 _symmetry_equiv_pos_site_id
 _symmetry_equiv_pos_as_xyz
  1  'x, y, z'
loop_
 _atom_site_type_symbol
 _atom_site_label
 _atom_site_symmetry_multiplicity
 _atom_site_fract_x
 _atom_site_fract_y
 _atom_site_fract_z
 _atom_site_occupancy
  Yb  Yb0  1  0.499922  0.500078  0.500000  1
  Yb  Yb1  1  0.500895  0.000829  0.749744  1
  Yb  Yb2  1  0.999171  0.499105  0.250256  1
  Ho  Ho3  1  0.000099  0.999901  0.000000  1
  Ho  Ho4  1  0.498537  0.998563  0.250318  1
  Ho  Ho5  1  0.001437  0.501463  0.749682  1
  Si  Si6  1  0.794982  0.205018  0.500000  1
  Si  Si7  1  0.294476  0.705524  0.000000  1
  Si  Si8  1  0.205320  0.794680  0.500000  1
  Si  Si9  1  0.705256  0.294744  0.000000  1
  Si  Si10  1  0.332967  0.337632  0.830958  1
  Si  Si11  1  0.662368  0.667033  0.169042  1
  Si  Si12  1  0.169435  0.164861  0.333520  1
  Si  Si13  1  0.835139  0.830565  0.666480  1
  Si  Si14  1  0.122863  0.889073  0.728261  1
  Si  Si15  1  0.110927  0.877137  0.271739  1
  Si  Si16  1  0.609399  0.376466  0.229815  1
  Si  Si17  1  0.623534  0.390601  0.770185  1
  Si  Si18  1  0.875996  0.109638  0.271727  1
  Si  Si19  1  0.890362  0.124004  0.728273  1
  Si  Si20  1  0.389439  0.622688  0.770112  1
  Si  Si21  1  0.377312  0.610561  0.229888  1
  Si  Si22  1  0.346482  0.112931  0.505863  1
  Si  Si23  1  0.887069  0.653518  0.494137  1
  Si  Si24  1  0.388961  0.154835  0.006784  1
  Si  Si25  1  0.845165  0.611039  0.993216  1
  Si  Si26  1  0.653406  0.886635  0.492814  1
  Si  Si27  1  0.113365  0.346594  0.507186  1
  Si  Si28  1  0.610662  0.844987  0.994796  1
  Si  Si29  1  0.155013  0.389338  0.005204  1
  Ru  Ru30  1  0.670901  0.329099  0.500000  1
  Ru  Ru31  1  0.169487  0.830513  0.000000  1
  Ru  Ru32  1  0.329599  0.670401  0.500000  1
  Ru  Ru33  1  0.830034  0.169966  0.000000  1
  Ru  Ru34  1  0.125801  0.126707  0.626586  1
  Ru  Ru35  1  0.873293  0.874199  0.373414  1
  Ru  Ru36  1  0.371743  0.370815  0.124045  1
  Ru  Ru37  1  0.629185  0.628257  0.875955  1
