# generated using pymatgen
data_La6Zn3GaPt13
_symmetry_space_group_name_H-M   'P 1'
_cell_length_a   8.49037060
_cell_length_b   8.47185332
_cell_length_c   8.47185353
_cell_angle_alpha   109.42690329
_cell_angle_beta   109.51550860
_cell_angle_gamma   109.51549951
_symmetry_Int_Tables_number   1
_chemical_formula_structural   La6Zn3GaPt13
_chemical_formula_sum   'La6 Zn3 Ga1 Pt13'
_cell_volume   468.83925699
_cell_formula_units_Z   1
loop_
 _symmetry_equiv_pos_site_id
 _symmetry_equiv_pos_as_xyz
  1  'x, y, z'
loop_
 _atom_site_type_symbol
 _atom_site_label
 _atom_site_symmetry_multiplicity
 _atom_site_fract_x
 _atom_site_fract_y
 _atom_site_fract_z
 _atom_site_occupancy
  La  La0  1  0.697752  0.697043  0.000000  1
  La  La1  1  0.302248  0.000000  0.302957  1
  La  La2  1  0.000709  0.302957  0.302957  1
  La  La3  1  0.302248  0.302957  0.000000  1
  La  La4  1  0.697752  0.000000  0.697043  1
  La  La5  1  0.999291  0.697043  0.697043  1
  Zn  Zn6  1  0.000000  0.000000  0.500000  1
  Zn  Zn7  1  0.000000  0.500000  0.000000  1
  Zn  Zn8  1  0.500000  0.500000  0.500000  1
  Ga  Ga9  1  0.500000  0.000000  0.000000  1
  Pt  Pt10  1  0.327479  0.327479  0.654959  1
  Pt  Pt11  1  0.674555  0.000000  0.325467  1
  Pt  Pt12  1  0.000000  0.672521  0.327479  1
  Pt  Pt13  1  0.674555  0.325467  0.000000  1
  Pt  Pt14  1  0.327479  0.654959  0.327479  1
  Pt  Pt15  1  0.000000  0.327479  0.672521  1
  Pt  Pt16  1  0.325445  0.674533  0.000000  1
  Pt  Pt17  1  0.325445  0.000000  0.674533  1
  Pt  Pt18  1  0.650913  0.325467  0.325467  1
  Pt  Pt19  1  0.672521  0.672521  0.345041  1
  Pt  Pt20  1  0.672521  0.345041  0.672521  1
  Pt  Pt21  1  0.349087  0.674533  0.674533  1
  Pt  Pt22  1  0.000000  0.000000  0.000000  1
