# generated using pymatgen
data_Zr2Sc3SnRu6
_symmetry_space_group_name_H-M   'P 1'
_cell_length_a   4.56572500
_cell_length_b   6.48021100
_cell_length_c   13.74625900
_cell_angle_alpha   90.00000000
_cell_angle_beta   90.00000000
_cell_angle_gamma   90.00000000
_symmetry_Int_Tables_number   1
_chemical_formula_structural   Zr2Sc3SnRu6
_chemical_formula_sum   'Zr4 Sc6 Sn2 Ru12'
_cell_volume   406.70865936
_cell_formula_units_Z   2
loop_
 _symmetry_equiv_pos_site_id
 _symmetry_equiv_pos_as_xyz
  1  'x, y, z'
loop_
 _atom_site_type_symbol
 _atom_site_label
 _atom_site_symmetry_multiplicity
 _atom_site_fract_x
 _atom_site_fract_y
 _atom_site_fract_z
 _atom_site_occupancy
  Zr  Zr0  1  0.999998  0.000000  0.998999  1
  Zr  Zr1  1  0.499954  0.500001  0.165726  1
  Zr  Zr2  1  0.999957  0.000000  0.334247  1
  Zr  Zr3  1  0.500001  0.500001  0.501001  1
  Sc  Sc4  1  0.999996  0.500001  0.995554  1
  Sc  Sc5  1  0.499944  0.000000  0.167123  1
  Sc  Sc6  1  0.999952  0.500001  0.332919  1
  Sc  Sc7  1  0.499987  0.000000  0.504457  1
  Sc  Sc8  1  0.000047  0.500001  0.671088  1
  Sc  Sc9  1  0.500058  0.000000  0.828908  1
  Sn  Sn10  1  0.000045  0.000000  0.667447  1
  Sn  Sn11  1  0.500048  0.500001  0.832559  1
  Ru  Ru12  1  0.500003  0.249789  0.999341  1
  Ru  Ru13  1  0.500003  0.750212  0.999341  1
  Ru  Ru14  1  0.999944  0.250294  0.166120  1
  Ru  Ru15  1  0.999944  0.749705  0.166120  1
  Ru  Ru16  1  0.499950  0.249708  0.333862  1
  Ru  Ru17  1  0.499950  0.750292  0.333862  1
  Ru  Ru18  1  0.000001  0.250213  0.500654  1
  Ru  Ru19  1  0.000001  0.749788  0.500654  1
  Ru  Ru20  1  0.500045  0.253287  0.665397  1
  Ru  Ru21  1  0.500045  0.746713  0.665397  1
  Ru  Ru22  1  0.000065  0.246718  0.834613  1
  Ru  Ru23  1  0.000065  0.753281  0.834613  1
