# generated using pymatgen
data_ErSc(GaNi)2
_symmetry_space_group_name_H-M   'P 1'
_cell_length_a   4.22555400
_cell_length_b   6.61007700
_cell_length_c   7.21368700
_cell_angle_alpha   90.00000000
_cell_angle_beta   90.00000000
_cell_angle_gamma   90.00000000
_symmetry_Int_Tables_number   1
_chemical_formula_structural   ErSc(GaNi)2
_chemical_formula_sum   'Er2 Sc2 Ga4 Ni4'
_cell_volume   201.48720346
_cell_formula_units_Z   2
loop_
 _symmetry_equiv_pos_site_id
 _symmetry_equiv_pos_as_xyz
  1  'x, y, z'
loop_
 _atom_site_type_symbol
 _atom_site_label
 _atom_site_symmetry_multiplicity
 _atom_site_fract_x
 _atom_site_fract_y
 _atom_site_fract_z
 _atom_site_occupancy
  Er  Er0  1  0.250000  0.015710  0.811184  1
  Er  Er1  1  0.250000  0.515710  0.688816  1
  Sc  Sc2  1  0.750000  0.982006  0.199633  1
  Sc  Sc3  1  0.750000  0.482006  0.300367  1
  Ga  Ga4  1  0.250000  0.172515  0.418371  1
  Ga  Ga5  1  0.250000  0.672515  0.081629  1
  Ga  Ga6  1  0.750000  0.821495  0.569573  1
  Ga  Ga7  1  0.750000  0.321495  0.930427  1
  Ni  Ni8  1  0.250000  0.789673  0.398802  1
  Ni  Ni9  1  0.250000  0.289673  0.101198  1
  Ni  Ni10  1  0.750000  0.218602  0.589418  1
  Ni  Ni11  1  0.750000  0.718602  0.910582  1
