# generated using pymatgen
data_NaTe24
_symmetry_space_group_name_H-M   'P 1'
_cell_length_a   8.66882200
_cell_length_b   8.66882144
_cell_length_c   13.39674200
_cell_angle_alpha   90.00000000
_cell_angle_beta   90.00000000
_cell_angle_gamma   119.99999452
_symmetry_Int_Tables_number   1
_chemical_formula_structural   NaTe24
_chemical_formula_sum   'Na1 Te24'
_cell_volume   871.86650241
_cell_formula_units_Z   1
loop_
 _symmetry_equiv_pos_site_id
 _symmetry_equiv_pos_as_xyz
  1  'x, y, z'
loop_
 _atom_site_type_symbol
 _atom_site_label
 _atom_site_symmetry_multiplicity
 _atom_site_fract_x
 _atom_site_fract_y
 _atom_site_fract_z
 _atom_site_occupancy
  Na  Na0  1  0.000000  0.000000  0.000000  1
  Te  Te1  1  0.501742  0.498258  0.730041  1
  Te  Te2  1  0.498258  0.501742  0.269959  1
  Te  Te3  1  0.501742  0.003484  0.730041  1
  Te  Te4  1  0.498258  0.996516  0.269959  1
  Te  Te5  1  0.996516  0.498258  0.730041  1
  Te  Te6  1  0.003484  0.501742  0.269959  1
  Te  Te7  1  0.000000  0.000000  0.730714  1
  Te  Te8  1  0.000000  0.000000  0.269286  1
  Te  Te9  1  0.825915  0.651830  0.134353  1
  Te  Te10  1  0.833011  0.666023  0.596868  1
  Te  Te11  1  0.825915  0.174085  0.134353  1
  Te  Te12  1  0.833011  0.166989  0.596868  1
  Te  Te13  1  0.333333  0.666667  0.132462  1
  Te  Te14  1  0.333333  0.666667  0.593686  1
  Te  Te15  1  0.348170  0.174085  0.134353  1
  Te  Te16  1  0.333977  0.166989  0.596868  1
  Te  Te17  1  0.651830  0.825915  0.865647  1
  Te  Te18  1  0.666023  0.833011  0.403132  1
  Te  Te19  1  0.666667  0.333333  0.867538  1
  Te  Te20  1  0.666667  0.333333  0.406314  1
  Te  Te21  1  0.174085  0.825915  0.865647  1
  Te  Te22  1  0.166989  0.833011  0.403132  1
  Te  Te23  1  0.174085  0.348170  0.865647  1
  Te  Te24  1  0.166989  0.333977  0.403132  1
