# generated using pymatgen
data_Yb5Lu(Si3Ru)8
_symmetry_space_group_name_H-M   'P 1'
_cell_length_a   10.15430293
_cell_length_b   10.15430362
_cell_length_c   8.14427475
_cell_angle_alpha   90.01737877
_cell_angle_beta   90.01737932
_cell_angle_gamma   132.68137848
_symmetry_Int_Tables_number   1
_chemical_formula_structural   Yb5Lu(Si3Ru)8
_chemical_formula_sum   'Yb5 Lu1 Si24 Ru8'
_cell_volume   617.33319580
_cell_formula_units_Z   1
loop_
 _symmetry_equiv_pos_site_id
 _symmetry_equiv_pos_as_xyz
  1  'x, y, z'
loop_
 _atom_site_type_symbol
 _atom_site_label
 _atom_site_symmetry_multiplicity
 _atom_site_fract_x
 _atom_site_fract_y
 _atom_site_fract_z
 _atom_site_occupancy
  Yb  Yb0  1  0.000000  0.000000  0.000000  1
  Yb  Yb1  1  0.501807  0.001942  0.750031  1
  Yb  Yb2  1  0.998058  0.498193  0.249969  1
  Yb  Yb3  1  0.498193  0.998058  0.249969  1
  Yb  Yb4  1  0.001942  0.501807  0.750031  1
  Lu  Lu5  1  0.500000  0.500000  0.500000  1
  Si  Si6  1  0.793757  0.206243  0.500000  1
  Si  Si7  1  0.293945  0.706055  0.000000  1
  Si  Si8  1  0.206243  0.793757  0.500000  1
  Si  Si9  1  0.706055  0.293945  0.000000  1
  Si  Si10  1  0.332228  0.332228  0.833615  1
  Si  Si11  1  0.667772  0.667772  0.166385  1
  Si  Si12  1  0.165990  0.165990  0.331572  1
  Si  Si13  1  0.834010  0.834010  0.668428  1
  Si  Si14  1  0.122915  0.889730  0.729617  1
  Si  Si15  1  0.110270  0.877085  0.270383  1
  Si  Si16  1  0.609204  0.375897  0.228954  1
  Si  Si17  1  0.624103  0.390796  0.771046  1
  Si  Si18  1  0.877085  0.110270  0.270383  1
  Si  Si19  1  0.889730  0.122915  0.729617  1
  Si  Si20  1  0.390796  0.624103  0.771046  1
  Si  Si21  1  0.375897  0.609204  0.228954  1
  Si  Si22  1  0.345164  0.111273  0.506075  1
  Si  Si23  1  0.888727  0.654836  0.493925  1
  Si  Si24  1  0.386199  0.153077  0.006648  1
  Si  Si25  1  0.846923  0.613801  0.993352  1
  Si  Si26  1  0.654836  0.888727  0.493925  1
  Si  Si27  1  0.111273  0.345164  0.506075  1
  Si  Si28  1  0.613801  0.846923  0.993352  1
  Si  Si29  1  0.153077  0.386199  0.006648  1
  Ru  Ru30  1  0.667938  0.332062  0.500000  1
  Ru  Ru31  1  0.169299  0.830701  0.000000  1
  Ru  Ru32  1  0.332062  0.667938  0.500000  1
  Ru  Ru33  1  0.830701  0.169299  0.000000  1
  Ru  Ru34  1  0.128943  0.128943  0.623782  1
  Ru  Ru35  1  0.871057  0.871057  0.376218  1
  Ru  Ru36  1  0.375304  0.375304  0.127724  1
  Ru  Ru37  1  0.624696  0.624696  0.872276  1
