# generated using pymatgen
data_LuPa(FeB)8
_symmetry_space_group_name_H-M   'P 1'
_cell_length_a   6.91313300
_cell_length_b   6.91313300
_cell_length_c   3.82157400
_cell_angle_alpha   90.00000000
_cell_angle_beta   90.00000000
_cell_angle_gamma   90.00000000
_symmetry_Int_Tables_number   1
_chemical_formula_structural   LuPa(FeB)8
_chemical_formula_sum   'Lu1 Pa1 Fe8 B8'
_cell_volume   182.63840176
_cell_formula_units_Z   1
loop_
 _symmetry_equiv_pos_site_id
 _symmetry_equiv_pos_as_xyz
  1  'x, y, z'
loop_
 _atom_site_type_symbol
 _atom_site_label
 _atom_site_symmetry_multiplicity
 _atom_site_fract_x
 _atom_site_fract_y
 _atom_site_fract_z
 _atom_site_occupancy
  Lu  Lu0  1  0.000000  0.000000  0.000000  1
  Pa  Pa1  1  0.500000  0.500000  0.500000  1
  Fe  Fe2  1  0.867362  0.385054  0.108314  1
  Fe  Fe3  1  0.132638  0.614946  0.108314  1
  Fe  Fe4  1  0.882620  0.630166  0.604082  1
  Fe  Fe5  1  0.117380  0.369834  0.604082  1
  Fe  Fe6  1  0.630166  0.117380  0.395918  1
  Fe  Fe7  1  0.369834  0.882620  0.395918  1
  Fe  Fe8  1  0.614946  0.867362  0.891686  1
  Fe  Fe9  1  0.385054  0.132638  0.891686  1
  B  B10  1  0.333021  0.799339  0.897825  1
  B  B11  1  0.666979  0.200661  0.897825  1
  B  B12  1  0.294910  0.163018  0.391927  1
  B  B13  1  0.705090  0.836982  0.391927  1
  B  B14  1  0.163018  0.705090  0.608073  1
  B  B15  1  0.836982  0.294910  0.608073  1
  B  B16  1  0.200661  0.333021  0.102175  1
  B  B17  1  0.799339  0.666979  0.102175  1
