# generated using pymatgen
data_Tb3Y9(PdRh)2
_symmetry_space_group_name_H-M   'P 1'
_cell_length_a   6.44310874
_cell_length_b   7.13694204
_cell_length_c   9.59506770
_cell_angle_alpha   89.91553202
_cell_angle_beta   89.94556452
_cell_angle_gamma   90.18521305
_symmetry_Int_Tables_number   1
_chemical_formula_structural   Tb3Y9(PdRh)2
_chemical_formula_sum   'Tb3 Y9 Pd2 Rh2'
_cell_volume   441.21750553
_cell_formula_units_Z   1
loop_
 _symmetry_equiv_pos_site_id
 _symmetry_equiv_pos_as_xyz
  1  'x, y, z'
loop_
 _atom_site_type_symbol
 _atom_site_label
 _atom_site_symmetry_multiplicity
 _atom_site_fract_x
 _atom_site_fract_y
 _atom_site_fract_z
 _atom_site_occupancy
  Tb  Tb0  1  0.172415  0.179373  0.061989  1
  Tb  Tb1  1  0.827483  0.820461  0.938025  1
  Tb  Tb2  1  0.676208  0.316072  0.937779  1
  Y  Y3  1  0.638092  0.024157  0.249891  1
  Y  Y4  1  0.361701  0.975993  0.749991  1
  Y  Y5  1  0.127414  0.463925  0.749865  1
  Y  Y6  1  0.872548  0.536397  0.249937  1
  Y  Y7  1  0.827447  0.820118  0.561348  1
  Y  Y8  1  0.324270  0.683828  0.061968  1
  Y  Y9  1  0.172616  0.179655  0.438647  1
  Y  Y10  1  0.324022  0.683668  0.438297  1
  Y  Y11  1  0.675909  0.316391  0.561478  1
  Pd  Pd12  1  0.449343  0.387926  0.249856  1
  Pd  Pd13  1  0.550998  0.611662  0.750482  1
  Rh  Rh14  1  0.942618  0.112383  0.750851  1
  Rh  Rh15  1  0.056917  0.887991  0.249595  1
