# generated using pymatgen
data_TbCeY8(SiB4)4
_symmetry_space_group_name_H-M   'P 1'
_cell_length_a   7.25415803
_cell_length_b   7.25430747
_cell_length_c   8.14835401
_cell_angle_alpha   89.99275935
_cell_angle_beta   89.99672414
_cell_angle_gamma   90.05170901
_symmetry_Int_Tables_number   1
_chemical_formula_structural   TbCeY8(SiB4)4
_chemical_formula_sum   'Tb1 Ce1 Y8 Si4 B16'
_cell_volume   428.79792884
_cell_formula_units_Z   1
loop_
 _symmetry_equiv_pos_site_id
 _symmetry_equiv_pos_as_xyz
  1  'x, y, z'
loop_
 _atom_site_type_symbol
 _atom_site_label
 _atom_site_symmetry_multiplicity
 _atom_site_fract_x
 _atom_site_fract_y
 _atom_site_fract_z
 _atom_site_occupancy
  Tb  Tb0  1  0.819443  0.680570  0.222863  1
  Ce  Ce1  1  0.682229  0.182218  0.230325  1
  Y  Y2  1  0.318631  0.818640  0.777049  1
  Y  Y3  1  0.319494  0.819489  0.223046  1
  Y  Y4  1  0.819696  0.680814  0.777110  1
  Y  Y5  1  0.680784  0.180790  0.776515  1
  Y  Y6  1  0.180820  0.319692  0.777145  1
  Y  Y7  1  0.180553  0.319467  0.222738  1
  Y  Y8  1  0.000632  0.999156  0.500482  1
  Y  Y9  1  0.499112  0.500617  0.500480  1
  Si  Si10  1  0.115478  0.615440  0.501290  1
  Si  Si11  1  0.886054  0.386011  0.500201  1
  Si  Si12  1  0.384900  0.114111  0.499517  1
  Si  Si13  1  0.614073  0.884936  0.499524  1
  B  B14  1  0.172625  0.038861  0.999058  1
  B  B15  1  0.827790  0.960902  0.999735  1
  B  B16  1  0.960784  0.171722  0.999505  1
  B  B17  1  0.327355  0.539738  0.999185  1
  B  B18  1  0.039745  0.827379  0.999193  1
  B  B19  1  0.671698  0.460782  0.999508  1
  B  B20  1  0.538836  0.672595  0.999068  1
  B  B21  1  0.460875  0.327763  0.999731  1
  B  B22  1  0.090281  0.590244  0.999409  1
  B  B23  1  0.909426  0.409388  0.001131  1
  B  B24  1  0.409717  0.089940  0.999564  1
  B  B25  1  0.589956  0.909700  0.999600  1
  B  B26  1  0.999458  0.999594  0.160572  1
  B  B27  1  0.000420  0.999628  0.837942  1
  B  B28  1  0.499604  0.500389  0.837942  1
  B  B29  1  0.499533  0.499424  0.160574  1
