# generated using pymatgen
data_PrSi2(AsRh3)2
_symmetry_space_group_name_H-M   'P 1'
_cell_length_a   7.17915964
_cell_length_b   7.17916067
_cell_length_c   3.84758200
_cell_angle_alpha   90.00000000
_cell_angle_beta   90.00000000
_cell_angle_gamma   119.93313482
_symmetry_Int_Tables_number   1
_chemical_formula_structural   PrSi2(AsRh3)2
_chemical_formula_sum   'Pr1 Si2 As2 Rh6'
_cell_volume   171.85335837
_cell_formula_units_Z   1
loop_
 _symmetry_equiv_pos_site_id
 _symmetry_equiv_pos_as_xyz
  1  'x, y, z'
loop_
 _atom_site_type_symbol
 _atom_site_label
 _atom_site_symmetry_multiplicity
 _atom_site_fract_x
 _atom_site_fract_y
 _atom_site_fract_z
 _atom_site_occupancy
  Pr  Pr0  1  0.997043  0.002957  0.000000  1
  Si  Si1  1  0.802102  0.197898  0.500000  1
  Si  Si2  1  0.333854  0.666146  0.000000  1
  As  As3  1  0.388208  0.192264  0.500000  1
  As  As4  1  0.807736  0.611792  0.500000  1
  Rh  Rh5  1  0.204601  0.795399  0.500000  1
  Rh  Rh6  1  0.195388  0.400900  0.500000  1
  Rh  Rh7  1  0.540593  0.066400  0.000000  1
  Rh  Rh8  1  0.933600  0.459407  0.000000  1
  Rh  Rh9  1  0.531109  0.468891  0.000000  1
  Rh  Rh10  1  0.599100  0.804612  0.500000  1
