# generated using pymatgen
data_Ti6CoSiSe
_symmetry_space_group_name_H-M   'P 1'
_cell_length_a   6.98730600
_cell_length_b   6.98730507
_cell_length_c   3.28433500
_cell_angle_alpha   90.00000000
_cell_angle_beta   90.00000000
_cell_angle_gamma   119.99999495
_symmetry_Int_Tables_number   1
_chemical_formula_structural   Ti6CoSiSe
_chemical_formula_sum   'Ti6 Co1 Si1 Se1'
_cell_volume   138.86652580
_cell_formula_units_Z   1
loop_
 _symmetry_equiv_pos_site_id
 _symmetry_equiv_pos_as_xyz
  1  'x, y, z'
loop_
 _atom_site_type_symbol
 _atom_site_label
 _atom_site_symmetry_multiplicity
 _atom_site_fract_x
 _atom_site_fract_y
 _atom_site_fract_z
 _atom_site_occupancy
  Ti  Ti0  1  0.252595  0.004146  0.500000  1
  Ti  Ti1  1  0.751551  0.747405  0.500000  1
  Ti  Ti2  1  0.995854  0.248449  0.500000  1
  Ti  Ti3  1  0.595008  0.006150  0.000000  1
  Ti  Ti4  1  0.411142  0.404992  0.000000  1
  Ti  Ti5  1  0.993850  0.588858  0.000000  1
  Co  Co6  1  0.000000  0.000000  0.000000  1
  Si  Si7  1  0.666667  0.333333  0.500000  1
  Se  Se8  1  0.333333  0.666667  0.500000  1
