# generated using pymatgen
data_Th5Fe18CoP12
_symmetry_space_group_name_H-M   'P 1'
_cell_length_a   12.11402500
_cell_length_b   12.11402578
_cell_length_c   3.79882900
_cell_angle_alpha   90.00000000
_cell_angle_beta   90.00000000
_cell_angle_gamma   120.00000061
_symmetry_Int_Tables_number   1
_chemical_formula_structural   Th5Fe18CoP12
_chemical_formula_sum   'Th5 Fe18 Co1 P12'
_cell_volume   482.78896255
_cell_formula_units_Z   1
loop_
 _symmetry_equiv_pos_site_id
 _symmetry_equiv_pos_as_xyz
  1  'x, y, z'
loop_
 _atom_site_type_symbol
 _atom_site_label
 _atom_site_symmetry_multiplicity
 _atom_site_fract_x
 _atom_site_fract_y
 _atom_site_fract_z
 _atom_site_occupancy
  Th  Th0  1  0.666667  0.333333  0.000000  1
  Th  Th1  1  0.333333  0.666667  0.000000  1
  Th  Th2  1  0.189345  0.189345  0.500000  1
  Th  Th3  1  0.810655  0.000000  0.500000  1
  Th  Th4  1  0.000000  0.810655  0.500000  1
  Fe  Fe5  1  0.818965  0.197564  0.000000  1
  Fe  Fe6  1  0.802436  0.621399  0.000000  1
  Fe  Fe7  1  0.378601  0.181035  0.000000  1
  Fe  Fe8  1  0.197564  0.818965  0.000000  1
  Fe  Fe9  1  0.621399  0.802436  0.000000  1
  Fe  Fe10  1  0.181035  0.378601  0.000000  1
  Fe  Fe11  1  0.560983  0.560983  0.000000  1
  Fe  Fe12  1  0.439017  0.000000  0.000000  1
  Fe  Fe13  1  0.000000  0.439017  0.000000  1
  Fe  Fe14  1  0.634612  0.121160  0.500000  1
  Fe  Fe15  1  0.878840  0.513452  0.500000  1
  Fe  Fe16  1  0.486548  0.365388  0.500000  1
  Fe  Fe17  1  0.121160  0.634612  0.500000  1
  Fe  Fe18  1  0.513452  0.878840  0.500000  1
  Fe  Fe19  1  0.365388  0.486548  0.500000  1
  Fe  Fe20  1  0.715067  0.715067  0.500000  1
  Fe  Fe21  1  0.284933  0.000000  0.500000  1
  Fe  Fe22  1  0.000000  0.284933  0.500000  1
  Co  Co23  1  0.000000  0.000000  0.000000  1
  P  P24  1  0.377741  0.377741  0.000000  1
  P  P25  1  0.622259  0.000000  0.000000  1
  P  P26  1  0.000000  0.622259  0.000000  1
  P  P27  1  0.833800  0.307090  0.500000  1
  P  P28  1  0.692910  0.526711  0.500000  1
  P  P29  1  0.473289  0.166200  0.500000  1
  P  P30  1  0.307090  0.833800  0.500000  1
  P  P31  1  0.526711  0.692910  0.500000  1
  P  P32  1  0.166200  0.473289  0.500000  1
  P  P33  1  0.811222  0.811222  0.000000  1
  P  P34  1  0.188778  0.000000  0.000000  1
  P  P35  1  0.000000  0.188778  0.000000  1
