# generated using pymatgen
data_Er4Si10Ir5Os
_symmetry_space_group_name_H-M   'P 1'
_cell_length_a   8.12095106
_cell_length_b   8.12095339
_cell_length_c   8.12095190
_cell_angle_alpha   137.96721356
_cell_angle_beta   104.70154172
_cell_angle_gamma   90.19791674
_symmetry_Int_Tables_number   1
_chemical_formula_structural   Er4Si10Ir5Os
_chemical_formula_sum   'Er4 Si10 Ir5 Os1'
_cell_volume   331.27180258
_cell_formula_units_Z   1
loop_
 _symmetry_equiv_pos_site_id
 _symmetry_equiv_pos_as_xyz
  1  'x, y, z'
loop_
 _atom_site_type_symbol
 _atom_site_label
 _atom_site_symmetry_multiplicity
 _atom_site_fract_x
 _atom_site_fract_y
 _atom_site_fract_z
 _atom_site_occupancy
  Er  Er0  1  0.901655  0.130005  0.769224  1
  Er  Er1  1  0.098345  0.867569  0.228350  1
  Er  Er2  1  0.639218  0.369995  0.271650  1
  Er  Er3  1  0.360782  0.632431  0.730776  1
  Si  Si4  1  0.000000  0.750000  0.750000  1
  Si  Si5  1  0.000000  0.250000  0.250000  1
  Si  Si6  1  0.724418  0.474418  0.750000  1
  Si  Si7  1  0.275582  0.025582  0.750000  1
  Si  Si8  1  0.276938  0.526938  0.250000  1
  Si  Si9  1  0.723062  0.973062  0.250000  1
  Si  Si10  1  0.240390  0.398065  0.847029  1
  Si  Si11  1  0.551034  0.893361  0.652971  1
  Si  Si12  1  0.448966  0.101935  0.342325  1
  Si  Si13  1  0.759610  0.606639  0.157675  1
  Ir  Ir14  1  0.745597  0.860859  0.887545  1
  Ir  Ir15  1  0.500000  0.250000  0.750000  1
  Ir  Ir16  1  0.973314  0.358053  0.612455  1
  Ir  Ir17  1  0.026686  0.639141  0.384739  1
  Ir  Ir18  1  0.254403  0.141947  0.115261  1
  Os  Os19  1  0.500000  0.750000  0.250000  1
