# generated using pymatgen
data_YbBeRe2C
_symmetry_space_group_name_H-M   'P 1'
_cell_length_a   5.56042085
_cell_length_b   5.56042016
_cell_length_c   7.23403400
_cell_angle_alpha   90.00000000
_cell_angle_beta   90.00000000
_cell_angle_gamma   138.91837917
_symmetry_Int_Tables_number   1
_chemical_formula_structural   YbBeRe2C
_chemical_formula_sum   'Yb2 Be2 Re4 C2'
_cell_volume   146.97701270
_cell_formula_units_Z   2
loop_
 _symmetry_equiv_pos_site_id
 _symmetry_equiv_pos_as_xyz
  1  'x, y, z'
loop_
 _atom_site_type_symbol
 _atom_site_label
 _atom_site_symmetry_multiplicity
 _atom_site_fract_x
 _atom_site_fract_y
 _atom_site_fract_z
 _atom_site_occupancy
  Yb  Yb0  1  0.532055  0.467945  0.250000  1
  Yb  Yb1  1  0.467945  0.532055  0.750000  1
  Be  Be2  1  0.255967  0.744033  0.250000  1
  Be  Be3  1  0.744033  0.255967  0.750000  1
  Re  Re4  1  0.819271  0.180729  0.067539  1
  Re  Re5  1  0.180729  0.819271  0.932461  1
  Re  Re6  1  0.180729  0.819271  0.567539  1
  Re  Re7  1  0.819271  0.180729  0.432461  1
  C  C8  1  0.000000  0.000000  0.000000  1
  C  C9  1  0.000000  0.000000  0.500000  1
