# generated using pymatgen
data_HoEr2Co8P6Ru
_symmetry_space_group_name_H-M   'P 1'
_cell_length_a   3.69513900
_cell_length_b   10.49993400
_cell_length_c   12.22039200
_cell_angle_alpha   90.00000000
_cell_angle_beta   90.00000000
_cell_angle_gamma   90.00000000
_symmetry_Int_Tables_number   1
_chemical_formula_structural   HoEr2Co8P6Ru
_chemical_formula_sum   'Ho2 Er4 Co16 P12 Ru2'
_cell_volume   474.13551398
_cell_formula_units_Z   2
loop_
 _symmetry_equiv_pos_site_id
 _symmetry_equiv_pos_as_xyz
  1  'x, y, z'
loop_
 _atom_site_type_symbol
 _atom_site_label
 _atom_site_symmetry_multiplicity
 _atom_site_fract_x
 _atom_site_fract_y
 _atom_site_fract_z
 _atom_site_occupancy
  Ho  Ho0  1  0.000000  0.500000  0.524678  1
  Ho  Ho1  1  0.500000  0.000000  0.475322  1
  Er  Er2  1  0.500000  0.817173  0.207002  1
  Er  Er3  1  0.500000  0.182827  0.207002  1
  Er  Er4  1  0.000000  0.682827  0.792998  1
  Er  Er5  1  0.000000  0.317173  0.792998  1
  Co  Co6  1  0.000000  0.500000  0.986036  1
  Co  Co7  1  0.500000  0.000000  0.013964  1
  Co  Co8  1  0.500000  0.297280  0.431198  1
  Co  Co9  1  0.500000  0.702720  0.431198  1
  Co  Co10  1  0.000000  0.202720  0.568802  1
  Co  Co11  1  0.000000  0.797280  0.568802  1
  Co  Co12  1  0.500000  0.878742  0.707626  1
  Co  Co13  1  0.500000  0.121258  0.707626  1
  Co  Co14  1  0.000000  0.621258  0.292374  1
  Co  Co15  1  0.000000  0.378742  0.292374  1
  Co  Co16  1  0.500000  0.332374  0.990413  1
  Co  Co17  1  0.500000  0.667626  0.990413  1
  Co  Co18  1  0.000000  0.167626  0.009587  1
  Co  Co19  1  0.000000  0.832374  0.009587  1
  Co  Co20  1  0.500000  0.500000  0.704180  1
  Co  Co21  1  0.000000  0.000000  0.295820  1
  P  P22  1  0.500000  0.311867  0.616508  1
  P  P23  1  0.500000  0.688133  0.616508  1
  P  P24  1  0.000000  0.188133  0.383492  1
  P  P25  1  0.000000  0.811867  0.383492  1
  P  P26  1  0.500000  0.500000  0.881434  1
  P  P27  1  0.000000  0.000000  0.118566  1
  P  P28  1  0.500000  0.846275  0.892960  1
  P  P29  1  0.500000  0.153725  0.892960  1
  P  P30  1  0.000000  0.653725  0.107040  1
  P  P31  1  0.000000  0.346275  0.107040  1
  P  P32  1  0.500000  0.500000  0.350678  1
  P  P33  1  0.000000  0.000000  0.649322  1
  Ru  Ru34  1  0.500000  0.500000  0.159630  1
  Ru  Ru35  1  0.000000  0.000000  0.840370  1
