# generated using pymatgen
data_Yb3(SiNi)2
_symmetry_space_group_name_H-M   'P 1'
_cell_length_a   5.47697300
_cell_length_b   7.79713800
_cell_length_c   12.47874600
_cell_angle_alpha   90.00000000
_cell_angle_beta   90.00000000
_cell_angle_gamma   90.00000000
_symmetry_Int_Tables_number   1
_chemical_formula_structural   Yb3(SiNi)2
_chemical_formula_sum   'Yb12 Si8 Ni8'
_cell_volume   532.90128279
_cell_formula_units_Z   4
loop_
 _symmetry_equiv_pos_site_id
 _symmetry_equiv_pos_as_xyz
  1  'x, y, z'
loop_
 _atom_site_type_symbol
 _atom_site_label
 _atom_site_symmetry_multiplicity
 _atom_site_fract_x
 _atom_site_fract_y
 _atom_site_fract_z
 _atom_site_occupancy
  Yb  Yb0  1  0.656488  0.241954  0.250000  1
  Yb  Yb1  1  0.343512  0.758046  0.750000  1
  Yb  Yb2  1  0.343512  0.741954  0.250000  1
  Yb  Yb3  1  0.656488  0.258046  0.750000  1
  Yb  Yb4  1  0.142216  0.392075  0.099786  1
  Yb  Yb5  1  0.857784  0.607925  0.900214  1
  Yb  Yb6  1  0.857784  0.607925  0.599786  1
  Yb  Yb7  1  0.857784  0.892075  0.400214  1
  Yb  Yb8  1  0.142216  0.392075  0.400214  1
  Yb  Yb9  1  0.142216  0.107925  0.599786  1
  Yb  Yb10  1  0.142216  0.107925  0.900214  1
  Yb  Yb11  1  0.857784  0.892075  0.099786  1
  Si  Si12  1  0.176756  0.092246  0.250000  1
  Si  Si13  1  0.823244  0.907754  0.750000  1
  Si  Si14  1  0.823244  0.592246  0.250000  1
  Si  Si15  1  0.176756  0.407754  0.750000  1
  Si  Si16  1  0.611666  0.250000  0.000000  1
  Si  Si17  1  0.388334  0.750000  0.000000  1
  Si  Si18  1  0.388334  0.750000  0.500000  1
  Si  Si19  1  0.611666  0.250000  0.500000  1
  Ni  Ni20  1  0.380402  0.025605  0.086235  1
  Ni  Ni21  1  0.619598  0.974395  0.913765  1
  Ni  Ni22  1  0.619598  0.974395  0.586235  1
  Ni  Ni23  1  0.619598  0.525605  0.413765  1
  Ni  Ni24  1  0.380402  0.025605  0.413765  1
  Ni  Ni25  1  0.380402  0.474395  0.586235  1
  Ni  Ni26  1  0.380402  0.474395  0.913765  1
  Ni  Ni27  1  0.619598  0.525605  0.086235  1
