# generated using pymatgen
data_YbHo3Al24PdPt8
_symmetry_space_group_name_H-M   'P 1'
_cell_length_a   7.53217975
_cell_length_b   7.55425496
_cell_length_c   13.19644480
_cell_angle_alpha   84.62787739
_cell_angle_beta   79.13262712
_cell_angle_gamma   59.90102705
_symmetry_Int_Tables_number   1
_chemical_formula_structural   YbHo3Al24PdPt8
_chemical_formula_sum   'Yb1 Ho3 Al24 Pd1 Pt8'
_cell_volume   637.97905089
_cell_formula_units_Z   1
loop_
 _symmetry_equiv_pos_site_id
 _symmetry_equiv_pos_as_xyz
  1  'x, y, z'
loop_
 _atom_site_type_symbol
 _atom_site_label
 _atom_site_symmetry_multiplicity
 _atom_site_fract_x
 _atom_site_fract_y
 _atom_site_fract_z
 _atom_site_occupancy
  Yb  Yb0  1  0.394133  0.168355  0.807360  1
  Ho  Ho1  1  0.605750  0.831781  0.192198  1
  Ho  Ho2  1  0.734001  0.498566  0.807588  1
  Ho  Ho3  1  0.266197  0.501031  0.192368  1
  Al  Al4  1  0.684770  0.833328  0.944593  1
  Al  Al5  1  0.315173  0.166503  0.055486  1
  Al  Al6  1  0.146769  0.832327  0.561171  1
  Al  Al7  1  0.853279  0.167784  0.438272  1
  Al  Al8  1  0.479607  0.166760  0.558859  1
  Al  Al9  1  0.520444  0.833517  0.441018  1
  Al  Al10  1  0.217661  0.165186  0.329301  1
  Al  Al11  1  0.782233  0.835426  0.670364  1
  Al  Al12  1  0.436875  0.506254  0.670207  1
  Al  Al13  1  0.563156  0.493067  0.329471  1
  Al  Al14  1  0.109977  0.160352  0.669077  1
  Al  Al15  1  0.890542  0.839686  0.330673  1
  Al  Al16  1  0.352586  0.499665  0.944687  1
  Al  Al17  1  0.647046  0.500703  0.055968  1
  Al  Al18  1  0.015305  0.168257  0.953533  1
  Al  Al19  1  0.984212  0.831481  0.047233  1
  Al  Al20  1  0.186807  0.499186  0.440916  1
  Al  Al21  1  0.813517  0.500409  0.558608  1
  Al  Al22  1  0.733925  0.164623  0.183390  1
  Al  Al23  1  0.266556  0.833625  0.816858  1
  Al  Al24  1  0.059769  0.631694  0.815975  1
  Al  Al25  1  0.938389  0.369919  0.184342  1
  Al  Al26  1  0.856125  0.042161  0.816320  1
  Al  Al27  1  0.145359  0.958332  0.183975  1
  Pd  Pd28  1  0.999674  0.500284  0.000600  1
  Pt  Pt29  1  0.119843  0.492437  0.638069  1
  Pt  Pt30  1  0.880015  0.508163  0.361474  1
  Pt  Pt31  1  0.656894  0.171354  0.000241  1
  Pt  Pt32  1  0.342693  0.828485  0.000751  1
  Pt  Pt33  1  0.537986  0.166642  0.361185  1
  Pt  Pt34  1  0.462107  0.832887  0.638369  1
  Pt  Pt35  1  0.779096  0.175040  0.636935  1
  Pt  Pt36  1  0.221526  0.824731  0.362562  1
