# generated using pymatgen
data_Rb2Dy5TlF20
_symmetry_space_group_name_H-M   'P 1'
_cell_length_a   8.25982940
_cell_length_b   8.25976494
_cell_length_c   8.27591400
_cell_angle_alpha   59.93582410
_cell_angle_beta   59.93527343
_cell_angle_gamma   60.12913280
_symmetry_Int_Tables_number   1
_chemical_formula_structural   Rb2Dy5TlF20
_chemical_formula_sum   'Rb2 Dy5 Tl1 F20'
_cell_volume   399.24288315
_cell_formula_units_Z   1
loop_
 _symmetry_equiv_pos_site_id
 _symmetry_equiv_pos_as_xyz
  1  'x, y, z'
loop_
 _atom_site_type_symbol
 _atom_site_label
 _atom_site_symmetry_multiplicity
 _atom_site_fract_x
 _atom_site_fract_y
 _atom_site_fract_z
 _atom_site_occupancy
  Rb  Rb0  1  0.749831  0.749858  0.750167  1
  Rb  Rb1  1  0.249832  0.249852  0.250171  1
  Dy  Dy2  1  0.239757  0.758983  0.241017  1
  Dy  Dy3  1  0.758985  0.239756  0.241015  1
  Dy  Dy4  1  0.239755  0.758982  0.760245  1
  Dy  Dy5  1  0.239796  0.239793  0.760205  1
  Dy  Dy6  1  0.758983  0.239756  0.760243  1
  Tl  Tl7  1  0.759087  0.759095  0.240912  1
  F  F8  1  0.829889  0.169691  0.500209  1
  F  F9  1  0.499539  0.170494  0.829497  1
  F  F10  1  0.832658  0.499613  0.167341  1
  F  F11  1  0.499536  0.170499  0.500463  1
  F  F12  1  0.832656  0.499611  0.500383  1
  F  F13  1  0.170502  0.499532  0.829498  1
  F  F14  1  0.499611  0.832651  0.500389  1
  F  F15  1  0.499790  0.499787  0.170117  1
  F  F16  1  0.889196  0.331800  0.889504  1
  F  F17  1  0.110496  0.110497  0.668205  1
  F  F18  1  0.667433  0.111665  0.110449  1
  F  F19  1  0.110497  0.110498  0.110805  1
  F  F20  1  0.331798  0.889194  0.889504  1
  F  F21  1  0.889554  0.889550  0.888329  1
  F  F22  1  0.889550  0.889549  0.332569  1
  F  F23  1  0.111670  0.667437  0.110446  1
  F  F24  1  0.169694  0.829888  0.500207  1
  F  F25  1  0.499616  0.832653  0.167341  1
  F  F26  1  0.170502  0.499532  0.500462  1
  F  F27  1  0.499789  0.499788  0.830306  1
