# generated using pymatgen
data_Er(ScZn4)3
_symmetry_space_group_name_H-M   'P 1'
_cell_length_a   4.27245700
_cell_length_b   6.51619494
_cell_length_c   9.86872987
_cell_angle_alpha   90.50636731
_cell_angle_beta   90.00000000
_cell_angle_gamma   90.00000000
_symmetry_Int_Tables_number   1
_chemical_formula_structural   Er(ScZn4)3
_chemical_formula_sum   'Er1 Sc3 Zn12'
_cell_volume   274.73631531
_cell_formula_units_Z   1
loop_
 _symmetry_equiv_pos_site_id
 _symmetry_equiv_pos_as_xyz
  1  'x, y, z'
loop_
 _atom_site_type_symbol
 _atom_site_label
 _atom_site_symmetry_multiplicity
 _atom_site_fract_x
 _atom_site_fract_y
 _atom_site_fract_z
 _atom_site_occupancy
  Er  Er0  1  0.750002  0.220759  0.830564  1
  Sc  Sc1  1  0.250001  0.781064  0.166927  1
  Sc  Sc2  1  0.250001  0.278044  0.333593  1
  Sc  Sc3  1  0.750002  0.722805  0.664557  1
  Zn  Zn4  1  0.250001  0.208728  0.046605  1
  Zn  Zn5  1  0.750002  0.464192  0.103391  1
  Zn  Zn6  1  0.750002  0.075082  0.155206  1
  Zn  Zn7  1  0.750002  0.577585  0.346337  1
  Zn  Zn8  1  0.750002  0.963565  0.401493  1
  Zn  Zn9  1  0.250001  0.711333  0.456582  1
  Zn  Zn10  1  0.750002  0.296230  0.536594  1
  Zn  Zn11  1  0.250001  0.038183  0.600418  1
  Zn  Zn12  1  0.250001  0.431276  0.648746  1
  Zn  Zn13  1  0.250001  0.913851  0.847687  1
  Zn  Zn14  1  0.250001  0.534433  0.903097  1
  Zn  Zn15  1  0.750002  0.782858  0.958204  1
