# generated using pymatgen
data_LaTb2Th(Al3Ir)6
_symmetry_space_group_name_H-M   'P 1'
_cell_length_a   7.61340238
_cell_length_b   7.61447155
_cell_length_c   9.54551200
_cell_angle_alpha   90.00000000
_cell_angle_beta   90.00000000
_cell_angle_gamma   119.40968247
_symmetry_Int_Tables_number   1
_chemical_formula_structural   LaTb2Th(Al3Ir)6
_chemical_formula_sum   'La1 Tb2 Th1 Al18 Ir6'
_cell_volume   482.06008108
_cell_formula_units_Z   1
loop_
 _symmetry_equiv_pos_site_id
 _symmetry_equiv_pos_as_xyz
  1  'x, y, z'
loop_
 _atom_site_type_symbol
 _atom_site_label
 _atom_site_symmetry_multiplicity
 _atom_site_fract_x
 _atom_site_fract_y
 _atom_site_fract_z
 _atom_site_occupancy
  La  La0  1  0.671173  0.994459  0.250000  1
  Tb  Tb1  1  0.003394  0.328483  0.750000  1
  Tb  Tb2  1  0.328720  0.004143  0.750000  1
  Th  Th3  1  0.995130  0.671178  0.250000  1
  Al  Al4  1  0.134947  0.133879  0.250000  1
  Al  Al5  1  0.873070  0.873771  0.750000  1
  Al  Al6  1  0.004070  0.333791  0.069923  1
  Al  Al7  1  0.999484  0.664471  0.919315  1
  Al  Al8  1  0.999484  0.664471  0.580685  1
  Al  Al9  1  0.337179  0.005408  0.430197  1
  Al  Al10  1  0.004070  0.333791  0.430077  1
  Al  Al11  1  0.664555  0.999715  0.578956  1
  Al  Al12  1  0.664555  0.999715  0.921044  1
  Al  Al13  1  0.337179  0.005408  0.069803  1
  Al  Al14  1  0.332243  0.332270  0.555419  1
  Al  Al15  1  0.663178  0.664450  0.458636  1
  Al  Al16  1  0.663178  0.664450  0.041364  1
  Al  Al17  1  0.332243  0.332270  0.944581  1
  Al  Al18  1  0.339309  0.543996  0.250000  1
  Al  Al19  1  0.658572  0.449619  0.750000  1
  Al  Al20  1  0.544469  0.341100  0.250000  1
  Al  Al21  1  0.449197  0.659680  0.750000  1
  Ir  Ir22  1  0.672833  0.329865  0.999620  1
  Ir  Ir23  1  0.326559  0.671000  0.999687  1
  Ir  Ir24  1  0.326559  0.671000  0.500313  1
  Ir  Ir25  1  0.672833  0.329865  0.500380  1
  Ir  Ir26  1  0.000909  0.998874  0.999981  1
  Ir  Ir27  1  0.000909  0.998874  0.500019  1
