# generated using pymatgen
data_Y17Ho2LuSn16
_symmetry_space_group_name_H-M   'P 1'
_cell_length_a   8.03412101
_cell_length_b   8.17993185
_cell_length_c   15.49803400
_cell_angle_alpha   90.00000000
_cell_angle_beta   90.00000000
_cell_angle_gamma   89.95810876
_symmetry_Int_Tables_number   1
_chemical_formula_structural   Y17Ho2LuSn16
_chemical_formula_sum   'Y17 Ho2 Lu1 Sn16'
_cell_volume   1018.50824120
_cell_formula_units_Z   1
loop_
 _symmetry_equiv_pos_site_id
 _symmetry_equiv_pos_as_xyz
  1  'x, y, z'
loop_
 _atom_site_type_symbol
 _atom_site_label
 _atom_site_symmetry_multiplicity
 _atom_site_fract_x
 _atom_site_fract_y
 _atom_site_fract_z
 _atom_site_occupancy
  Y  Y0  1  0.367238  0.836411  0.877767  1
  Y  Y1  1  0.867235  0.663563  0.622049  1
  Y  Y2  1  0.633186  0.163956  0.378037  1
  Y  Y3  1  0.132308  0.336732  0.121994  1
  Y  Y4  1  0.633186  0.163956  0.121963  1
  Y  Y5  1  0.132308  0.336732  0.378006  1
  Y  Y6  1  0.367238  0.836411  0.622233  1
  Y  Y7  1  0.867235  0.663563  0.877951  1
  Y  Y8  1  0.522362  0.320761  0.902084  1
  Y  Y9  1  0.022409  0.179243  0.598006  1
  Y  Y10  1  0.477905  0.678967  0.402124  1
  Y  Y11  1  0.977413  0.820510  0.097863  1
  Y  Y12  1  0.477905  0.678967  0.097876  1
  Y  Y13  1  0.977413  0.820510  0.402137  1
  Y  Y14  1  0.522362  0.320761  0.597916  1
  Y  Y15  1  0.022409  0.179243  0.901994  1
  Y  Y16  1  0.301587  0.002473  0.250000  1
  Ho  Ho17  1  0.198492  0.502802  0.750000  1
  Ho  Ho18  1  0.698496  0.997234  0.750000  1
  Lu  Lu19  1  0.801229  0.497056  0.250000  1
  Sn  Sn20  1  0.292341  0.034634  0.041797  1
  Sn  Sn21  1  0.792404  0.465549  0.457522  1
  Sn  Sn22  1  0.707617  0.965557  0.542269  1
  Sn  Sn23  1  0.207675  0.534594  0.957727  1
  Sn  Sn24  1  0.707617  0.965557  0.957731  1
  Sn  Sn25  1  0.207675  0.534594  0.542273  1
  Sn  Sn26  1  0.292341  0.034634  0.458203  1
  Sn  Sn27  1  0.792404  0.465549  0.042478  1
  Sn  Sn28  1  0.564645  0.619199  0.750000  1
  Sn  Sn29  1  0.064429  0.880682  0.750000  1
  Sn  Sn30  1  0.436383  0.381525  0.250000  1
  Sn  Sn31  1  0.934417  0.120059  0.250000  1
  Sn  Sn32  1  0.330693  0.148135  0.750000  1
  Sn  Sn33  1  0.830500  0.352167  0.750000  1
  Sn  Sn34  1  0.670159  0.851129  0.250000  1
  Sn  Sn35  1  0.168784  0.646582  0.250000  1
