# generated using pymatgen
data_EuHoBPd6
_symmetry_space_group_name_H-M   'P 1'
_cell_length_a   5.92828080
_cell_length_b   5.92828081
_cell_length_c   5.92828100
_cell_angle_alpha   60.00000453
_cell_angle_beta   60.00000444
_cell_angle_gamma   59.99999660
_symmetry_Int_Tables_number   1
_chemical_formula_structural   EuHoBPd6
_chemical_formula_sum   'Eu1 Ho1 B1 Pd6'
_cell_volume   147.32326480
_cell_formula_units_Z   1
loop_
 _symmetry_equiv_pos_site_id
 _symmetry_equiv_pos_as_xyz
  1  'x, y, z'
loop_
 _atom_site_type_symbol
 _atom_site_label
 _atom_site_symmetry_multiplicity
 _atom_site_fract_x
 _atom_site_fract_y
 _atom_site_fract_z
 _atom_site_occupancy
  Eu  Eu0  1  0.250000  0.250000  0.250000  1
  Ho  Ho1  1  0.750000  0.750000  0.750000  1
  B  B2  1  0.499999  0.499999  0.499999  1
  Pd  Pd3  1  0.755866  0.244133  0.244133  1
  Pd  Pd4  1  0.244133  0.755866  0.244133  1
  Pd  Pd5  1  0.755866  0.755866  0.244133  1
  Pd  Pd6  1  0.244133  0.244133  0.755866  1
  Pd  Pd7  1  0.755866  0.244133  0.755866  1
  Pd  Pd8  1  0.244133  0.755866  0.755866  1
