# generated using pymatgen
data_Rb6TbLuF12
_symmetry_space_group_name_H-M   'P 1'
_cell_length_a   6.86229906
_cell_length_b   6.62249048
_cell_length_c   11.51059030
_cell_angle_alpha   55.27443262
_cell_angle_beta   90.05177795
_cell_angle_gamma   89.95580846
_symmetry_Int_Tables_number   1
_chemical_formula_structural   Rb6TbLuF12
_chemical_formula_sum   'Rb6 Tb1 Lu1 F12'
_cell_volume   429.93373928
_cell_formula_units_Z   1
loop_
 _symmetry_equiv_pos_site_id
 _symmetry_equiv_pos_as_xyz
  1  'x, y, z'
loop_
 _atom_site_type_symbol
 _atom_site_label
 _atom_site_symmetry_multiplicity
 _atom_site_fract_x
 _atom_site_fract_y
 _atom_site_fract_z
 _atom_site_occupancy
  Rb  Rb0  1  0.500000  0.500000  0.000000  1
  Rb  Rb1  1  0.000000  0.500000  0.500000  1
  Rb  Rb2  1  0.049110  0.730219  0.756364  1
  Rb  Rb3  1  0.950890  0.269781  0.243636  1
  Rb  Rb4  1  0.550733  0.263518  0.750215  1
  Rb  Rb5  1  0.449267  0.736482  0.249785  1
  Tb  Tb6  1  0.500000  0.000000  0.500000  1
  Lu  Lu7  1  0.000000  0.000000  0.000000  1
  F  F8  1  0.766796  0.770321  0.566071  1
  F  F9  1  0.233204  0.229679  0.433929  1
  F  F10  1  0.257470  0.222693  0.937502  1
  F  F11  1  0.742530  0.777307  0.062498  1
  F  F12  1  0.448588  0.885987  0.719492  1
  F  F13  1  0.551412  0.114013  0.280508  1
  F  F14  1  0.951288  0.110372  0.787925  1
  F  F15  1  0.048712  0.889628  0.212075  1
  F  F16  1  0.328141  0.679263  0.547676  1
  F  F17  1  0.671859  0.320737  0.452324  1
  F  F18  1  0.830584  0.308061  0.955199  1
  F  F19  1  0.169416  0.691939  0.044801  1
