# generated using pymatgen
data_Tb16Y4CdIn5Ru2
_symmetry_space_group_name_H-M   'P 1'
_cell_length_a   9.75649500
_cell_length_b   9.82496278
_cell_length_c   9.77140000
_cell_angle_alpha   90.00000000
_cell_angle_beta   90.00000000
_cell_angle_gamma   120.23241523
_symmetry_Int_Tables_number   1
_chemical_formula_structural   Tb16Y4CdIn5Ru2
_chemical_formula_sum   'Tb16 Y4 Cd1 In5 Ru2'
_cell_volume   809.26412329
_cell_formula_units_Z   1
loop_
 _symmetry_equiv_pos_site_id
 _symmetry_equiv_pos_as_xyz
  1  'x, y, z'
loop_
 _atom_site_type_symbol
 _atom_site_label
 _atom_site_symmetry_multiplicity
 _atom_site_fract_x
 _atom_site_fract_y
 _atom_site_fract_z
 _atom_site_occupancy
  Tb  Tb0  1  0.996102  0.998051  0.502299  1
  Tb  Tb1  1  0.996102  0.998051  0.997701  1
  Tb  Tb2  1  0.210515  0.790791  0.440325  1
  Tb  Tb3  1  0.210515  0.419725  0.440325  1
  Tb  Tb4  1  0.579302  0.789652  0.437353  1
  Tb  Tb5  1  0.790180  0.211276  0.559689  1
  Tb  Tb6  1  0.790180  0.578902  0.559689  1
  Tb  Tb7  1  0.419453  0.209726  0.561615  1
  Tb  Tb8  1  0.790180  0.211276  0.940311  1
  Tb  Tb9  1  0.790180  0.578902  0.940311  1
  Tb  Tb10  1  0.419453  0.209726  0.938385  1
  Tb  Tb11  1  0.210515  0.790791  0.059675  1
  Tb  Tb12  1  0.210515  0.419725  0.059675  1
  Tb  Tb13  1  0.579302  0.789652  0.062647  1
  Tb  Tb14  1  0.461545  0.542752  0.750000  1
  Tb  Tb15  1  0.461545  0.918792  0.750000  1
  Y  Y16  1  0.541437  0.459245  0.250000  1
  Y  Y17  1  0.541437  0.082193  0.250000  1
  Y  Y18  1  0.922689  0.461344  0.250000  1
  Y  Y19  1  0.082638  0.541319  0.750000  1
  Cd  Cd20  1  0.766770  0.883385  0.750000  1
  In  In21  1  0.884657  0.118122  0.250000  1
  In  In22  1  0.884657  0.766535  0.250000  1
  In  In23  1  0.230906  0.115454  0.250000  1
  In  In24  1  0.115619  0.881503  0.750000  1
  In  In25  1  0.115619  0.234115  0.750000  1
  Ru  Ru26  1  0.330050  0.665025  0.250000  1
  Ru  Ru27  1  0.667940  0.333970  0.750000  1
