# generated using pymatgen
data_Pr5InPtO12
_symmetry_space_group_name_H-M   'P 1'
_cell_length_a   7.20923083
_cell_length_b   7.20923085
_cell_length_c   7.71410605
_cell_angle_alpha   74.43322758
_cell_angle_beta   74.43322957
_cell_angle_gamma   51.26717853
_symmetry_Int_Tables_number   1
_chemical_formula_structural   Pr5InPtO12
_chemical_formula_sum   'Pr5 In1 Pt1 O12'
_cell_volume   298.57457826
_cell_formula_units_Z   1
loop_
 _symmetry_equiv_pos_site_id
 _symmetry_equiv_pos_as_xyz
  1  'x, y, z'
loop_
 _atom_site_type_symbol
 _atom_site_label
 _atom_site_symmetry_multiplicity
 _atom_site_fract_x
 _atom_site_fract_y
 _atom_site_fract_z
 _atom_site_occupancy
  Pr  Pr0  1  0.306204  0.299834  0.359343  1
  Pr  Pr1  1  0.700166  0.693796  0.640657  1
  Pr  Pr2  1  0.688334  0.697899  0.167976  1
  Pr  Pr3  1  0.302101  0.311666  0.832024  1
  Pr  Pr4  1  0.011741  0.988259  0.500000  1
  In  In5  1  0.759322  0.240678  0.000000  1
  Pt  Pt6  1  0.248281  0.751719  0.000000  1
  O  O7  1  0.095063  0.597179  0.572572  1
  O  O8  1  0.023558  0.975514  0.183671  1
  O  O9  1  0.402821  0.904937  0.427428  1
  O  O10  1  0.480692  0.520574  0.183686  1
  O  O11  1  0.102244  0.582531  0.081185  1
  O  O12  1  0.905654  0.403804  0.422054  1
  O  O13  1  0.024486  0.976442  0.816329  1
  O  O14  1  0.596196  0.094345  0.577946  1
  O  O15  1  0.479426  0.519308  0.816314  1
  O  O16  1  0.556237  0.099995  0.083637  1
  O  O17  1  0.417469  0.897756  0.918815  1
  O  O18  1  0.900005  0.443763  0.916363  1
