# generated using pymatgen
data_Tb4TeC4I
_symmetry_space_group_name_H-M   'P 1'
_cell_length_a   7.58708381
_cell_length_b   7.58708422
_cell_length_c   6.75975704
_cell_angle_alpha   100.12262874
_cell_angle_beta   100.12262875
_cell_angle_gamma   32.80166052
_symmetry_Int_Tables_number   1
_chemical_formula_structural   Tb4TeC4I
_chemical_formula_sum   'Tb4 Te1 C4 I1'
_cell_volume   207.22965795
_cell_formula_units_Z   1
loop_
 _symmetry_equiv_pos_site_id
 _symmetry_equiv_pos_as_xyz
  1  'x, y, z'
loop_
 _atom_site_type_symbol
 _atom_site_label
 _atom_site_symmetry_multiplicity
 _atom_site_fract_x
 _atom_site_fract_y
 _atom_site_fract_z
 _atom_site_occupancy
  Tb  Tb0  1  0.457852  0.856223  0.155860  1
  Tb  Tb1  1  0.143777  0.542149  0.344140  1
  Tb  Tb2  1  0.856833  0.464721  0.641437  1
  Tb  Tb3  1  0.535280  0.143167  0.858563  1
  Te  Te4  1  0.778243  0.221757  0.250000  1
  C  C5  1  0.102609  0.348006  0.025787  1
  C  C6  1  0.651994  0.897391  0.474213  1
  C  C7  1  0.354120  0.106896  0.527750  1
  C  C8  1  0.893104  0.645881  0.972249  1
  I  I9  1  0.226189  0.773811  0.750000  1
