# generated using pymatgen
data_Sm2EuCo8TcP6
_symmetry_space_group_name_H-M   'P 1'
_cell_length_a   3.75293900
_cell_length_b   10.61474700
_cell_length_c   12.33814000
_cell_angle_alpha   90.00000000
_cell_angle_beta   90.00000000
_cell_angle_gamma   90.00000000
_symmetry_Int_Tables_number   1
_chemical_formula_structural   Sm2EuCo8TcP6
_chemical_formula_sum   'Sm4 Eu2 Co16 Tc2 P12'
_cell_volume   491.50828933
_cell_formula_units_Z   2
loop_
 _symmetry_equiv_pos_site_id
 _symmetry_equiv_pos_as_xyz
  1  'x, y, z'
loop_
 _atom_site_type_symbol
 _atom_site_label
 _atom_site_symmetry_multiplicity
 _atom_site_fract_x
 _atom_site_fract_y
 _atom_site_fract_z
 _atom_site_occupancy
  Sm  Sm0  1  0.500000  0.817721  0.205345  1
  Sm  Sm1  1  0.500000  0.182279  0.205345  1
  Sm  Sm2  1  0.000000  0.682279  0.794655  1
  Sm  Sm3  1  0.000000  0.317721  0.794655  1
  Eu  Eu4  1  0.000000  0.500000  0.524475  1
  Eu  Eu5  1  0.500000  0.000000  0.475525  1
  Co  Co6  1  0.500000  0.500000  0.703760  1
  Co  Co7  1  0.000000  0.000000  0.296240  1
  Co  Co8  1  0.000000  0.500000  0.987528  1
  Co  Co9  1  0.500000  0.000000  0.012472  1
  Co  Co10  1  0.500000  0.332043  0.990916  1
  Co  Co11  1  0.500000  0.667957  0.990916  1
  Co  Co12  1  0.000000  0.167957  0.009084  1
  Co  Co13  1  0.000000  0.832043  0.009084  1
  Co  Co14  1  0.500000  0.296016  0.430312  1
  Co  Co15  1  0.500000  0.703984  0.430312  1
  Co  Co16  1  0.000000  0.203984  0.569688  1
  Co  Co17  1  0.000000  0.796016  0.569688  1
  Co  Co18  1  0.500000  0.880414  0.709098  1
  Co  Co19  1  0.500000  0.119586  0.709098  1
  Co  Co20  1  0.000000  0.619586  0.290902  1
  Co  Co21  1  0.000000  0.380414  0.290902  1
  Tc  Tc22  1  0.500000  0.500000  0.155271  1
  Tc  Tc23  1  0.000000  0.000000  0.844729  1
  P  P24  1  0.500000  0.500000  0.884007  1
  P  P25  1  0.000000  0.000000  0.115993  1
  P  P26  1  0.500000  0.500000  0.345246  1
  P  P27  1  0.000000  0.000000  0.654754  1
  P  P28  1  0.500000  0.307736  0.614857  1
  P  P29  1  0.500000  0.692264  0.614857  1
  P  P30  1  0.000000  0.192264  0.385143  1
  P  P31  1  0.000000  0.807736  0.385143  1
  P  P32  1  0.500000  0.847595  0.894501  1
  P  P33  1  0.500000  0.152405  0.894501  1
  P  P34  1  0.000000  0.652405  0.105499  1
  P  P35  1  0.000000  0.347595  0.105499  1
