# generated using pymatgen
data_La10B(CBr5)3
_symmetry_space_group_name_H-M   'P 1'
_cell_length_a   9.39625797
_cell_length_b   10.60049658
_cell_length_c   11.38560441
_cell_angle_alpha   70.18346745
_cell_angle_beta   66.50272084
_cell_angle_gamma   70.50826604
_symmetry_Int_Tables_number   1
_chemical_formula_structural   La10B(CBr5)3
_chemical_formula_sum   'La10 B1 C3 Br15'
_cell_volume   952.18866455
_cell_formula_units_Z   1
loop_
 _symmetry_equiv_pos_site_id
 _symmetry_equiv_pos_as_xyz
  1  'x, y, z'
loop_
 _atom_site_type_symbol
 _atom_site_label
 _atom_site_symmetry_multiplicity
 _atom_site_fract_x
 _atom_site_fract_y
 _atom_site_fract_z
 _atom_site_occupancy
  La  La0  1  0.335959  0.746808  0.830911  1
  La  La1  1  0.663299  0.254379  0.169843  1
  La  La2  1  0.171554  0.430961  0.045444  1
  La  La3  1  0.829026  0.570331  0.953960  1
  La  La4  1  0.082016  0.188404  0.882333  1
  La  La5  1  0.920576  0.807756  0.113279  1
  La  La6  1  0.245704  0.545788  0.644230  1
  La  La7  1  0.749914  0.456963  0.364489  1
  La  La8  1  0.032078  0.107431  0.264531  1
  La  La9  1  0.969111  0.893276  0.734062  1
  B  B10  1  0.878983  0.358790  0.173610  1
  C  C11  1  0.120514  0.642634  0.826810  1
  C  C12  1  0.958047  0.290496  0.058362  1
  C  C13  1  0.045101  0.703710  0.935926  1
  Br  Br14  1  0.499647  0.500937  0.000425  1
  Br  Br15  1  0.129063  0.815349  0.470862  1
  Br  Br16  1  0.869817  0.181385  0.532789  1
  Br  Br17  1  0.250803  0.020201  0.651997  1
  Br  Br18  1  0.753108  0.975142  0.342611  1
  Br  Br19  1  0.337963  0.169492  0.219548  1
  Br  Br20  1  0.660989  0.832540  0.780756  1
  Br  Br21  1  0.451004  0.372080  0.415052  1
  Br  Br22  1  0.543450  0.632748  0.590808  1
  Br  Br23  1  0.949228  0.446639  0.704558  1
  Br  Br24  1  0.051439  0.556380  0.294999  1
  Br  Br25  1  0.219380  0.911933  0.056198  1
  Br  Br26  1  0.782210  0.084707  0.941640  1
  Br  Br27  1  0.382861  0.277887  0.816795  1
  Br  Br28  1  0.617152  0.724852  0.183174  1
