# generated using pymatgen
data_Dy5Cd4PtAu
_symmetry_space_group_name_H-M   'P 1'
_cell_length_a   3.64761200
_cell_length_b   8.07493921
_cell_length_c   18.58354715
_cell_angle_alpha   90.26311076
_cell_angle_beta   90.00000000
_cell_angle_gamma   90.00000000
_symmetry_Int_Tables_number   1
_chemical_formula_structural   Dy5Cd4PtAu
_chemical_formula_sum   'Dy10 Cd8 Pt2 Au2'
_cell_volume   547.35858266
_cell_formula_units_Z   2
loop_
 _symmetry_equiv_pos_site_id
 _symmetry_equiv_pos_as_xyz
  1  'x, y, z'
loop_
 _atom_site_type_symbol
 _atom_site_label
 _atom_site_symmetry_multiplicity
 _atom_site_fract_x
 _atom_site_fract_y
 _atom_site_fract_z
 _atom_site_occupancy
  Dy  Dy0  1  0.000000  0.117035  0.418433  1
  Dy  Dy1  1  0.000000  0.882965  0.581567  1
  Dy  Dy2  1  0.000000  0.386329  0.914728  1
  Dy  Dy3  1  0.000000  0.613671  0.085272  1
  Dy  Dy4  1  0.000000  0.253776  0.216760  1
  Dy  Dy5  1  0.000000  0.746224  0.783240  1
  Dy  Dy6  1  0.000000  0.267919  0.719643  1
  Dy  Dy7  1  0.000000  0.732081  0.280357  1
  Dy  Dy8  1  0.000000  0.000000  0.000000  1
  Dy  Dy9  1  0.000000  0.500000  0.500000  1
  Cd  Cd10  1  0.500000  0.427976  0.353573  1
  Cd  Cd11  1  0.500000  0.572024  0.646427  1
  Cd  Cd12  1  0.500000  0.071336  0.853653  1
  Cd  Cd13  1  0.500000  0.928664  0.146347  1
  Cd  Cd14  1  0.500000  0.286436  0.066728  1
  Cd  Cd15  1  0.500000  0.713564  0.933272  1
  Cd  Cd16  1  0.500000  0.213671  0.567050  1
  Cd  Cd17  1  0.500000  0.786329  0.432950  1
  Pt  Pt18  1  0.500000  0.470966  0.803853  1
  Pt  Pt19  1  0.500000  0.529034  0.196147  1
  Au  Au20  1  0.500000  0.029146  0.302509  1
  Au  Au21  1  0.500000  0.970854  0.697491  1
