# generated using pymatgen
data_Np4Al12Pt
_symmetry_space_group_name_H-M   'P 1'
_cell_length_a   7.50023232
_cell_length_b   7.50023322
_cell_length_c   7.50023300
_cell_angle_alpha   109.47121463
_cell_angle_beta   109.47121707
_cell_angle_gamma   109.47122557
_symmetry_Int_Tables_number   1
_chemical_formula_structural   Np4Al12Pt
_chemical_formula_sum   'Np4 Al12 Pt1'
_cell_volume   324.78979379
_cell_formula_units_Z   1
loop_
 _symmetry_equiv_pos_site_id
 _symmetry_equiv_pos_as_xyz
  1  'x, y, z'
loop_
 _atom_site_type_symbol
 _atom_site_label
 _atom_site_symmetry_multiplicity
 _atom_site_fract_x
 _atom_site_fract_y
 _atom_site_fract_z
 _atom_site_occupancy
  Np  Np0  1  0.500000  0.500000  0.500000  1
  Np  Np1  1  0.000000  0.500000  0.000000  1
  Np  Np2  1  0.000000  0.000000  0.500000  1
  Np  Np3  1  0.500000  0.000000  0.000000  1
  Al  Al4  1  0.750000  0.250000  0.500000  1
  Al  Al5  1  0.000000  0.709433  0.709433  1
  Al  Al6  1  0.290567  0.000000  0.290567  1
  Al  Al7  1  0.500000  0.250000  0.750000  1
  Al  Al8  1  0.750000  0.500000  0.250000  1
  Al  Al9  1  0.250000  0.750000  0.500000  1
  Al  Al10  1  0.250000  0.500000  0.750000  1
  Al  Al11  1  0.709433  0.000000  0.709433  1
  Al  Al12  1  0.500000  0.750000  0.250000  1
  Al  Al13  1  0.709433  0.709433  0.000000  1
  Al  Al14  1  0.290567  0.290567  0.000000  1
  Al  Al15  1  0.000000  0.290567  0.290567  1
  Pt  Pt16  1  0.000000  0.000000  0.000000  1
