# generated using pymatgen
data_Tb11ErIn20
_symmetry_space_group_name_H-M   'P 1'
_cell_length_a   6.53068502
_cell_length_b   10.45306000
_cell_length_c   12.32378111
_cell_angle_alpha   90.00000000
_cell_angle_beta   89.99675259
_cell_angle_gamma   90.00000000
_symmetry_Int_Tables_number   1
_chemical_formula_structural   Tb11ErIn20
_chemical_formula_sum   'Tb11 Er1 In20'
_cell_volume   841.29083246
_cell_formula_units_Z   1
loop_
 _symmetry_equiv_pos_site_id
 _symmetry_equiv_pos_as_xyz
  1  'x, y, z'
loop_
 _atom_site_type_symbol
 _atom_site_label
 _atom_site_symmetry_multiplicity
 _atom_site_fract_x
 _atom_site_fract_y
 _atom_site_fract_z
 _atom_site_occupancy
  Tb  Tb0  1  0.349979  0.750000  0.056563  1
  Tb  Tb1  1  0.150184  0.750000  0.556683  1
  Tb  Tb2  1  0.650156  0.250000  0.943114  1
  Tb  Tb3  1  0.890307  0.493422  0.142255  1
  Tb  Tb4  1  0.609927  0.007002  0.641981  1
  Tb  Tb5  1  0.109426  0.993728  0.857742  1
  Tb  Tb6  1  0.390538  0.506433  0.357758  1
  Tb  Tb7  1  0.109426  0.506272  0.857742  1
  Tb  Tb8  1  0.390538  0.993567  0.357758  1
  Tb  Tb9  1  0.890307  0.006578  0.142255  1
  Tb  Tb10  1  0.609927  0.492998  0.641981  1
  Er  Er11  1  0.849441  0.250000  0.443280  1
  In  In12  1  0.618084  0.750000  0.505296  1
  In  In13  1  0.881852  0.750000  0.005182  1
  In  In14  1  0.383558  0.250000  0.494874  1
  In  In15  1  0.118040  0.250000  0.995058  1
  In  In16  1  0.651856  0.750000  0.246205  1
  In  In17  1  0.848120  0.750000  0.746127  1
  In  In18  1  0.348260  0.250000  0.753575  1
  In  In19  1  0.150825  0.250000  0.254205  1
  In  In20  1  0.124474  0.750000  0.285106  1
  In  In21  1  0.375318  0.750000  0.785274  1
  In  In22  1  0.875426  0.250000  0.714486  1
  In  In23  1  0.624721  0.250000  0.215366  1
  In  In24  1  0.875418  0.543765  0.401522  1
  In  In25  1  0.624551  0.955575  0.901420  1
  In  In26  1  0.124472  0.044586  0.598468  1
  In  In27  1  0.375215  0.455623  0.098659  1
  In  In28  1  0.124472  0.455414  0.598468  1
  In  In29  1  0.375215  0.044377  0.098659  1
  In  In30  1  0.875418  0.956235  0.401522  1
  In  In31  1  0.624551  0.544425  0.901420  1
