# generated using pymatgen
data_Pr10Si5Pd
_symmetry_space_group_name_H-M   'P 1'
_cell_length_a   7.76267330
_cell_length_b   7.76267368
_cell_length_c   9.13992643
_cell_angle_alpha   115.12897489
_cell_angle_beta   115.12898226
_cell_angle_gamma   89.99999723
_symmetry_Int_Tables_number   1
_chemical_formula_structural   Pr10Si5Pd
_chemical_formula_sum   'Pr10 Si5 Pd1'
_cell_volume   440.38106846
_cell_formula_units_Z   1
loop_
 _symmetry_equiv_pos_site_id
 _symmetry_equiv_pos_as_xyz
  1  'x, y, z'
loop_
 _atom_site_type_symbol
 _atom_site_label
 _atom_site_symmetry_multiplicity
 _atom_site_fract_x
 _atom_site_fract_y
 _atom_site_fract_z
 _atom_site_occupancy
  Pr  Pr0  1  0.473322  0.473322  0.946645  1
  Pr  Pr1  1  0.026678  0.026678  0.053355  1
  Pr  Pr2  1  0.957009  0.810282  0.285820  1
  Pr  Pr3  1  0.328811  0.475538  0.285820  1
  Pr  Pr4  1  0.810282  0.328811  0.285820  1
  Pr  Pr5  1  0.475538  0.957009  0.285820  1
  Pr  Pr6  1  0.024462  0.171189  0.714180  1
  Pr  Pr7  1  0.689718  0.542991  0.714180  1
  Pr  Pr8  1  0.171189  0.689718  0.714180  1
  Pr  Pr9  1  0.542991  0.024462  0.714180  1
  Si  Si10  1  0.250000  0.250000  0.500000  1
  Si  Si11  1  0.615064  0.884936  0.000000  1
  Si  Si12  1  0.384936  0.115064  0.000000  1
  Si  Si13  1  0.884936  0.384936  0.000000  1
  Si  Si14  1  0.115064  0.615064  0.000000  1
  Pd  Pd15  1  0.750000  0.750000  0.500000  1
