# generated using pymatgen
data_YbSc(UH6)2
_symmetry_space_group_name_H-M   'P 1'
_cell_length_a   6.49254200
_cell_length_b   6.42770800
_cell_length_c   6.42770800
_cell_angle_alpha   90.00000000
_cell_angle_beta   90.00000000
_cell_angle_gamma   90.00000000
_symmetry_Int_Tables_number   1
_chemical_formula_structural   YbSc(UH6)2
_chemical_formula_sum   'Yb2 Sc2 U4 H24'
_cell_volume   268.24216539
_cell_formula_units_Z   2
loop_
 _symmetry_equiv_pos_site_id
 _symmetry_equiv_pos_as_xyz
  1  'x, y, z'
loop_
 _atom_site_type_symbol
 _atom_site_label
 _atom_site_symmetry_multiplicity
 _atom_site_fract_x
 _atom_site_fract_y
 _atom_site_fract_z
 _atom_site_occupancy
  Yb  Yb0  1  0.250000  0.000000  0.500000  1
  Yb  Yb1  1  0.750000  0.000000  0.500000  1
  Sc  Sc2  1  0.000000  0.000000  0.000000  1
  Sc  Sc3  1  0.500000  0.500000  0.500000  1
  U  U4  1  0.000000  0.500000  0.252073  1
  U  U5  1  0.000000  0.500000  0.747927  1
  U  U6  1  0.500000  0.752073  0.000000  1
  U  U7  1  0.500000  0.247927  0.000000  1
  H  H8  1  0.000000  0.159070  0.282187  1
  H  H9  1  0.500000  0.217813  0.659070  1
  H  H10  1  0.500000  0.782187  0.340930  1
  H  H11  1  0.806942  0.646560  0.500000  1
  H  H12  1  0.193058  0.646560  0.500000  1
  H  H13  1  0.347520  0.500000  0.799547  1
  H  H14  1  0.652480  0.500000  0.799547  1
  H  H15  1  0.306942  0.000000  0.146560  1
  H  H16  1  0.152480  0.299547  0.000000  1
  H  H17  1  0.847520  0.700453  0.000000  1
  H  H18  1  0.306942  0.000000  0.853440  1
  H  H19  1  0.847520  0.299547  0.000000  1
  H  H20  1  0.693058  0.000000  0.146560  1
  H  H21  1  0.693058  0.000000  0.853440  1
  H  H22  1  0.152480  0.700453  0.000000  1
  H  H23  1  0.000000  0.840930  0.717813  1
  H  H24  1  0.000000  0.159070  0.717813  1
  H  H25  1  0.000000  0.840930  0.282187  1
  H  H26  1  0.652480  0.500000  0.200453  1
  H  H27  1  0.347520  0.500000  0.200453  1
  H  H28  1  0.806942  0.353440  0.500000  1
  H  H29  1  0.193058  0.353440  0.500000  1
  H  H30  1  0.500000  0.782187  0.659070  1
  H  H31  1  0.500000  0.217813  0.340930  1
