# generated using pymatgen
data_La12Pr8Si15Ge
_symmetry_space_group_name_H-M   'P 1'
_cell_length_a   7.99569237
_cell_length_b   7.99250278
_cell_length_c   15.48634701
_cell_angle_alpha   90.03565606
_cell_angle_beta   89.98827592
_cell_angle_gamma   90.02566090
_symmetry_Int_Tables_number   1
_chemical_formula_structural   La12Pr8Si15Ge
_chemical_formula_sum   'La12 Pr8 Si15 Ge1'
_cell_volume   989.66388527
_cell_formula_units_Z   1
loop_
 _symmetry_equiv_pos_site_id
 _symmetry_equiv_pos_as_xyz
  1  'x, y, z'
loop_
 _atom_site_type_symbol
 _atom_site_label
 _atom_site_symmetry_multiplicity
 _atom_site_fract_x
 _atom_site_fract_y
 _atom_site_fract_z
 _atom_site_occupancy
  La  La0  1  0.987328  0.619456  0.053356  1
  La  La1  1  0.012412  0.379119  0.554456  1
  La  La2  1  0.619416  0.987712  0.946188  1
  La  La3  1  0.119290  0.512675  0.803733  1
  La  La4  1  0.878404  0.485965  0.302060  1
  La  La5  1  0.512784  0.119445  0.196240  1
  La  La6  1  0.487887  0.880978  0.696696  1
  La  La7  1  0.381717  0.012575  0.446320  1
  La  La8  1  0.689058  0.692749  0.500831  1
  La  La9  1  0.808135  0.192534  0.750141  1
  La  La10  1  0.193662  0.808059  0.248128  1
  La  La11  1  0.307584  0.307637  0.000309  1
  Pr  Pr12  1  0.375405  0.480883  0.373392  1
  Pr  Pr13  1  0.873066  0.020822  0.375739  1
  Pr  Pr14  1  0.981253  0.125865  0.123338  1
  Pr  Pr15  1  0.018266  0.874574  0.623748  1
  Pr  Pr16  1  0.625871  0.518479  0.873421  1
  Pr  Pr17  1  0.481938  0.373195  0.627184  1
  Pr  Pr18  1  0.518772  0.625498  0.126511  1
  Pr  Pr19  1  0.125300  0.981655  0.876965  1
  Si  Si20  1  0.918324  0.287551  0.940886  1
  Si  Si21  1  0.713757  0.081710  0.559165  1
  Si  Si22  1  0.213206  0.418719  0.191145  1
  Si  Si23  1  0.787735  0.581563  0.690944  1
  Si  Si24  1  0.418074  0.212866  0.809579  1
  Si  Si25  1  0.582223  0.786815  0.309233  1
  Si  Si26  1  0.287274  0.918637  0.058695  1
  Si  Si27  1  0.830583  0.804202  0.797343  1
  Si  Si28  1  0.169755  0.196040  0.297177  1
  Si  Si29  1  0.804448  0.830446  0.202690  1
  Si  Si30  1  0.306243  0.668673  0.549165  1
  Si  Si31  1  0.696418  0.330955  0.047282  1
  Si  Si32  1  0.669960  0.304426  0.453136  1
  Si  Si33  1  0.330386  0.695761  0.952679  1
  Si  Si34  1  0.196040  0.169038  0.703107  1
  Ge  Ge35  1  0.078023  0.712724  0.439019  1
