# generated using pymatgen
data_BaMn(Sb4Rh)3
_symmetry_space_group_name_H-M   'P 1'
_cell_length_a   8.13217885
_cell_length_b   8.14138200
_cell_length_c   8.13217838
_cell_angle_alpha   109.49414590
_cell_angle_beta   109.44828546
_cell_angle_gamma   109.49415138
_symmetry_Int_Tables_number   1
_chemical_formula_structural   BaMn(Sb4Rh)3
_chemical_formula_sum   'Ba1 Mn1 Sb12 Rh3'
_cell_volume   414.34974816
_cell_formula_units_Z   1
loop_
 _symmetry_equiv_pos_site_id
 _symmetry_equiv_pos_as_xyz
  1  'x, y, z'
loop_
 _atom_site_type_symbol
 _atom_site_label
 _atom_site_symmetry_multiplicity
 _atom_site_fract_x
 _atom_site_fract_y
 _atom_site_fract_z
 _atom_site_occupancy
  Ba  Ba0  1  0.000000  0.000000  0.000000  1
  Mn  Mn1  1  0.000000  0.500000  0.000000  1
  Sb  Sb2  1  0.842729  0.654935  0.497810  1
  Sb  Sb3  1  0.157271  0.345065  0.502190  1
  Sb  Sb4  1  0.154117  0.654142  0.822440  1
  Sb  Sb5  1  0.845883  0.345858  0.177560  1
  Sb  Sb6  1  0.668322  0.500025  0.845883  1
  Sb  Sb7  1  0.331678  0.499975  0.154117  1
  Sb  Sb8  1  0.655081  0.812207  0.157271  1
  Sb  Sb9  1  0.344919  0.187793  0.842729  1
  Sb  Sb10  1  0.497810  0.842875  0.655081  1
  Sb  Sb11  1  0.502190  0.157125  0.344919  1
  Sb  Sb12  1  0.177560  0.831703  0.331678  1
  Sb  Sb13  1  0.822440  0.168297  0.668322  1
  Rh  Rh14  1  0.500000  0.500000  0.500000  1
  Rh  Rh15  1  0.500000  0.000000  0.000000  1
  Rh  Rh16  1  0.000000  0.000000  0.500000  1
