# generated using pymatgen
data_Tb2HoEr5Al8
_symmetry_space_group_name_H-M   'P 1'
_cell_length_a   5.60191100
_cell_length_b   5.83846063
_cell_length_c   11.37888700
_cell_angle_alpha   90.09848841
_cell_angle_beta   90.00000000
_cell_angle_gamma   90.00000000
_symmetry_Int_Tables_number   1
_chemical_formula_structural   Tb2HoEr5Al8
_chemical_formula_sum   'Tb2 Ho1 Er5 Al8'
_cell_volume   372.16343660
_cell_formula_units_Z   1
loop_
 _symmetry_equiv_pos_site_id
 _symmetry_equiv_pos_as_xyz
  1  'x, y, z'
loop_
 _atom_site_type_symbol
 _atom_site_label
 _atom_site_symmetry_multiplicity
 _atom_site_fract_x
 _atom_site_fract_y
 _atom_site_fract_z
 _atom_site_occupancy
  Tb  Tb0  1  0.750000  0.164030  0.484957  1
  Tb  Tb1  1  0.250000  0.835787  0.515233  1
  Ho  Ho2  1  0.250000  0.161456  0.015480  1
  Er  Er3  1  0.750000  0.837909  0.984017  1
  Er  Er4  1  0.750000  0.398923  0.167981  1
  Er  Er5  1  0.250000  0.602294  0.832155  1
  Er  Er6  1  0.250000  0.398474  0.330784  1
  Er  Er7  1  0.750000  0.601595  0.669319  1
  Al  Al8  1  0.500477  0.932328  0.249283  1
  Al  Al9  1  0.000255  0.067439  0.750665  1
  Al  Al10  1  0.499745  0.067439  0.750665  1
  Al  Al11  1  0.999523  0.932328  0.249283  1
  Al  Al12  1  0.750000  0.660159  0.400779  1
  Al  Al13  1  0.250000  0.339800  0.599322  1
  Al  Al14  1  0.250000  0.660311  0.097936  1
  Al  Al15  1  0.750000  0.339729  0.902140  1
