# generated using pymatgen
data_Tb3Tm(Si2Os)2
_symmetry_space_group_name_H-M   'P 1'
_cell_length_a   5.73570529
_cell_length_b   5.73570569
_cell_length_c   10.04394457
_cell_angle_alpha   116.79222909
_cell_angle_beta   116.79223154
_cell_angle_gamma   43.23851398
_symmetry_Int_Tables_number   1
_chemical_formula_structural   Tb3Tm(Si2Os)2
_chemical_formula_sum   'Tb3 Tm1 Si4 Os2'
_cell_volume   197.96840536
_cell_formula_units_Z   1
loop_
 _symmetry_equiv_pos_site_id
 _symmetry_equiv_pos_as_xyz
  1  'x, y, z'
loop_
 _atom_site_type_symbol
 _atom_site_label
 _atom_site_symmetry_multiplicity
 _atom_site_fract_x
 _atom_site_fract_y
 _atom_site_fract_z
 _atom_site_occupancy
  Tb  Tb0  1  0.813875  0.813875  0.388484  1
  Tb  Tb1  1  0.185932  0.185932  0.610781  1
  Tb  Tb2  1  0.991537  0.991537  0.821127  1
  Tm  Tm3  1  0.006555  0.006555  0.177139  1
  Si  Si4  1  0.643792  0.643792  0.061203  1
  Si  Si5  1  0.503749  0.503749  0.373776  1
  Si  Si6  1  0.498285  0.498285  0.624650  1
  Si  Si7  1  0.355868  0.355868  0.940306  1
  Os  Os8  1  0.270961  0.270961  0.127618  1
  Os  Os9  1  0.729447  0.729447  0.874918  1
