# generated using pymatgen
data_Tb2YHoCuPt3
_symmetry_space_group_name_H-M   'P 1'
_cell_length_a   4.48622300
_cell_length_b   5.62401212
_cell_length_c   7.07663871
_cell_angle_alpha   89.59999705
_cell_angle_beta   90.00000000
_cell_angle_gamma   90.00000000
_symmetry_Int_Tables_number   1
_chemical_formula_structural   Tb2YHoCuPt3
_chemical_formula_sum   'Tb2 Y1 Ho1 Cu1 Pt3'
_cell_volume   178.54329497
_cell_formula_units_Z   1
loop_
 _symmetry_equiv_pos_site_id
 _symmetry_equiv_pos_as_xyz
  1  'x, y, z'
loop_
 _atom_site_type_symbol
 _atom_site_label
 _atom_site_symmetry_multiplicity
 _atom_site_fract_x
 _atom_site_fract_y
 _atom_site_fract_z
 _atom_site_occupancy
  Tb  Tb0  1  0.000000  0.640858  0.316378  1
  Tb  Tb1  1  0.000000  0.856679  0.819187  1
  Y  Y2  1  0.500000  0.363661  0.687096  1
  Ho  Ho3  1  0.500000  0.138236  0.176265  1
  Cu  Cu4  1  0.000000  0.138071  0.462481  1
  Pt  Pt5  1  0.000000  0.339061  0.958295  1
  Pt  Pt6  1  0.500000  0.868248  0.533257  1
  Pt  Pt7  1  0.500000  0.655187  0.047042  1
