# generated using pymatgen
data_Zr5Si12Ni16Mo3
_symmetry_space_group_name_H-M   'P 1'
_cell_length_a   12.22764000
_cell_length_b   12.22764098
_cell_length_c   3.71954600
_cell_angle_alpha   90.00000000
_cell_angle_beta   90.00000000
_cell_angle_gamma   119.99999735
_symmetry_Int_Tables_number   1
_chemical_formula_structural   Zr5Si12Ni16Mo3
_chemical_formula_sum   'Zr5 Si12 Ni16 Mo3'
_cell_volume   481.62153783
_cell_formula_units_Z   1
loop_
 _symmetry_equiv_pos_site_id
 _symmetry_equiv_pos_as_xyz
  1  'x, y, z'
loop_
 _atom_site_type_symbol
 _atom_site_label
 _atom_site_symmetry_multiplicity
 _atom_site_fract_x
 _atom_site_fract_y
 _atom_site_fract_z
 _atom_site_occupancy
  Zr  Zr0  1  0.666667  0.333333  0.000000  1
  Zr  Zr1  1  0.333333  0.666667  0.000000  1
  Zr  Zr2  1  0.819619  0.819619  0.500000  1
  Zr  Zr3  1  0.180381  0.000000  0.500000  1
  Zr  Zr4  1  0.000000  0.180381  0.500000  1
  Si  Si5  1  0.642014  0.642014  0.000000  1
  Si  Si6  1  0.357986  0.000000  0.000000  1
  Si  Si7  1  0.000000  0.357986  0.000000  1
  Si  Si8  1  0.482921  0.316487  0.500000  1
  Si  Si9  1  0.683513  0.166434  0.500000  1
  Si  Si10  1  0.833566  0.517079  0.500000  1
  Si  Si11  1  0.517079  0.833566  0.500000  1
  Si  Si12  1  0.166434  0.683513  0.500000  1
  Si  Si13  1  0.822867  0.000000  0.000000  1
  Si  Si14  1  0.000000  0.822867  0.000000  1
  Si  Si15  1  0.316487  0.482921  0.500000  1
  Si  Si16  1  0.177133  0.177133  0.000000  1
  Ni  Ni17  1  0.195252  0.375086  0.000000  1
  Ni  Ni18  1  0.179834  0.804748  0.000000  1
  Ni  Ni19  1  0.820166  0.624914  0.000000  1
  Ni  Ni20  1  0.804748  0.179834  0.000000  1
  Ni  Ni21  1  0.375086  0.195252  0.000000  1
  Ni  Ni22  1  0.124621  0.477650  0.500000  1
  Ni  Ni23  1  0.353029  0.875379  0.500000  1
  Ni  Ni24  1  0.522350  0.646971  0.500000  1
  Ni  Ni25  1  0.646971  0.522350  0.500000  1
  Ni  Ni26  1  0.875379  0.353029  0.500000  1
  Ni  Ni27  1  0.477650  0.124621  0.500000  1
  Ni  Ni28  1  0.000000  0.000000  0.000000  1
  Ni  Ni29  1  0.722326  0.000000  0.500000  1
  Ni  Ni30  1  0.000000  0.722326  0.500000  1
  Ni  Ni31  1  0.624914  0.820166  0.000000  1
  Ni  Ni32  1  0.277674  0.277674  0.500000  1
  Mo  Mo33  1  0.442130  0.442130  0.000000  1
  Mo  Mo34  1  0.557870  0.000000  0.000000  1
  Mo  Mo35  1  0.000000  0.557870  0.000000  1
