# generated using pymatgen
data_TbTm7(Si4W3)4
_symmetry_space_group_name_H-M   'P 1'
_cell_length_a   6.74216200
_cell_length_b   6.91220114
_cell_length_c   12.86682712
_cell_angle_alpha   90.03696006
_cell_angle_beta   90.00768387
_cell_angle_gamma   90.02750347
_symmetry_Int_Tables_number   1
_chemical_formula_structural   TbTm7(Si4W3)4
_chemical_formula_sum   'Tb1 Tm7 Si16 W12'
_cell_volume   599.63485961
_cell_formula_units_Z   1
loop_
 _symmetry_equiv_pos_site_id
 _symmetry_equiv_pos_as_xyz
  1  'x, y, z'
loop_
 _atom_site_type_symbol
 _atom_site_label
 _atom_site_symmetry_multiplicity
 _atom_site_fract_x
 _atom_site_fract_y
 _atom_site_fract_z
 _atom_site_occupancy
  Tb  Tb0  1  0.995650  0.167399  0.093025  1
  Tm  Tm1  1  0.494629  0.331995  0.093333  1
  Tm  Tm2  1  0.994544  0.168069  0.406619  1
  Tm  Tm3  1  0.505337  0.668112  0.593370  1
  Tm  Tm4  1  0.005664  0.832043  0.906064  1
  Tm  Tm5  1  0.505666  0.667668  0.906185  1
  Tm  Tm6  1  0.005454  0.832061  0.593341  1
  Tm  Tm7  1  0.494604  0.331984  0.407198  1
  Si  Si8  1  0.804148  0.635130  0.749592  1
  Si  Si9  1  0.304367  0.865390  0.749816  1
  Si  Si10  1  0.196859  0.366121  0.250830  1
  Si  Si11  1  0.694729  0.134528  0.250667  1
  Si  Si12  1  0.537157  0.372039  0.749698  1
  Si  Si13  1  0.037317  0.128416  0.749945  1
  Si  Si14  1  0.462505  0.627770  0.250263  1
  Si  Si15  1  0.962128  0.870631  0.250709  1
  Si  Si16  1  0.663180  0.040755  0.546655  1
  Si  Si17  1  0.163280  0.459885  0.952774  1
  Si  Si18  1  0.338736  0.957886  0.046202  1
  Si  Si19  1  0.836752  0.540805  0.453653  1
  Si  Si20  1  0.336479  0.959251  0.453833  1
  Si  Si21  1  0.836316  0.542401  0.046264  1
  Si  Si22  1  0.662594  0.040713  0.952712  1
  Si  Si23  1  0.163109  0.459133  0.546671  1
  W  W24  1  0.668640  0.998502  0.749686  1
  W  W25  1  0.168452  0.501821  0.749736  1
  W  W26  1  0.331874  0.000553  0.250546  1
  W  W27  1  0.831347  0.498832  0.250437  1
  W  W28  1  0.832624  0.336335  0.625020  1
  W  W29  1  0.333096  0.163992  0.874517  1
  W  W30  1  0.167284  0.663678  0.125180  1
  W  W31  1  0.666688  0.835888  0.375317  1
  W  W32  1  0.167459  0.663647  0.375341  1
  W  W33  1  0.666512  0.835457  0.125421  1
  W  W34  1  0.832231  0.337117  0.874237  1
  W  W35  1  0.332592  0.163990  0.625142  1
