# generated using pymatgen
data_Sc4Al4Rh3Au
_symmetry_space_group_name_H-M   'P 1'
_cell_length_a   4.32420300
_cell_length_b   6.44485257
_cell_length_c   7.60564635
_cell_angle_alpha   89.73863699
_cell_angle_beta   90.00000000
_cell_angle_gamma   90.00000000
_symmetry_Int_Tables_number   1
_chemical_formula_structural   Sc4Al4Rh3Au
_chemical_formula_sum   'Sc4 Al4 Rh3 Au1'
_cell_volume   211.95841812
_cell_formula_units_Z   1
loop_
 _symmetry_equiv_pos_site_id
 _symmetry_equiv_pos_as_xyz
  1  'x, y, z'
loop_
 _atom_site_type_symbol
 _atom_site_label
 _atom_site_symmetry_multiplicity
 _atom_site_fract_x
 _atom_site_fract_y
 _atom_site_fract_z
 _atom_site_occupancy
  Sc  Sc0  1  0.250000  0.023496  0.325837  1
  Sc  Sc1  1  0.250000  0.538280  0.181116  1
  Sc  Sc2  1  0.750000  0.972749  0.678457  1
  Sc  Sc3  1  0.750000  0.479543  0.810770  1
  Al  Al4  1  0.250000  0.141313  0.933294  1
  Al  Al5  1  0.250000  0.646678  0.561597  1
  Al  Al6  1  0.750000  0.840731  0.058446  1
  Al  Al7  1  0.750000  0.359423  0.444017  1
  Rh  Rh8  1  0.250000  0.258820  0.614969  1
  Rh  Rh9  1  0.250000  0.753721  0.885693  1
  Rh  Rh10  1  0.750000  0.747398  0.385624  1
  Au  Au11  1  0.750000  0.237848  0.120181  1
