# generated using pymatgen
data_Ba4Nd7PaSe16
_symmetry_space_group_name_H-M   'P 1'
_cell_length_a   4.31876600
_cell_length_b   13.03460120
_cell_length_c   15.53102700
_cell_angle_alpha   89.82016853
_cell_angle_beta   90.00000000
_cell_angle_gamma   90.00000000
_symmetry_Int_Tables_number   1
_chemical_formula_structural   Ba4Nd7PaSe16
_chemical_formula_sum   'Ba4 Nd7 Pa1 Se16'
_cell_volume   874.28989242
_cell_formula_units_Z   1
loop_
 _symmetry_equiv_pos_site_id
 _symmetry_equiv_pos_as_xyz
  1  'x, y, z'
loop_
 _atom_site_type_symbol
 _atom_site_label
 _atom_site_symmetry_multiplicity
 _atom_site_fract_x
 _atom_site_fract_y
 _atom_site_fract_z
 _atom_site_occupancy
  Ba  Ba0  1  0.250000  0.753082  0.336874  1
  Ba  Ba1  1  0.250000  0.258104  0.161345  1
  Ba  Ba2  1  0.750000  0.242269  0.662415  1
  Ba  Ba3  1  0.750000  0.743371  0.837132  1
  Nd  Nd4  1  0.250000  0.427689  0.393734  1
  Nd  Nd5  1  0.250000  0.928046  0.106313  1
  Nd  Nd6  1  0.750000  0.569036  0.608852  1
  Nd  Nd7  1  0.750000  0.072255  0.892776  1
  Nd  Nd8  1  0.250000  0.420384  0.899119  1
  Nd  Nd9  1  0.250000  0.921709  0.602006  1
  Nd  Nd10  1  0.750000  0.578846  0.100947  1
  Pa  Pa11  1  0.750000  0.080725  0.399933  1
  Se  Se12  1  0.250000  0.208534  0.825893  1
  Se  Se13  1  0.250000  0.709175  0.670536  1
  Se  Se14  1  0.750000  0.791981  0.175056  1
  Se  Se15  1  0.750000  0.287440  0.327809  1
  Se  Se16  1  0.250000  0.131095  0.519637  1
  Se  Se17  1  0.250000  0.630560  0.975029  1
  Se  Se18  1  0.750000  0.875568  0.470845  1
  Se  Se19  1  0.750000  0.369127  0.025707  1
  Se  Se20  1  0.250000  0.520068  0.218518  1
  Se  Se21  1  0.250000  0.025737  0.285773  1
  Se  Se22  1  0.750000  0.478393  0.783042  1
  Se  Se23  1  0.750000  0.980027  0.717424  1
  Se  Se24  1  0.250000  0.414269  0.581257  1
  Se  Se25  1  0.250000  0.916482  0.919576  1
  Se  Se26  1  0.750000  0.582927  0.420757  1
  Se  Se27  1  0.750000  0.083106  0.081700  1
