# generated using pymatgen
data_LuZr4Pb3
_symmetry_space_group_name_H-M   'P 1'
_cell_length_a   8.74902400
_cell_length_b   8.69941986
_cell_length_c   5.95368900
_cell_angle_alpha   90.00000000
_cell_angle_beta   90.00000000
_cell_angle_gamma   120.18880837
_symmetry_Int_Tables_number   1
_chemical_formula_structural   LuZr4Pb3
_chemical_formula_sum   'Lu2 Zr8 Pb6'
_cell_volume   391.68528641
_cell_formula_units_Z   2
loop_
 _symmetry_equiv_pos_site_id
 _symmetry_equiv_pos_as_xyz
  1  'x, y, z'
loop_
 _atom_site_type_symbol
 _atom_site_label
 _atom_site_symmetry_multiplicity
 _atom_site_fract_x
 _atom_site_fract_y
 _atom_site_fract_z
 _atom_site_occupancy
  Lu  Lu0  1  0.763005  0.760800  0.250000  1
  Lu  Lu1  1  0.002205  0.239200  0.250000  1
  Zr  Zr2  1  0.752749  0.000000  0.750000  1
  Zr  Zr3  1  0.331915  0.667132  0.500823  1
  Zr  Zr4  1  0.248886  0.000000  0.250000  1
  Zr  Zr5  1  0.664784  0.332868  0.500823  1
  Zr  Zr6  1  0.999857  0.758480  0.750000  1
  Zr  Zr7  1  0.331915  0.667132  0.999177  1
  Zr  Zr8  1  0.241377  0.241520  0.750000  1
  Zr  Zr9  1  0.664784  0.332868  0.999177  1
  Pb  Pb10  1  0.608137  0.608932  0.750000  1
  Pb  Pb11  1  0.389580  0.000000  0.750000  1
  Pb  Pb12  1  0.605480  0.000000  0.250000  1
  Pb  Pb13  1  0.999205  0.391068  0.750000  1
  Pb  Pb14  1  0.394806  0.393491  0.250000  1
  Pb  Pb15  1  0.001315  0.606509  0.250000  1
