# generated using pymatgen
data_BaCrTeO6
_symmetry_space_group_name_H-M   'P 1'
_cell_length_a   5.26927884
_cell_length_b   5.17769532
_cell_length_c   11.66917083
_cell_angle_alpha   88.84756790
_cell_angle_beta   90.54544072
_cell_angle_gamma   119.40443562
_symmetry_Int_Tables_number   1
_chemical_formula_structural   BaCrTeO6
_chemical_formula_sum   'Ba2 Cr2 Te2 O12'
_cell_volume   277.29726320
_cell_formula_units_Z   2
loop_
 _symmetry_equiv_pos_site_id
 _symmetry_equiv_pos_as_xyz
  1  'x, y, z'
loop_
 _atom_site_type_symbol
 _atom_site_label
 _atom_site_symmetry_multiplicity
 _atom_site_fract_x
 _atom_site_fract_y
 _atom_site_fract_z
 _atom_site_occupancy
  Ba  Ba0  1  0.000000  0.000000  0.000000  1
  Ba  Ba1  1  0.000000  0.000000  0.500000  1
  Cr  Cr2  1  0.319031  0.659798  0.250053  1
  Cr  Cr3  1  0.680969  0.340202  0.749947  1
  Te  Te4  1  0.665888  0.332959  0.250004  1
  Te  Te5  1  0.334112  0.667041  0.749996  1
  O  O6  1  0.607919  0.608797  0.153894  1
  O  O7  1  0.397615  0.997335  0.154512  1
  O  O8  1  0.998586  0.389402  0.155727  1
  O  O9  1  0.998605  0.609064  0.344268  1
  O  O10  1  0.397559  0.400200  0.345511  1
  O  O11  1  0.607958  0.999174  0.346153  1
  O  O12  1  0.001395  0.390936  0.655732  1
  O  O13  1  0.392042  0.000826  0.653847  1
  O  O14  1  0.602441  0.599800  0.654490  1
  O  O15  1  0.602387  0.002665  0.845487  1
  O  O16  1  0.392083  0.391203  0.846106  1
  O  O17  1  0.001416  0.610598  0.844273  1
