# generated using pymatgen
data_Hf5ScBe2(As2Ru3)2
_symmetry_space_group_name_H-M   'P 1'
_cell_length_a   7.61623405
_cell_length_b   7.61409322
_cell_length_c   7.61623520
_cell_angle_alpha   127.74313586
_cell_angle_beta   123.39351228
_cell_angle_gamma   80.65480601
_symmetry_Int_Tables_number   1
_chemical_formula_structural   Hf5ScBe2(As2Ru3)2
_chemical_formula_sum   'Hf5 Sc1 Be2 As4 Ru6'
_cell_volume   281.22592969
_cell_formula_units_Z   1
loop_
 _symmetry_equiv_pos_site_id
 _symmetry_equiv_pos_as_xyz
  1  'x, y, z'
loop_
 _atom_site_type_symbol
 _atom_site_label
 _atom_site_symmetry_multiplicity
 _atom_site_fract_x
 _atom_site_fract_y
 _atom_site_fract_z
 _atom_site_occupancy
  Hf  Hf0  1  0.554384  0.254214  0.199829  1
  Hf  Hf1  1  0.750669  0.863248  0.612579  1
  Hf  Hf2  1  0.250004  0.861602  0.111597  1
  Hf  Hf3  1  0.054474  0.253822  0.699348  1
  Hf  Hf4  1  0.945420  0.644291  0.198871  1
  Sc  Sc5  1  0.447157  0.647439  0.700282  1
  Be  Be6  1  0.251358  0.255546  0.504189  1
  Be  Be7  1  0.749404  0.252941  0.003538  1
  As  As8  1  0.333319  0.586673  0.254934  1
  As  As9  1  0.665863  0.918258  0.250569  1
  As  As10  1  0.167689  0.918258  0.752395  1
  As  As11  1  0.831740  0.586673  0.753355  1
  Ru  Ru12  1  0.500331  0.492321  0.994172  1
  Ru  Ru13  1  0.998149  0.492321  0.491990  1
  Ru  Ru14  1  0.116988  0.251741  0.129738  1
  Ru  Ru15  1  0.882868  0.014255  0.136075  1
  Ru  Ru16  1  0.378179  0.014255  0.631388  1
  Ru  Ru17  1  0.622004  0.251741  0.634753  1
