# generated using pymatgen
data_RbNdTiS4
_symmetry_space_group_name_H-M   'P 1'
_cell_length_a   6.80010821
_cell_length_b   6.84428600
_cell_length_c   9.19766378
_cell_angle_alpha   90.00000000
_cell_angle_beta   108.00699892
_cell_angle_gamma   90.00000000
_symmetry_Int_Tables_number   1
_chemical_formula_structural   RbNdTiS4
_chemical_formula_sum   'Rb2 Nd2 Ti2 S8'
_cell_volume   407.10889093
_cell_formula_units_Z   2
loop_
 _symmetry_equiv_pos_site_id
 _symmetry_equiv_pos_as_xyz
  1  'x, y, z'
loop_
 _atom_site_type_symbol
 _atom_site_label
 _atom_site_symmetry_multiplicity
 _atom_site_fract_x
 _atom_site_fract_y
 _atom_site_fract_z
 _atom_site_occupancy
  Rb  Rb0  1  0.276690  0.016384  0.066831  1
  Rb  Rb1  1  0.723311  0.516384  0.933168  1
  Nd  Nd2  1  0.777847  0.491110  0.451148  1
  Nd  Nd3  1  0.222153  0.991110  0.548853  1
  Ti  Ti4  1  0.226826  0.525210  0.327300  1
  Ti  Ti5  1  0.773174  0.025210  0.672699  1
  S  S6  1  0.429577  0.524859  0.175131  1
  S  S7  1  0.983241  0.762018  0.285130  1
  S  S8  1  0.017786  0.256966  0.306753  1
  S  S9  1  0.568914  0.090455  0.434714  1
  S  S10  1  0.431087  0.590455  0.565287  1
  S  S11  1  0.982214  0.756966  0.693247  1
  S  S12  1  0.016758  0.262018  0.714869  1
  S  S13  1  0.570423  0.024859  0.824870  1
