# generated using pymatgen
data_Ba19SrAu16
_symmetry_space_group_name_H-M   'P 1'
_cell_length_a   8.71866100
_cell_length_b   8.89022706
_cell_length_c   17.10722600
_cell_angle_alpha   90.00000000
_cell_angle_beta   90.00000000
_cell_angle_gamma   89.83235105
_symmetry_Int_Tables_number   1
_chemical_formula_structural   Ba19SrAu16
_chemical_formula_sum   'Ba19 Sr1 Au16'
_cell_volume   1325.99039559
_cell_formula_units_Z   1
loop_
 _symmetry_equiv_pos_site_id
 _symmetry_equiv_pos_as_xyz
  1  'x, y, z'
loop_
 _atom_site_type_symbol
 _atom_site_label
 _atom_site_symmetry_multiplicity
 _atom_site_fract_x
 _atom_site_fract_y
 _atom_site_fract_z
 _atom_site_occupancy
  Ba  Ba0  1  0.026336  0.172797  0.396275  1
  Ba  Ba1  1  0.865642  0.663946  0.380856  1
  Ba  Ba2  1  0.527943  0.326177  0.103352  1
  Ba  Ba3  1  0.133228  0.337210  0.616425  1
  Ba  Ba4  1  0.366613  0.837619  0.381080  1
  Ba  Ba5  1  0.133228  0.337210  0.883575  1
  Ba  Ba6  1  0.366613  0.837619  0.118920  1
  Ba  Ba7  1  0.204234  0.490597  0.250000  1
  Ba  Ba8  1  0.527943  0.326177  0.396648  1
  Ba  Ba9  1  0.795458  0.507265  0.750000  1
  Ba  Ba10  1  0.974888  0.825309  0.899466  1
  Ba  Ba11  1  0.974888  0.825309  0.600534  1
  Ba  Ba12  1  0.473401  0.671506  0.601137  1
  Ba  Ba13  1  0.633422  0.162269  0.615623  1
  Ba  Ba14  1  0.296326  0.991829  0.750000  1
  Ba  Ba15  1  0.633422  0.162269  0.884377  1
  Ba  Ba16  1  0.865642  0.663946  0.119144  1
  Ba  Ba17  1  0.473401  0.671506  0.898863  1
  Ba  Ba18  1  0.026336  0.172797  0.103725  1
  Sr  Sr19  1  0.704464  0.008790  0.250000  1
  Au  Au20  1  0.813059  0.365087  0.250000  1
  Au  Au21  1  0.423557  0.386119  0.750000  1
  Au  Au22  1  0.681938  0.873046  0.750000  1
  Au  Au23  1  0.792573  0.479894  0.548123  1
  Au  Au24  1  0.707475  0.981752  0.053792  1
  Au  Au25  1  0.792573  0.479894  0.951877  1
  Au  Au26  1  0.208095  0.521555  0.449879  1
  Au  Au27  1  0.208095  0.521555  0.050121  1
  Au  Au28  1  0.181619  0.627747  0.750000  1
  Au  Au29  1  0.326864  0.126766  0.250000  1
  Au  Au30  1  0.577043  0.616391  0.250000  1
  Au  Au31  1  0.068478  0.892085  0.250000  1
  Au  Au32  1  0.292298  0.020498  0.951840  1
  Au  Au33  1  0.923131  0.113207  0.750000  1
  Au  Au34  1  0.707475  0.981752  0.446208  1
  Au  Au35  1  0.292298  0.020498  0.548160  1
