# generated using pymatgen
data_Na4TbUTe6
_symmetry_space_group_name_H-M   'P 1'
_cell_length_a   7.76794512
_cell_length_b   7.76794454
_cell_length_c   7.93195026
_cell_angle_alpha   80.48767390
_cell_angle_beta   80.48768350
_cell_angle_gamma   120.03175230
_symmetry_Int_Tables_number   1
_chemical_formula_structural   Na4TbUTe6
_chemical_formula_sum   'Na4 Tb1 U1 Te6'
_cell_volume   391.05500943
_cell_formula_units_Z   1
loop_
 _symmetry_equiv_pos_site_id
 _symmetry_equiv_pos_as_xyz
  1  'x, y, z'
loop_
 _atom_site_type_symbol
 _atom_site_label
 _atom_site_symmetry_multiplicity
 _atom_site_fract_x
 _atom_site_fract_y
 _atom_site_fract_z
 _atom_site_occupancy
  Na  Na0  1  0.341398  0.658602  0.500000  1
  Na  Na1  1  0.658199  0.341801  0.500000  1
  Na  Na2  1  0.999781  0.000219  0.500000  1
  Na  Na3  1  0.499982  0.500018  0.000000  1
  Tb  Tb4  1  0.167611  0.832389  0.000000  1
  U  U5  1  0.832393  0.167607  0.000000  1
  Te  Te6  1  0.770862  0.778322  0.232640  1
  Te  Te7  1  0.429142  0.071099  0.233818  1
  Te  Te8  1  0.062952  0.412901  0.232135  1
  Te  Te9  1  0.587099  0.937048  0.767865  1
  Te  Te10  1  0.928901  0.570858  0.766182  1
  Te  Te11  1  0.221678  0.229138  0.767360  1
