# generated using pymatgen
data_NdThMn2Co10P7
_symmetry_space_group_name_H-M   'P 1'
_cell_length_a   9.11361603
_cell_length_b   9.09830304
_cell_length_c   3.67580800
_cell_angle_alpha   90.00000000
_cell_angle_beta   90.00000000
_cell_angle_gamma   120.02790787
_symmetry_Int_Tables_number   1
_chemical_formula_structural   NdThMn2Co10P7
_chemical_formula_sum   'Nd1 Th1 Mn2 Co10 P7'
_cell_volume   263.88358453
_cell_formula_units_Z   1
loop_
 _symmetry_equiv_pos_site_id
 _symmetry_equiv_pos_as_xyz
  1  'x, y, z'
loop_
 _atom_site_type_symbol
 _atom_site_label
 _atom_site_symmetry_multiplicity
 _atom_site_fract_x
 _atom_site_fract_y
 _atom_site_fract_z
 _atom_site_occupancy
  Nd  Nd0  1  0.333042  0.665825  0.000000  1
  Th  Th1  1  0.999284  0.999398  0.500000  1
  Mn  Mn2  1  0.765728  0.548550  0.500000  1
  Mn  Mn3  1  0.448689  0.213195  0.500000  1
  Co  Co4  1  0.035498  0.272012  0.000000  1
  Co  Co5  1  0.729936  0.766512  0.000000  1
  Co  Co6  1  0.234717  0.964215  0.000000  1
  Co  Co7  1  0.546968  0.060451  0.000000  1
  Co  Co8  1  0.937603  0.483262  0.000000  1
  Co  Co9  1  0.513026  0.453924  0.000000  1
  Co  Co10  1  0.619251  0.902849  0.500000  1
  Co  Co11  1  0.099209  0.716090  0.500000  1
  Co  Co12  1  0.282084  0.382477  0.500000  1
  Co  Co13  1  0.790804  0.237440  0.500000  1
  P  P14  1  0.770658  0.035875  0.000000  1
  P  P15  1  0.965971  0.735713  0.000000  1
  P  P16  1  0.263488  0.229535  0.000000  1
  P  P17  1  0.375131  0.933856  0.500000  1
  P  P18  1  0.064751  0.441327  0.500000  1
  P  P19  1  0.559301  0.625338  0.500000  1
  P  P20  1  0.664862  0.332154  0.000000  1
