# generated using pymatgen
data_Er15TmMgCo4Ag3
_symmetry_space_group_name_H-M   'P 1'
_cell_length_a   9.33678365
_cell_length_b   9.34732629
_cell_length_c   9.34296300
_cell_angle_alpha   60.01544379
_cell_angle_beta   59.97810801
_cell_angle_gamma   60.00466979
_symmetry_Int_Tables_number   1
_chemical_formula_structural   Er15TmMgCo4Ag3
_chemical_formula_sum   'Er15 Tm1 Mg1 Co4 Ag3'
_cell_volume   576.56515829
_cell_formula_units_Z   1
loop_
 _symmetry_equiv_pos_site_id
 _symmetry_equiv_pos_as_xyz
  1  'x, y, z'
loop_
 _atom_site_type_symbol
 _atom_site_label
 _atom_site_symmetry_multiplicity
 _atom_site_fract_x
 _atom_site_fract_y
 _atom_site_fract_z
 _atom_site_occupancy
  Er  Er0  1  0.346430  0.345442  0.345675  1
  Er  Er1  1  0.346430  0.345442  0.962454  1
  Er  Er2  1  0.346197  0.962411  0.345697  1
  Er  Er3  1  0.951837  0.349019  0.349572  1
  Er  Er4  1  0.809446  0.189295  0.189735  1
  Er  Er5  1  0.185793  0.813769  0.813379  1
  Er  Er6  1  0.185793  0.813769  0.187060  1
  Er  Er7  1  0.809446  0.189295  0.811523  1
  Er  Er8  1  0.185897  0.186719  0.813693  1
  Er  Er9  1  0.809325  0.811734  0.189470  1
  Er  Er10  1  0.935027  0.563197  0.562897  1
  Er  Er11  1  0.562900  0.936818  0.936569  1
  Er  Er12  1  0.562900  0.936818  0.563713  1
  Er  Er13  1  0.935027  0.563197  0.938878  1
  Er  Er14  1  0.562458  0.563695  0.936924  1
  Tm  Tm15  1  0.935056  0.939569  0.562687  1
  Mg  Mg16  1  0.288689  0.570526  0.570391  1
  Co  Co17  1  0.138117  0.142511  0.142853  1
  Co  Co18  1  0.138117  0.142511  0.576519  1
  Co  Co19  1  0.138217  0.576634  0.142575  1
  Co  Co20  1  0.576068  0.141322  0.141305  1
  Ag  Ag21  1  0.583447  0.582765  0.582736  1
  Ag  Ag22  1  0.583447  0.582765  0.251050  1
  Ag  Ag23  1  0.583936  0.250776  0.582644  1
