# generated using pymatgen
data_Na3Lu(BO3)2
_symmetry_space_group_name_H-M   'P 1'
_cell_length_a   9.25922600
_cell_length_b   5.18301862
_cell_length_c   7.23032179
_cell_angle_alpha   56.85760925
_cell_angle_beta   90.00000000
_cell_angle_gamma   90.00000000
_symmetry_Int_Tables_number   1
_chemical_formula_structural   Na3Lu(BO3)2
_chemical_formula_sum   'Na6 Lu2 B4 O12'
_cell_volume   290.53848382
_cell_formula_units_Z   2
loop_
 _symmetry_equiv_pos_site_id
 _symmetry_equiv_pos_as_xyz
  1  'x, y, z'
loop_
 _atom_site_type_symbol
 _atom_site_label
 _atom_site_symmetry_multiplicity
 _atom_site_fract_x
 _atom_site_fract_y
 _atom_site_fract_z
 _atom_site_occupancy
  Na  Na0  1  0.500000  0.000000  0.000000  1
  Na  Na1  1  0.000000  0.000000  0.500000  1
  Na  Na2  1  0.832164  0.260233  0.735858  1
  Na  Na3  1  0.332164  0.739767  0.764142  1
  Na  Na4  1  0.167836  0.739767  0.264142  1
  Na  Na5  1  0.667836  0.260233  0.235858  1
  Lu  Lu6  1  0.500000  0.500000  0.500000  1
  Lu  Lu7  1  0.000000  0.500000  0.000000  1
  B  B8  1  0.668995  0.771353  0.740479  1
  B  B9  1  0.168995  0.228647  0.759521  1
  B  B10  1  0.331005  0.228647  0.259521  1
  B  B11  1  0.831005  0.771353  0.240479  1
  O  O12  1  0.585381  0.524430  0.778620  1
  O  O13  1  0.085381  0.475570  0.721380  1
  O  O14  1  0.414619  0.475570  0.221380  1
  O  O15  1  0.914619  0.524430  0.278620  1
  O  O16  1  0.607354  0.057374  0.659450  1
  O  O17  1  0.107354  0.942626  0.840550  1
  O  O18  1  0.392646  0.942626  0.340550  1
  O  O19  1  0.892646  0.057374  0.159450  1
  O  O20  1  0.816150  0.735539  0.784327  1
  O  O21  1  0.316150  0.264461  0.715673  1
  O  O22  1  0.183850  0.264461  0.215673  1
  O  O23  1  0.683850  0.735539  0.284327  1
