# generated using pymatgen
data_Er7Pa(InCo)2
_symmetry_space_group_name_H-M   'P 1'
_cell_length_a   9.45341704
_cell_length_b   9.45341723
_cell_length_c   9.58544600
_cell_angle_alpha   59.53691473
_cell_angle_beta   59.53691408
_cell_angle_gamma   59.79539692
_symmetry_Int_Tables_number   1
_chemical_formula_structural   Er7Pa(InCo)2
_chemical_formula_sum   'Er14 Pa2 In4 Co4'
_cell_volume   600.52746267
_cell_formula_units_Z   2
loop_
 _symmetry_equiv_pos_site_id
 _symmetry_equiv_pos_as_xyz
  1  'x, y, z'
loop_
 _atom_site_type_symbol
 _atom_site_label
 _atom_site_symmetry_multiplicity
 _atom_site_fract_x
 _atom_site_fract_y
 _atom_site_fract_z
 _atom_site_occupancy
  Er  Er0  1  0.600624  0.202140  0.598618  1
  Er  Er1  1  0.202140  0.600624  0.598618  1
  Er  Er2  1  0.060403  0.439504  0.438690  1
  Er  Er3  1  0.439504  0.060403  0.061403  1
  Er  Er4  1  0.439504  0.060403  0.438690  1
  Er  Er5  1  0.060403  0.439504  0.061403  1
  Er  Er6  1  0.439158  0.439158  0.060842  1
  Er  Er7  1  0.063335  0.063335  0.436665  1
  Er  Er8  1  0.188589  0.809705  0.814423  1
  Er  Er9  1  0.809705  0.188589  0.187283  1
  Er  Er10  1  0.809705  0.188589  0.814423  1
  Er  Er11  1  0.188589  0.809705  0.187283  1
  Er  Er12  1  0.806407  0.806407  0.193593  1
  Er  Er13  1  0.184745  0.184745  0.815255  1
  Pa  Pa14  1  0.583694  0.583694  0.597088  1
  Pa  Pa15  1  0.583694  0.583694  0.235524  1
  In  In16  1  0.832025  0.832025  0.835869  1
  In  In17  1  0.832025  0.832025  0.500080  1
  In  In18  1  0.832433  0.501681  0.832943  1
  In  In19  1  0.501681  0.832433  0.832943  1
  Co  Co20  1  0.407240  0.407240  0.372587  1
  Co  Co21  1  0.407240  0.407240  0.812934  1
  Co  Co22  1  0.417956  0.809201  0.386421  1
  Co  Co23  1  0.809201  0.417956  0.386421  1
