# generated using pymatgen
data_Ti8ReSi6MoC2
_symmetry_space_group_name_H-M   'P 1'
_cell_length_a   7.42401800
_cell_length_b   7.42401870
_cell_length_c   5.15177300
_cell_angle_alpha   90.00000000
_cell_angle_beta   90.00000000
_cell_angle_gamma   119.99999686
_symmetry_Int_Tables_number   1
_chemical_formula_structural   Ti8ReSi6MoC2
_chemical_formula_sum   'Ti8 Re1 Si6 Mo1 C2'
_cell_volume   245.90391193
_cell_formula_units_Z   1
loop_
 _symmetry_equiv_pos_site_id
 _symmetry_equiv_pos_as_xyz
  1  'x, y, z'
loop_
 _atom_site_type_symbol
 _atom_site_label
 _atom_site_symmetry_multiplicity
 _atom_site_fract_x
 _atom_site_fract_y
 _atom_site_fract_z
 _atom_site_occupancy
  Ti  Ti0  1  0.666667  0.333333  0.500000  1
  Ti  Ti1  1  0.333333  0.666667  0.500000  1
  Ti  Ti2  1  0.231227  0.999954  0.252633  1
  Ti  Ti3  1  0.768727  0.999954  0.747367  1
  Ti  Ti4  1  0.000046  0.231273  0.252633  1
  Ti  Ti5  1  0.000046  0.768773  0.747367  1
  Ti  Ti6  1  0.768727  0.768773  0.252633  1
  Ti  Ti7  1  0.231227  0.231273  0.747367  1
  Re  Re8  1  0.666667  0.333333  0.000000  1
  Si  Si9  1  0.593913  0.000901  0.238994  1
  Si  Si10  1  0.406988  0.000901  0.761006  1
  Si  Si11  1  0.999099  0.593012  0.238994  1
  Si  Si12  1  0.999099  0.406087  0.761006  1
  Si  Si13  1  0.406988  0.406087  0.238994  1
  Si  Si14  1  0.593913  0.593012  0.761006  1
  Mo  Mo15  1  0.333333  0.666667  0.000000  1
  C  C16  1  0.000000  0.000000  0.000000  1
  C  C17  1  0.000000  0.000000  0.500000  1
