# generated using pymatgen
data_HoEr5Sc4(In2Rh)4
_symmetry_space_group_name_H-M   'P 1'
_cell_length_a   3.52574500
_cell_length_b   7.86467904
_cell_length_c   17.91183209
_cell_angle_alpha   89.98870175
_cell_angle_beta   90.00000000
_cell_angle_gamma   90.00000000
_symmetry_Int_Tables_number   1
_chemical_formula_structural   HoEr5Sc4(In2Rh)4
_chemical_formula_sum   'Ho1 Er5 Sc4 In8 Rh4'
_cell_volume   496.67454559
_cell_formula_units_Z   1
loop_
 _symmetry_equiv_pos_site_id
 _symmetry_equiv_pos_as_xyz
  1  'x, y, z'
loop_
 _atom_site_type_symbol
 _atom_site_label
 _atom_site_symmetry_multiplicity
 _atom_site_fract_x
 _atom_site_fract_y
 _atom_site_fract_z
 _atom_site_occupancy
  Ho  Ho0  1  0.000000  0.000000  0.000000  1
  Er  Er1  1  0.000000  0.500000  0.500000  1
  Er  Er2  1  0.000000  0.748327  0.781937  1
  Er  Er3  1  0.000000  0.251673  0.218063  1
  Er  Er4  1  0.000000  0.248193  0.718055  1
  Er  Er5  1  0.000000  0.751807  0.281945  1
  Sc  Sc6  1  0.000000  0.877479  0.588698  1
  Sc  Sc7  1  0.000000  0.122521  0.411302  1
  Sc  Sc8  1  0.000000  0.377523  0.911278  1
  Sc  Sc9  1  0.000000  0.622477  0.088722  1
  In  In10  1  0.500000  0.808752  0.438182  1
  In  In11  1  0.500000  0.191248  0.561818  1
  In  In12  1  0.500000  0.308997  0.061898  1
  In  In13  1  0.500000  0.691003  0.938102  1
  In  In14  1  0.500000  0.925669  0.149649  1
  In  In15  1  0.500000  0.074331  0.850351  1
  In  In16  1  0.500000  0.425775  0.350511  1
  In  In17  1  0.500000  0.574225  0.649489  1
  Rh  Rh18  1  0.500000  0.962961  0.692763  1
  Rh  Rh19  1  0.500000  0.037039  0.307237  1
  Rh  Rh20  1  0.500000  0.462975  0.807233  1
  Rh  Rh21  1  0.500000  0.537025  0.192767  1
