# generated using pymatgen
data_Hf3Nb2Si2GeC
_symmetry_space_group_name_H-M   'P 1'
_cell_length_a   7.80876300
_cell_length_b   7.79930669
_cell_length_c   5.46965400
_cell_angle_alpha   90.00000000
_cell_angle_beta   90.00000000
_cell_angle_gamma   120.04011158
_symmetry_Int_Tables_number   1
_chemical_formula_structural   Hf3Nb2Si2GeC
_chemical_formula_sum   'Hf6 Nb4 Si4 Ge2 C2'
_cell_volume   288.37197141
_cell_formula_units_Z   2
loop_
 _symmetry_equiv_pos_site_id
 _symmetry_equiv_pos_as_xyz
  1  'x, y, z'
loop_
 _atom_site_type_symbol
 _atom_site_label
 _atom_site_symmetry_multiplicity
 _atom_site_fract_x
 _atom_site_fract_y
 _atom_site_fract_z
 _atom_site_occupancy
  Hf  Hf0  1  0.233236  0.000000  0.250000  1
  Hf  Hf1  1  0.766764  0.000000  0.750000  1
  Hf  Hf2  1  0.002471  0.237190  0.250000  1
  Hf  Hf3  1  0.997529  0.762810  0.750000  1
  Hf  Hf4  1  0.765281  0.762810  0.250000  1
  Hf  Hf5  1  0.234719  0.237190  0.750000  1
  Nb  Nb6  1  0.330837  0.661674  0.000000  1
  Nb  Nb7  1  0.669163  0.338326  0.000000  1
  Nb  Nb8  1  0.669163  0.338326  0.500000  1
  Nb  Nb9  1  0.330837  0.661674  0.500000  1
  Si  Si10  1  0.001145  0.593311  0.250000  1
  Si  Si11  1  0.998855  0.406689  0.750000  1
  Si  Si12  1  0.407833  0.406689  0.250000  1
  Si  Si13  1  0.592167  0.593311  0.750000  1
  Ge  Ge14  1  0.594667  0.000000  0.250000  1
  Ge  Ge15  1  0.405333  0.000000  0.750000  1
  C  C16  1  0.000000  0.000000  0.000000  1
  C  C17  1  0.000000  0.000000  0.500000  1
