# generated using pymatgen
data_Ta4Al3Zn5
_symmetry_space_group_name_H-M   'P 1'
_cell_length_a   5.04453458
_cell_length_b   5.04453548
_cell_length_c   8.33074400
_cell_angle_alpha   90.00000000
_cell_angle_beta   90.00000000
_cell_angle_gamma   120.39900456
_symmetry_Int_Tables_number   1
_chemical_formula_structural   Ta4Al3Zn5
_chemical_formula_sum   'Ta4 Al3 Zn5'
_cell_volume   182.85064079
_cell_formula_units_Z   1
loop_
 _symmetry_equiv_pos_site_id
 _symmetry_equiv_pos_as_xyz
  1  'x, y, z'
loop_
 _atom_site_type_symbol
 _atom_site_label
 _atom_site_symmetry_multiplicity
 _atom_site_fract_x
 _atom_site_fract_y
 _atom_site_fract_z
 _atom_site_occupancy
  Ta  Ta0  1  0.332599  0.667401  0.434241  1
  Ta  Ta1  1  0.669749  0.330251  0.563326  1
  Ta  Ta2  1  0.669749  0.330251  0.936674  1
  Ta  Ta3  1  0.332599  0.667401  0.065759  1
  Al  Al4  1  0.002176  0.997824  0.503488  1
  Al  Al5  1  0.002176  0.997824  0.996512  1
  Al  Al6  1  0.823610  0.176390  0.250000  1
  Zn  Zn7  1  0.826533  0.661448  0.250000  1
  Zn  Zn8  1  0.338552  0.173467  0.250000  1
  Zn  Zn9  1  0.173273  0.826727  0.750000  1
  Zn  Zn10  1  0.173457  0.344472  0.750000  1
  Zn  Zn11  1  0.655528  0.826543  0.750000  1
