# generated using pymatgen
data_Y2Ho(InAu)3
_symmetry_space_group_name_H-M   'P 1'
_cell_length_a   7.77968786
_cell_length_b   7.80320322
_cell_length_c   3.98115100
_cell_angle_alpha   90.00000000
_cell_angle_beta   90.00000000
_cell_angle_gamma   120.10004666
_symmetry_Int_Tables_number   1
_chemical_formula_structural   Y2Ho(InAu)3
_chemical_formula_sum   'Y2 Ho1 In3 Au3'
_cell_volume   209.09115441
_cell_formula_units_Z   1
loop_
 _symmetry_equiv_pos_site_id
 _symmetry_equiv_pos_as_xyz
  1  'x, y, z'
loop_
 _atom_site_type_symbol
 _atom_site_label
 _atom_site_symmetry_multiplicity
 _atom_site_fract_x
 _atom_site_fract_y
 _atom_site_fract_z
 _atom_site_occupancy
  Y  Y0  1  0.596518  0.999730  0.500000  1
  Y  Y1  1  0.403482  0.403212  0.500000  1
  Ho  Ho2  1  0.000000  0.597006  0.500000  1
  In  In3  1  0.000000  0.261056  0.000000  1
  In  In4  1  0.261481  0.999453  0.000000  1
  In  In5  1  0.738519  0.737972  0.000000  1
  Au  Au6  1  0.000000  0.999087  0.500000  1
  Au  Au7  1  0.669606  0.336044  0.000000  1
  Au  Au8  1  0.330394  0.666440  0.000000  1
