# generated using pymatgen
data_La7Pr(W2C3)4
_symmetry_space_group_name_H-M   'P 1'
_cell_length_a   6.76926459
_cell_length_b   6.01418342
_cell_length_c   12.02068400
_cell_angle_alpha   68.56337331
_cell_angle_beta   90.03929039
_cell_angle_gamma   89.99178108
_symmetry_Int_Tables_number   1
_chemical_formula_structural   La7Pr(W2C3)4
_chemical_formula_sum   'La7 Pr1 W8 C12'
_cell_volume   455.52688418
_cell_formula_units_Z   1
loop_
 _symmetry_equiv_pos_site_id
 _symmetry_equiv_pos_as_xyz
  1  'x, y, z'
loop_
 _atom_site_type_symbol
 _atom_site_label
 _atom_site_symmetry_multiplicity
 _atom_site_fract_x
 _atom_site_fract_y
 _atom_site_fract_z
 _atom_site_occupancy
  La  La0  1  0.279055  0.325674  0.592192  1
  La  La1  1  0.221623  0.327549  0.092463  1
  La  La2  1  0.721231  0.673165  0.407581  1
  La  La3  1  0.996410  0.726734  0.631937  1
  La  La4  1  0.495913  0.271474  0.867970  1
  La  La5  1  0.003566  0.271764  0.368289  1
  La  La6  1  0.502843  0.728846  0.132036  1
  Pr  Pr7  1  0.781751  0.678836  0.907635  1
  W  W8  1  0.996408  0.823425  0.119855  1
  W  W9  1  0.496892  0.176514  0.379698  1
  W  W10  1  0.002162  0.178165  0.879777  1
  W  W11  1  0.503529  0.821452  0.620553  1
  W  W12  1  0.752749  0.177519  0.662938  1
  W  W13  1  0.247494  0.821216  0.337187  1
  W  W14  1  0.747512  0.179658  0.161802  1
  W  W15  1  0.252313  0.821299  0.837883  1
  C  C16  1  0.627454  0.506340  0.643198  1
  C  C17  1  0.126439  0.493476  0.856792  1
  C  C18  1  0.372210  0.491731  0.356276  1
  C  C19  1  0.871999  0.508463  0.142880  1
  C  C20  1  0.212276  0.931070  0.987159  1
  C  C21  1  0.712053  0.069825  0.513141  1
  C  C22  1  0.787219  0.069726  0.012693  1
  C  C23  1  0.288042  0.928646  0.487163  1
  C  C24  1  0.488709  0.026153  0.246302  1
  C  C25  1  0.011473  0.024823  0.747077  1
  C  C26  1  0.988085  0.974866  0.253139  1
  C  C27  1  0.512592  0.971591  0.754383  1
