# generated using pymatgen
data_Tb2Ho4CoCl10
_symmetry_space_group_name_H-M   'P 1'
_cell_length_a   7.05952911
_cell_length_b   8.81206161
_cell_length_c   8.76127031
_cell_angle_alpha   109.10795459
_cell_angle_beta   96.38133038
_cell_angle_gamma   106.85917625
_symmetry_Int_Tables_number   1
_chemical_formula_structural   Tb2Ho4CoCl10
_chemical_formula_sum   'Tb2 Ho4 Co1 Cl10'
_cell_volume   479.89682589
_cell_formula_units_Z   1
loop_
 _symmetry_equiv_pos_site_id
 _symmetry_equiv_pos_as_xyz
  1  'x, y, z'
loop_
 _atom_site_type_symbol
 _atom_site_label
 _atom_site_symmetry_multiplicity
 _atom_site_fract_x
 _atom_site_fract_y
 _atom_site_fract_z
 _atom_site_occupancy
  Tb  Tb0  1  0.629759  0.049646  0.760108  1
  Tb  Tb1  1  0.370241  0.950354  0.239892  1
  Ho  Ho2  1  0.866598  0.144225  0.190208  1
  Ho  Ho3  1  0.133402  0.855775  0.809792  1
  Ho  Ho4  1  0.522829  0.692846  0.896499  1
  Ho  Ho5  1  0.477171  0.307154  0.103501  1
  Co  Co6  1  0.500000  0.000000  0.000000  1
  Cl  Cl7  1  0.747615  0.082338  0.455201  1
  Cl  Cl8  1  0.252385  0.917662  0.544799  1
  Cl  Cl9  1  0.949711  0.827272  0.076721  1
  Cl  Cl10  1  0.050289  0.172728  0.923279  1
  Cl  Cl11  1  0.292250  0.258274  0.349728  1
  Cl  Cl12  1  0.707750  0.741726  0.650272  1
  Cl  Cl13  1  0.589953  0.372762  0.837135  1
  Cl  Cl14  1  0.410047  0.627238  0.162865  1
  Cl  Cl15  1  0.859322  0.460653  0.279113  1
  Cl  Cl16  1  0.140678  0.539347  0.720887  1
