# generated using pymatgen
data_Pr7Nd5(PtBr3)4
_symmetry_space_group_name_H-M   'P 1'
_cell_length_a   10.63208787
_cell_length_b   10.62413198
_cell_length_c   10.63522038
_cell_angle_alpha   109.44021905
_cell_angle_beta   109.48047248
_cell_angle_gamma   109.47757060
_symmetry_Int_Tables_number   1
_chemical_formula_structural   Pr7Nd5(PtBr3)4
_chemical_formula_sum   'Pr7 Nd5 Pt4 Br12'
_cell_volume   924.95175176
_cell_formula_units_Z   1
loop_
 _symmetry_equiv_pos_site_id
 _symmetry_equiv_pos_as_xyz
  1  'x, y, z'
loop_
 _atom_site_type_symbol
 _atom_site_label
 _atom_site_symmetry_multiplicity
 _atom_site_fract_x
 _atom_site_fract_y
 _atom_site_fract_z
 _atom_site_occupancy
  Pr  Pr0  1  0.030028  0.265565  0.015604  1
  Pr  Pr1  1  0.014681  0.029865  0.265434  1
  Pr  Pr2  1  0.485667  0.750418  0.015610  1
  Pr  Pr3  1  0.485315  0.235160  0.470104  1
  Pr  Pr4  1  0.015024  0.485214  0.749553  1
  Pr  Pr5  1  0.265614  0.015479  0.030352  1
  Pr  Pr6  1  0.234860  0.264837  0.749995  1
  Nd  Nd7  1  0.467785  0.484476  0.234449  1
  Nd  Nd8  1  0.750523  0.234581  0.266511  1
  Nd  Nd9  1  0.749877  0.015954  0.484043  1
  Nd  Nd10  1  0.233722  0.468055  0.483657  1
  Nd  Nd11  1  0.266593  0.749979  0.234322  1
  Pt  Pt12  1  0.250208  0.250557  0.250510  1
  Pt  Pt13  1  0.500680  0.000270  0.250550  1
  Pt  Pt14  1  0.999703  0.250059  0.499814  1
  Pt  Pt15  1  0.250298  0.500430  0.000510  1
  Br  Br16  1  0.250473  0.751718  0.745258  1
  Br  Br17  1  0.505361  0.504340  0.751772  1
  Br  Br18  1  0.995230  0.746705  0.999266  1
  Br  Br19  1  0.746415  0.247640  0.751806  1
  Br  Br20  1  0.994911  0.993842  0.745324  1
  Br  Br21  1  0.249883  0.994855  0.501312  1
  Br  Br22  1  0.751841  0.505302  0.499032  1
  Br  Br23  1  0.506253  0.253174  0.001649  1
  Br  Br24  1  0.751836  0.746717  0.252996  1
  Br  Br25  1  0.746440  0.998979  0.994774  1
  Br  Br26  1  0.999129  0.504160  0.252640  1
  Br  Br27  1  0.501651  0.751671  0.503154  1
