# generated using pymatgen
data_Cs4P2Se9S
_symmetry_space_group_name_H-M   'P 1'
_cell_length_a   7.59999341
_cell_length_b   7.84055144
_cell_length_c   10.47901181
_cell_angle_alpha   84.09791461
_cell_angle_beta   86.89501960
_cell_angle_gamma   84.41778664
_symmetry_Int_Tables_number   1
_chemical_formula_structural   Cs4P2Se9S
_chemical_formula_sum   'Cs4 P2 Se9 S1'
_cell_volume   617.55384000
_cell_formula_units_Z   1
loop_
 _symmetry_equiv_pos_site_id
 _symmetry_equiv_pos_as_xyz
  1  'x, y, z'
loop_
 _atom_site_type_symbol
 _atom_site_label
 _atom_site_symmetry_multiplicity
 _atom_site_fract_x
 _atom_site_fract_y
 _atom_site_fract_z
 _atom_site_occupancy
  Cs  Cs0  1  0.796482  0.140163  0.625290  1
  Cs  Cs1  1  0.206037  0.868063  0.372287  1
  Cs  Cs2  1  0.222120  0.276430  0.971560  1
  Cs  Cs3  1  0.774806  0.724726  0.032281  1
  P  P4  1  0.244967  0.796750  0.779218  1
  P  P5  1  0.759218  0.201676  0.221367  1
  Se  Se6  1  0.499771  0.602938  0.758737  1
  Se  Se7  1  0.295310  0.046825  0.678229  1
  Se  Se8  1  0.017383  0.687616  0.711759  1
  Se  Se9  1  0.593384  0.606024  0.540931  1
  Se  Se10  1  0.408923  0.400660  0.460248  1
  Se  Se11  1  0.269215  0.766224  0.990098  1
  Se  Se12  1  0.705260  0.953105  0.323758  1
  Se  Se13  1  0.728738  0.233099  0.010965  1
  Se  Se14  1  0.505543  0.397758  0.243048  1
  S  S15  1  0.972845  0.297942  0.280222  1
