# generated using pymatgen
data_Ca4In2PdPt3
_symmetry_space_group_name_H-M   'P 1'
_cell_length_a   5.83352723
_cell_length_b   5.82703071
_cell_length_c   8.25714499
_cell_angle_alpha   77.29305750
_cell_angle_beta   77.26478368
_cell_angle_gamma   58.96348650
_symmetry_Int_Tables_number   1
_chemical_formula_structural   Ca4In2PdPt3
_chemical_formula_sum   'Ca4 In2 Pd1 Pt3'
_cell_volume   232.67411407
_cell_formula_units_Z   1
loop_
 _symmetry_equiv_pos_site_id
 _symmetry_equiv_pos_as_xyz
  1  'x, y, z'
loop_
 _atom_site_type_symbol
 _atom_site_label
 _atom_site_symmetry_multiplicity
 _atom_site_fract_x
 _atom_site_fract_y
 _atom_site_fract_z
 _atom_site_occupancy
  Ca  Ca0  1  0.503700  0.796113  0.349623  1
  Ca  Ca1  1  0.205119  0.495093  0.148478  1
  Ca  Ca2  1  0.496071  0.205310  0.650555  1
  Ca  Ca3  1  0.794849  0.502157  0.851157  1
  In  In4  1  0.845396  0.154338  0.249806  1
  In  In5  1  0.154679  0.846936  0.750034  1
  Pd  Pd6  1  0.003555  0.727756  0.502948  1
  Pt  Pt7  1  0.725706  0.002107  0.003297  1
  Pt  Pt8  1  0.996495  0.273212  0.496429  1
  Pt  Pt9  1  0.274431  0.996978  0.997673  1
