# generated using pymatgen
data_Sc22Tc3RuRh4
_symmetry_space_group_name_H-M   'P 1'
_cell_length_a   9.51981019
_cell_length_b   9.49159681
_cell_length_c   9.51980938
_cell_angle_alpha   60.09797933
_cell_angle_beta   59.80402114
_cell_angle_gamma   60.09797780
_symmetry_Int_Tables_number   1
_chemical_formula_structural   Sc22Tc3RuRh4
_chemical_formula_sum   'Sc22 Tc3 Ru1 Rh4'
_cell_volume   608.23743852
_cell_formula_units_Z   1
loop_
 _symmetry_equiv_pos_site_id
 _symmetry_equiv_pos_as_xyz
  1  'x, y, z'
loop_
 _atom_site_type_symbol
 _atom_site_label
 _atom_site_symmetry_multiplicity
 _atom_site_fract_x
 _atom_site_fract_y
 _atom_site_fract_z
 _atom_site_occupancy
  Sc  Sc0  1  0.803623  0.803623  0.196377  1
  Sc  Sc1  1  0.198359  0.801641  0.198359  1
  Sc  Sc2  1  0.803623  0.196377  0.196377  1
  Sc  Sc3  1  0.196377  0.196377  0.803623  1
  Sc  Sc4  1  0.801641  0.198359  0.801641  1
  Sc  Sc5  1  0.196377  0.803623  0.803623  1
  Sc  Sc6  1  0.619992  0.614285  0.151441  1
  Sc  Sc7  1  0.614285  0.151441  0.614285  1
  Sc  Sc8  1  0.151441  0.614285  0.619992  1
  Sc  Sc9  1  0.614285  0.619992  0.614285  1
  Sc  Sc10  1  0.380008  0.385715  0.848559  1
  Sc  Sc11  1  0.385715  0.848559  0.385715  1
  Sc  Sc12  1  0.848559  0.385715  0.380008  1
  Sc  Sc13  1  0.385715  0.380008  0.385715  1
  Sc  Sc14  1  0.845009  0.842459  0.470072  1
  Sc  Sc15  1  0.842459  0.470072  0.842459  1
  Sc  Sc16  1  0.470072  0.842459  0.845009  1
  Sc  Sc17  1  0.842459  0.845009  0.842459  1
  Sc  Sc18  1  0.154991  0.157541  0.529928  1
  Sc  Sc19  1  0.157541  0.529928  0.157541  1
  Sc  Sc20  1  0.529928  0.157541  0.154991  1
  Sc  Sc21  1  0.157541  0.154991  0.157541  1
  Tc  Tc22  1  0.000000  0.000000  0.000000  1
  Tc  Tc23  1  0.500000  0.000000  0.500000  1
  Tc  Tc24  1  0.000000  0.500000  0.000000  1
  Ru  Ru25  1  0.500000  0.500000  0.500000  1
  Rh  Rh26  1  0.000000  0.000000  0.500000  1
  Rh  Rh27  1  0.000000  0.500000  0.500000  1
  Rh  Rh28  1  0.500000  0.500000  0.000000  1
  Rh  Rh29  1  0.500000  0.000000  0.000000  1
