# generated using pymatgen
data_DyMgCo(PRh)3
_symmetry_space_group_name_H-M   'P 1'
_cell_length_a   3.85512600
_cell_length_b   10.84660800
_cell_length_c   12.66591500
_cell_angle_alpha   90.00000000
_cell_angle_beta   90.00000000
_cell_angle_gamma   90.00000000
_symmetry_Int_Tables_number   1
_chemical_formula_structural   DyMgCo(PRh)3
_chemical_formula_sum   'Dy4 Mg4 Co4 P12 Rh12'
_cell_volume   529.62574885
_cell_formula_units_Z   4
loop_
 _symmetry_equiv_pos_site_id
 _symmetry_equiv_pos_as_xyz
  1  'x, y, z'
loop_
 _atom_site_type_symbol
 _atom_site_label
 _atom_site_symmetry_multiplicity
 _atom_site_fract_x
 _atom_site_fract_y
 _atom_site_fract_z
 _atom_site_occupancy
  Dy  Dy0  1  0.250000  0.580594  0.710600  1
  Dy  Dy1  1  0.250000  0.919406  0.210600  1
  Dy  Dy2  1  0.750000  0.419406  0.289400  1
  Dy  Dy3  1  0.750000  0.080594  0.789400  1
  Mg  Mg4  1  0.250000  0.705629  0.987217  1
  Mg  Mg5  1  0.250000  0.794371  0.487217  1
  Mg  Mg6  1  0.750000  0.294371  0.012783  1
  Mg  Mg7  1  0.750000  0.205629  0.512783  1
  Co  Co8  1  0.250000  0.465584  0.936077  1
  Co  Co9  1  0.250000  0.034416  0.436077  1
  Co  Co10  1  0.750000  0.534416  0.063923  1
  Co  Co11  1  0.750000  0.965584  0.563923  1
  P  P12  1  0.250000  0.426990  0.110553  1
  P  P13  1  0.250000  0.073010  0.610553  1
  P  P14  1  0.750000  0.573010  0.889447  1
  P  P15  1  0.750000  0.926990  0.389447  1
  P  P16  1  0.250000  0.269079  0.860910  1
  P  P17  1  0.250000  0.230921  0.360910  1
  P  P18  1  0.750000  0.730921  0.139090  1
  P  P19  1  0.750000  0.769079  0.639090  1
  P  P20  1  0.250000  0.592963  0.385103  1
  P  P21  1  0.250000  0.907037  0.885103  1
  P  P22  1  0.750000  0.407037  0.614897  1
  P  P23  1  0.750000  0.092963  0.114897  1
  Rh  Rh24  1  0.250000  0.403277  0.476020  1
  Rh  Rh25  1  0.250000  0.096723  0.976020  1
  Rh  Rh26  1  0.750000  0.596723  0.523980  1
  Rh  Rh27  1  0.750000  0.903277  0.023980  1
  Rh  Rh28  1  0.250000  0.223568  0.173028  1
  Rh  Rh29  1  0.250000  0.276432  0.673028  1
  Rh  Rh30  1  0.750000  0.776432  0.826972  1
  Rh  Rh31  1  0.750000  0.723568  0.326972  1
  Rh  Rh32  1  0.250000  0.881033  0.693946  1
  Rh  Rh33  1  0.250000  0.618967  0.193946  1
  Rh  Rh34  1  0.750000  0.118967  0.306054  1
  Rh  Rh35  1  0.750000  0.381033  0.806054  1
