# generated using pymatgen
data_Lu10Cd3Re
_symmetry_space_group_name_H-M   'P 1'
_cell_length_a   9.30666300
_cell_length_b   9.30666361
_cell_length_c   9.83541000
_cell_angle_alpha   90.00000000
_cell_angle_beta   90.00000000
_cell_angle_gamma   120.00000138
_symmetry_Int_Tables_number   1
_chemical_formula_structural   Lu10Cd3Re
_chemical_formula_sum   'Lu20 Cd6 Re2'
_cell_volume   737.75319525
_cell_formula_units_Z   2
loop_
 _symmetry_equiv_pos_site_id
 _symmetry_equiv_pos_as_xyz
  1  'x, y, z'
loop_
 _atom_site_type_symbol
 _atom_site_label
 _atom_site_symmetry_multiplicity
 _atom_site_fract_x
 _atom_site_fract_y
 _atom_site_fract_z
 _atom_site_occupancy
  Lu  Lu0  1  0.000000  0.000000  0.500000  1
  Lu  Lu1  1  0.000000  0.000000  0.000000  1
  Lu  Lu2  1  0.210032  0.789968  0.443394  1
  Lu  Lu3  1  0.210032  0.420065  0.443394  1
  Lu  Lu4  1  0.579935  0.789968  0.443394  1
  Lu  Lu5  1  0.789968  0.210032  0.556606  1
  Lu  Lu6  1  0.789968  0.579935  0.556606  1
  Lu  Lu7  1  0.420065  0.210032  0.556606  1
  Lu  Lu8  1  0.789968  0.210032  0.943394  1
  Lu  Lu9  1  0.789968  0.579935  0.943394  1
  Lu  Lu10  1  0.420065  0.210032  0.943394  1
  Lu  Lu11  1  0.210032  0.789968  0.056606  1
  Lu  Lu12  1  0.210032  0.420065  0.056606  1
  Lu  Lu13  1  0.579935  0.789968  0.056606  1
  Lu  Lu14  1  0.537881  0.462119  0.250000  1
  Lu  Lu15  1  0.537881  0.075763  0.250000  1
  Lu  Lu16  1  0.924237  0.462119  0.250000  1
  Lu  Lu17  1  0.462119  0.537881  0.750000  1
  Lu  Lu18  1  0.462119  0.924237  0.750000  1
  Lu  Lu19  1  0.075763  0.537881  0.750000  1
  Cd  Cd20  1  0.886648  0.113352  0.250000  1
  Cd  Cd21  1  0.886648  0.773295  0.250000  1
  Cd  Cd22  1  0.226705  0.113352  0.250000  1
  Cd  Cd23  1  0.113352  0.886648  0.750000  1
  Cd  Cd24  1  0.113352  0.226705  0.750000  1
  Cd  Cd25  1  0.773295  0.886648  0.750000  1
  Re  Re26  1  0.333333  0.666667  0.250000  1
  Re  Re27  1  0.666667  0.333333  0.750000  1
