# generated using pymatgen
data_MgMn(Be4Ir)2
_symmetry_space_group_name_H-M   'P 1'
_cell_length_a   4.35860000
_cell_length_b   4.35859972
_cell_length_c   7.12545200
_cell_angle_alpha   90.00000000
_cell_angle_beta   90.00000000
_cell_angle_gamma   120.00000214
_symmetry_Int_Tables_number   1
_chemical_formula_structural   MgMn(Be4Ir)2
_chemical_formula_sum   'Mg1 Mn1 Be8 Ir2'
_cell_volume   117.22953496
_cell_formula_units_Z   1
loop_
 _symmetry_equiv_pos_site_id
 _symmetry_equiv_pos_as_xyz
  1  'x, y, z'
loop_
 _atom_site_type_symbol
 _atom_site_label
 _atom_site_symmetry_multiplicity
 _atom_site_fract_x
 _atom_site_fract_y
 _atom_site_fract_z
 _atom_site_occupancy
  Mg  Mg0  1  0.666667  0.333333  0.936125  1
  Mn  Mn1  1  0.333333  0.666667  0.435338  1
  Be  Be2  1  0.000000  0.000000  0.003714  1
  Be  Be3  1  0.000000  0.000000  0.503310  1
  Be  Be4  1  0.832990  0.665980  0.253915  1
  Be  Be5  1  0.170125  0.829875  0.745217  1
  Be  Be6  1  0.659749  0.829875  0.745217  1
  Be  Be7  1  0.334020  0.167010  0.253915  1
  Be  Be8  1  0.832990  0.167010  0.253915  1
  Be  Be9  1  0.170125  0.340251  0.745217  1
  Ir  Ir10  1  0.333333  0.666667  0.066543  1
  Ir  Ir11  1  0.666667  0.333333  0.557569  1
