# generated using pymatgen
data_Y4UP12Ru19
_symmetry_space_group_name_H-M   'P 1'
_cell_length_a   12.57493276
_cell_length_b   12.53347224
_cell_length_c   3.96270600
_cell_angle_alpha   90.00000000
_cell_angle_beta   90.00000000
_cell_angle_gamma   119.89098794
_symmetry_Int_Tables_number   1
_chemical_formula_structural   Y4UP12Ru19
_chemical_formula_sum   'Y4 U1 P12 Ru19'
_cell_volume   541.47146470
_cell_formula_units_Z   1
loop_
 _symmetry_equiv_pos_site_id
 _symmetry_equiv_pos_as_xyz
  1  'x, y, z'
loop_
 _atom_site_type_symbol
 _atom_site_label
 _atom_site_symmetry_multiplicity
 _atom_site_fract_x
 _atom_site_fract_y
 _atom_site_fract_z
 _atom_site_occupancy
  Y  Y0  1  0.811620  0.811001  0.500000  1
  Y  Y1  1  0.188380  0.999380  0.500000  1
  Y  Y2  1  0.669494  0.333323  0.000000  1
  Y  Y3  1  0.330506  0.663830  0.000000  1
  U  U4  1  0.000000  0.177271  0.500000  1
  P  P5  1  0.000000  0.817711  0.000000  1
  P  P6  1  0.188977  0.182320  0.000000  1
  P  P7  1  0.811023  0.993343  0.000000  1
  P  P8  1  0.693616  0.171370  0.500000  1
  P  P9  1  0.828523  0.523079  0.500000  1
  P  P10  1  0.479887  0.308548  0.500000  1
  P  P11  1  0.171477  0.694556  0.500000  1
  P  P12  1  0.520113  0.828661  0.500000  1
  P  P13  1  0.306384  0.477753  0.500000  1
  P  P14  1  0.000000  0.374177  0.000000  1
  P  P15  1  0.625408  0.626663  0.000000  1
  P  P16  1  0.374592  0.001255  0.000000  1
  Ru  Ru17  1  0.000000  0.555638  0.000000  1
  Ru  Ru18  1  0.441152  0.446733  0.000000  1
  Ru  Ru19  1  0.558848  0.005580  0.000000  1
  Ru  Ru20  1  0.000000  0.718614  0.500000  1
  Ru  Ru21  1  0.282168  0.283360  0.500000  1
  Ru  Ru22  1  0.717832  0.001192  0.500000  1
  Ru  Ru23  1  0.815731  0.183524  0.000000  1
  Ru  Ru24  1  0.815070  0.622477  0.000000  1
  Ru  Ru25  1  0.380353  0.195547  0.000000  1
  Ru  Ru26  1  0.184930  0.807407  0.000000  1
  Ru  Ru27  1  0.619647  0.815193  0.000000  1
  Ru  Ru28  1  0.184269  0.367793  0.000000  1
  Ru  Ru29  1  0.874077  0.364742  0.500000  1
  Ru  Ru30  1  0.633115  0.510165  0.500000  1
  Ru  Ru31  1  0.493814  0.128453  0.500000  1
  Ru  Ru32  1  0.366885  0.877050  0.500000  1
  Ru  Ru33  1  0.506186  0.634638  0.500000  1
  Ru  Ru34  1  0.125923  0.490665  0.500000  1
  Ru  Ru35  1  0.000000  0.006987  0.000000  1
