# generated using pymatgen
data_SmDy5C2Br7
_symmetry_space_group_name_H-M   'P 1'
_cell_length_a   10.54459939
_cell_length_b   10.54459987
_cell_length_c   11.99004565
_cell_angle_alpha   57.58491123
_cell_angle_beta   57.58490980
_cell_angle_gamma   20.88098668
_symmetry_Int_Tables_number   1
_chemical_formula_structural   SmDy5C2Br7
_chemical_formula_sum   'Sm1 Dy5 C2 Br7'
_cell_volume   398.38040322
_cell_formula_units_Z   1
loop_
 _symmetry_equiv_pos_site_id
 _symmetry_equiv_pos_as_xyz
  1  'x, y, z'
loop_
 _atom_site_type_symbol
 _atom_site_label
 _atom_site_symmetry_multiplicity
 _atom_site_fract_x
 _atom_site_fract_y
 _atom_site_fract_z
 _atom_site_occupancy
  Sm  Sm0  1  0.229978  0.229978  0.838587  1
  Dy  Dy1  1  0.312932  0.312932  0.366078  1
  Dy  Dy2  1  0.131667  0.131667  0.442076  1
  Dy  Dy3  1  0.867948  0.867948  0.558221  1
  Dy  Dy4  1  0.687629  0.687629  0.633663  1
  Dy  Dy5  1  0.769329  0.769329  0.165295  1
  C  C6  1  0.280664  0.280664  0.602330  1
  C  C7  1  0.720109  0.720109  0.393449  1
  Br  Br8  1  0.164118  0.164118  0.166285  1
  Br  Br9  1  0.839884  0.839884  0.833724  1
  Br  Br10  1  0.059614  0.059614  0.717238  1
  Br  Br11  1  0.940622  0.940622  0.281628  1
  Br  Br12  1  0.500332  0.500332  0.499560  1
  Br  Br13  1  0.388175  0.388175  0.070206  1
  Br  Br14  1  0.607000  0.607000  0.931660  1
