# generated using pymatgen
data_Tm4PaNi19
_symmetry_space_group_name_H-M   'P 1'
_cell_length_a   4.89346485
_cell_length_b   4.89346404
_cell_length_c   16.35122400
_cell_angle_alpha   81.39415990
_cell_angle_beta   81.39416133
_cell_angle_gamma   60.00000081
_symmetry_Int_Tables_number   1
_chemical_formula_structural   Tm4PaNi19
_chemical_formula_sum   'Tm4 Pa1 Ni19'
_cell_volume   333.98901800
_cell_formula_units_Z   1
loop_
 _symmetry_equiv_pos_site_id
 _symmetry_equiv_pos_as_xyz
  1  'x, y, z'
loop_
 _atom_site_type_symbol
 _atom_site_label
 _atom_site_symmetry_multiplicity
 _atom_site_fract_x
 _atom_site_fract_y
 _atom_site_fract_z
 _atom_site_occupancy
  Tm  Tm0  1  0.920617  0.920617  0.238151  1
  Tm  Tm1  1  0.079383  0.079383  0.761849  1
  Tm  Tm2  1  0.847839  0.847839  0.456484  1
  Tm  Tm3  1  0.152161  0.152161  0.543516  1
  Pa  Pa4  1  0.000000  0.000000  0.000000  1
  Ni  Ni5  1  0.500000  0.500000  0.500000  1
  Ni  Ni6  1  0.749573  0.749574  0.751280  1
  Ni  Ni7  1  0.250426  0.250426  0.248721  1
  Ni  Ni8  1  0.666637  0.666637  0.000090  1
  Ni  Ni9  1  0.333363  0.333363  0.999910  1
  Ni  Ni10  1  0.583851  0.583851  0.248449  1
  Ni  Ni11  1  0.416149  0.416149  0.751551  1
  Ni  Ni12  1  0.375263  0.375263  0.372334  1
  Ni  Ni13  1  0.877138  0.375263  0.372334  1
  Ni  Ni14  1  0.375263  0.877138  0.372334  1
  Ni  Ni15  1  0.624737  0.624737  0.627666  1
  Ni  Ni16  1  0.122862  0.624737  0.627666  1
  Ni  Ni17  1  0.624737  0.122862  0.627666  1
  Ni  Ni18  1  0.458556  0.458556  0.124113  1
  Ni  Ni19  1  0.958775  0.458556  0.124113  1
  Ni  Ni20  1  0.458556  0.958775  0.124113  1
  Ni  Ni21  1  0.541444  0.541444  0.875887  1
  Ni  Ni22  1  0.041225  0.541444  0.875887  1
  Ni  Ni23  1  0.541444  0.041225  0.875887  1
