# generated using pymatgen
data_Sn4Sb7Pt6Se
_symmetry_space_group_name_H-M   'P 1'
_cell_length_a   4.02786100
_cell_length_b   8.48560323
_cell_length_c   12.71379185
_cell_angle_alpha   97.26036825
_cell_angle_beta   90.00000000
_cell_angle_gamma   90.00000000
_symmetry_Int_Tables_number   1
_chemical_formula_structural   Sn4Sb7Pt6Se
_chemical_formula_sum   'Sn4 Sb7 Pt6 Se1'
_cell_volume   431.05841399
_cell_formula_units_Z   1
loop_
 _symmetry_equiv_pos_site_id
 _symmetry_equiv_pos_as_xyz
  1  'x, y, z'
loop_
 _atom_site_type_symbol
 _atom_site_label
 _atom_site_symmetry_multiplicity
 _atom_site_fract_x
 _atom_site_fract_y
 _atom_site_fract_z
 _atom_site_occupancy
  Sn  Sn0  1  0.500000  0.328417  0.801089  1
  Sn  Sn1  1  0.500000  0.997135  0.145023  1
  Sn  Sn2  1  0.500000  0.651932  0.478165  1
  Sn  Sn3  1  0.500000  0.670773  0.191128  1
  Sb  Sb4  1  0.500000  0.009523  0.857976  1
  Sb  Sb5  1  0.000000  0.314307  0.052588  1
  Sb  Sb6  1  0.000000  0.979617  0.385610  1
  Sb  Sb7  1  0.000000  0.646360  0.720482  1
  Sb  Sb8  1  0.000000  0.685741  0.949571  1
  Sb  Sb9  1  0.000000  0.354128  0.279974  1
  Sb  Sb10  1  0.000000  0.016652  0.614847  1
  Pt  Pt11  1  0.500000  0.829966  0.668455  1
  Pt  Pt12  1  0.500000  0.497944  0.997144  1
  Pt  Pt13  1  0.500000  0.172315  0.337996  1
  Pt  Pt14  1  0.000000  0.333570  0.660318  1
  Pt  Pt15  1  0.000000  0.001445  0.999225  1
  Pt  Pt16  1  0.000000  0.664851  0.335473  1
  Se  Se17  1  0.500000  0.345322  0.524936  1
