# generated using pymatgen
data_Y2Sc2ReB12Ir
_symmetry_space_group_name_H-M   'P 1'
_cell_length_a   3.58323400
_cell_length_b   8.98351276
_cell_length_c   11.39464936
_cell_angle_alpha   90.10903996
_cell_angle_beta   90.00000000
_cell_angle_gamma   90.00000000
_symmetry_Int_Tables_number   1
_chemical_formula_structural   Y2Sc2ReB12Ir
_chemical_formula_sum   'Y4 Sc4 Re2 B24 Ir2'
_cell_volume   366.79342198
_cell_formula_units_Z   2
loop_
 _symmetry_equiv_pos_site_id
 _symmetry_equiv_pos_as_xyz
  1  'x, y, z'
loop_
 _atom_site_type_symbol
 _atom_site_label
 _atom_site_symmetry_multiplicity
 _atom_site_fract_x
 _atom_site_fract_y
 _atom_site_fract_z
 _atom_site_occupancy
  Y  Y0  1  0.000000  0.316551  0.411255  1
  Y  Y1  1  0.000000  0.683449  0.588745  1
  Y  Y2  1  0.000000  0.822949  0.083527  1
  Y  Y3  1  0.000000  0.177051  0.916473  1
  Sc  Sc4  1  0.000000  0.948350  0.373477  1
  Sc  Sc5  1  0.000000  0.051650  0.626523  1
  Sc  Sc6  1  0.000000  0.441984  0.124333  1
  Sc  Sc7  1  0.000000  0.558016  0.875667  1
  Re  Re8  1  0.000000  0.140629  0.182480  1
  Re  Re9  1  0.000000  0.859371  0.817520  1
  B  B10  1  0.500000  0.555251  0.433301  1
  B  B11  1  0.500000  0.444749  0.566699  1
  B  B12  1  0.500000  0.054114  0.067714  1
  B  B13  1  0.500000  0.945886  0.932286  1
  B  B14  1  0.500000  0.753845  0.420122  1
  B  B15  1  0.500000  0.246155  0.579878  1
  B  B16  1  0.500000  0.252302  0.081098  1
  B  B17  1  0.500000  0.747698  0.918902  1
  B  B18  1  0.500000  0.793274  0.265719  1
  B  B19  1  0.500000  0.206726  0.734281  1
  B  B20  1  0.500000  0.294759  0.234393  1
  B  B21  1  0.500000  0.705241  0.765607  1
  B  B22  1  0.500000  0.628662  0.181694  1
  B  B23  1  0.500000  0.371338  0.818306  1
  B  B24  1  0.500000  0.129009  0.317072  1
  B  B25  1  0.500000  0.870991  0.682928  1
  B  B26  1  0.500000  0.981100  0.215100  1
  B  B27  1  0.500000  0.018900  0.784900  1
  B  B28  1  0.500000  0.481630  0.285476  1
  B  B29  1  0.500000  0.518370  0.714524  1
  B  B30  1  0.500000  0.599597  0.027478  1
  B  B31  1  0.500000  0.400403  0.972522  1
  B  B32  1  0.500000  0.100030  0.473460  1
  B  B33  1  0.500000  0.899970  0.526540  1
  Ir  Ir34  1  0.000000  0.639630  0.319284  1
  Ir  Ir35  1  0.000000  0.360370  0.680716  1
