# generated using pymatgen
data_YbHo5(CoSn6)2
_symmetry_space_group_name_H-M   'P 1'
_cell_length_a   8.44965371
_cell_length_b   8.44965399
_cell_length_c   13.10961570
_cell_angle_alpha   90.03442816
_cell_angle_beta   89.96557226
_cell_angle_gamma   148.50077992
_symmetry_Int_Tables_number   1
_chemical_formula_structural   YbHo5(CoSn6)2
_chemical_formula_sum   'Yb1 Ho5 Co2 Sn12'
_cell_volume   489.03863028
_cell_formula_units_Z   1
loop_
 _symmetry_equiv_pos_site_id
 _symmetry_equiv_pos_as_xyz
  1  'x, y, z'
loop_
 _atom_site_type_symbol
 _atom_site_label
 _atom_site_symmetry_multiplicity
 _atom_site_fract_x
 _atom_site_fract_y
 _atom_site_fract_z
 _atom_site_occupancy
  Yb  Yb0  1  0.899369  0.100631  0.403301  1
  Ho  Ho1  1  0.898480  0.101520  0.094289  1
  Ho  Ho2  1  0.101512  0.898488  0.595276  1
  Ho  Ho3  1  0.900990  0.099010  0.752166  1
  Ho  Ho4  1  0.100888  0.899112  0.905969  1
  Ho  Ho5  1  0.099447  0.900553  0.248977  1
  Co  Co6  1  0.298965  0.701035  0.250134  1
  Co  Co7  1  0.700026  0.299974  0.749671  1
  Sn  Sn8  1  0.757649  0.242351  0.572020  1
  Sn  Sn9  1  0.428120  0.571880  0.576918  1
  Sn  Sn10  1  0.573019  0.426981  0.424210  1
  Sn  Sn11  1  0.733579  0.266421  0.248972  1
  Sn  Sn12  1  0.265896  0.734104  0.750383  1
  Sn  Sn13  1  0.243293  0.756707  0.071243  1
  Sn  Sn14  1  0.243361  0.756639  0.428846  1
  Sn  Sn15  1  0.572353  0.427647  0.074843  1
  Sn  Sn16  1  0.454360  0.545640  0.247946  1
  Sn  Sn17  1  0.545817  0.454183  0.750752  1
  Sn  Sn18  1  0.756365  0.243635  0.928459  1
  Sn  Sn19  1  0.426511  0.573489  0.925624  1
