# generated using pymatgen
data_K2SmY(SbAu)4
_symmetry_space_group_name_H-M   'P 1'
_cell_length_a   4.63321600
_cell_length_b   4.63321584
_cell_length_c   19.01209000
_cell_angle_alpha   90.00000000
_cell_angle_beta   90.00000000
_cell_angle_gamma   120.00001539
_symmetry_Int_Tables_number   1
_chemical_formula_structural   K2SmY(SbAu)4
_chemical_formula_sum   'K2 Sm1 Y1 Sb4 Au4'
_cell_volume   353.44798175
_cell_formula_units_Z   1
loop_
 _symmetry_equiv_pos_site_id
 _symmetry_equiv_pos_as_xyz
  1  'x, y, z'
loop_
 _atom_site_type_symbol
 _atom_site_label
 _atom_site_symmetry_multiplicity
 _atom_site_fract_x
 _atom_site_fract_y
 _atom_site_fract_z
 _atom_site_occupancy
  K  K0  1  0.000000  0.000000  0.499920  1
  K  K1  1  0.000000  0.000000  0.000080  1
  Sm  Sm2  1  0.000000  0.000000  0.250000  1
  Y  Y3  1  0.000000  0.000000  0.750000  1
  Sb  Sb4  1  0.333333  0.666667  0.367187  1
  Sb  Sb5  1  0.666667  0.333333  0.633818  1
  Sb  Sb6  1  0.666667  0.333333  0.866182  1
  Sb  Sb7  1  0.333333  0.666667  0.132813  1
  Au  Au8  1  0.666667  0.333333  0.337756  1
  Au  Au9  1  0.333333  0.666667  0.665790  1
  Au  Au10  1  0.333333  0.666667  0.834210  1
  Au  Au11  1  0.666667  0.333333  0.162244  1
