# generated using pymatgen
data_Dy13Er7CoBi8Os3
_symmetry_space_group_name_H-M   'P 1'
_cell_length_a   7.94231938
_cell_length_b   8.98381628
_cell_length_c   12.43290016
_cell_angle_alpha   89.98654004
_cell_angle_beta   90.24972639
_cell_angle_gamma   90.02534710
_symmetry_Int_Tables_number   1
_chemical_formula_structural   Dy13Er7CoBi8Os3
_chemical_formula_sum   'Dy13 Er7 Co1 Bi8 Os3'
_cell_volume   887.10795863
_cell_formula_units_Z   1
loop_
 _symmetry_equiv_pos_site_id
 _symmetry_equiv_pos_as_xyz
  1  'x, y, z'
loop_
 _atom_site_type_symbol
 _atom_site_label
 _atom_site_symmetry_multiplicity
 _atom_site_fract_x
 _atom_site_fract_y
 _atom_site_fract_z
 _atom_site_occupancy
  Dy  Dy0  1  0.844071  0.750130  0.799014  1
  Dy  Dy1  1  0.158324  0.249971  0.207119  1
  Dy  Dy2  1  0.341951  0.249938  0.708404  1
  Dy  Dy3  1  0.656673  0.750051  0.293692  1
  Dy  Dy4  1  0.376176  0.750043  0.693987  1
  Dy  Dy5  1  0.622660  0.249973  0.306575  1
  Dy  Dy6  1  0.875363  0.249897  0.807383  1
  Dy  Dy7  1  0.120507  0.750177  0.187502  1
  Dy  Dy8  1  0.942166  0.750007  0.504930  1
  Dy  Dy9  1  0.057817  0.250008  0.495708  1
  Dy  Dy10  1  0.445753  0.249862  0.996498  1
  Dy  Dy11  1  0.553648  0.750104  0.003736  1
  Dy  Dy12  1  0.175583  0.541477  0.935811  1
  Er  Er13  1  0.673510  0.042087  0.563981  1
  Er  Er14  1  0.325485  0.957010  0.435689  1
  Er  Er15  1  0.174934  0.958457  0.935884  1
  Er  Er16  1  0.325473  0.543015  0.435717  1
  Er  Er17  1  0.826505  0.038752  0.062922  1
  Er  Er18  1  0.673527  0.457896  0.563958  1
  Er  Er19  1  0.826152  0.461290  0.063061  1
  Co  Co20  1  0.931074  0.750184  0.009175  1
  Bi  Bi21  1  0.570203  0.492922  0.827867  1
  Bi  Bi22  1  0.431079  0.507798  0.171855  1
  Bi  Bi23  1  0.068072  0.507595  0.672992  1
  Bi  Bi24  1  0.431158  0.992192  0.171863  1
  Bi  Bi25  1  0.931491  0.493350  0.326547  1
  Bi  Bi26  1  0.569945  0.007064  0.827925  1
  Bi  Bi27  1  0.931456  0.006659  0.326545  1
  Bi  Bi28  1  0.068171  0.992412  0.673083  1
  Os  Os29  1  0.574247  0.750004  0.511248  1
  Os  Os30  1  0.424630  0.250006  0.489522  1
  Os  Os31  1  0.072197  0.249668  0.989804  1
