# generated using pymatgen
data_Dy9YCd3Os
_symmetry_space_group_name_H-M   'P 1'
_cell_length_a   9.59769902
_cell_length_b   9.59769806
_cell_length_c   9.88460700
_cell_angle_alpha   90.00000000
_cell_angle_beta   90.00000000
_cell_angle_gamma   119.99177146
_symmetry_Int_Tables_number   1
_chemical_formula_structural   Dy9YCd3Os
_chemical_formula_sum   'Dy18 Y2 Cd6 Os2'
_cell_volume   788.60631838
_cell_formula_units_Z   2
loop_
 _symmetry_equiv_pos_site_id
 _symmetry_equiv_pos_as_xyz
  1  'x, y, z'
loop_
 _atom_site_type_symbol
 _atom_site_label
 _atom_site_symmetry_multiplicity
 _atom_site_fract_x
 _atom_site_fract_y
 _atom_site_fract_z
 _atom_site_occupancy
  Dy  Dy0  1  0.999980  0.000020  0.500071  1
  Dy  Dy1  1  0.999980  0.000020  0.999929  1
  Dy  Dy2  1  0.209689  0.790311  0.440178  1
  Dy  Dy3  1  0.209810  0.419462  0.440295  1
  Dy  Dy4  1  0.580538  0.790190  0.440295  1
  Dy  Dy5  1  0.790262  0.209738  0.559584  1
  Dy  Dy6  1  0.790176  0.580543  0.559654  1
  Dy  Dy7  1  0.419457  0.209824  0.559654  1
  Dy  Dy8  1  0.790262  0.209738  0.940416  1
  Dy  Dy9  1  0.790176  0.580543  0.940346  1
  Dy  Dy10  1  0.419457  0.209824  0.940346  1
  Dy  Dy11  1  0.209689  0.790311  0.059822  1
  Dy  Dy12  1  0.209810  0.419462  0.059705  1
  Dy  Dy13  1  0.580538  0.790190  0.059705  1
  Dy  Dy14  1  0.540150  0.459850  0.250000  1
  Dy  Dy15  1  0.540153  0.080318  0.250000  1
  Dy  Dy16  1  0.919682  0.459847  0.250000  1
  Dy  Dy17  1  0.459962  0.540038  0.750000  1
  Y  Y18  1  0.459831  0.919610  0.750000  1
  Y  Y19  1  0.080390  0.540169  0.750000  1
  Cd  Cd20  1  0.885488  0.114512  0.250000  1
  Cd  Cd21  1  0.885522  0.770969  0.250000  1
  Cd  Cd22  1  0.229031  0.114478  0.250000  1
  Cd  Cd23  1  0.114470  0.885530  0.750000  1
  Cd  Cd24  1  0.114563  0.229021  0.750000  1
  Cd  Cd25  1  0.770979  0.885437  0.750000  1
  Os  Os26  1  0.333344  0.666656  0.250000  1
  Os  Os27  1  0.666611  0.333389  0.750000  1
