# generated using pymatgen
data_La4Y16Si15Ag
_symmetry_space_group_name_H-M   'P 1'
_cell_length_a   7.53810594
_cell_length_b   7.78631652
_cell_length_c   14.83760600
_cell_angle_alpha   90.11307112
_cell_angle_beta   89.31042184
_cell_angle_gamma   89.85805649
_symmetry_Int_Tables_number   1
_chemical_formula_structural   La4Y16Si15Ag
_chemical_formula_sum   'La4 Y16 Si15 Ag1'
_cell_volume   870.81212342
_cell_formula_units_Z   1
loop_
 _symmetry_equiv_pos_site_id
 _symmetry_equiv_pos_as_xyz
  1  'x, y, z'
loop_
 _atom_site_type_symbol
 _atom_site_label
 _atom_site_symmetry_multiplicity
 _atom_site_fract_x
 _atom_site_fract_y
 _atom_site_fract_z
 _atom_site_occupancy
  La  La0  1  0.228315  0.678989  0.153716  1
  La  La1  1  0.732214  0.819703  0.848588  1
  La  La2  1  0.268204  0.329034  0.654162  1
  La  La3  1  0.770818  0.178605  0.344863  1
  Y  Y4  1  0.918707  0.673492  0.624261  1
  Y  Y5  1  0.428410  0.821466  0.372880  1
  Y  Y6  1  0.570805  0.323292  0.125593  1
  Y  Y7  1  0.075981  0.174434  0.876446  1
  Y  Y8  1  0.577601  0.320535  0.872883  1
  Y  Y9  1  0.073817  0.180262  0.128515  1
  Y  Y10  1  0.927473  0.680104  0.370791  1
  Y  Y11  1  0.427783  0.821393  0.628690  1
  Y  Y12  1  0.091949  0.009336  0.499869  1
  Y  Y13  1  0.590798  0.488555  0.499352  1
  Y  Y14  1  0.406875  0.989324  0.999253  1
  Y  Y15  1  0.905767  0.507127  0.998344  1
  Y  Y16  1  0.276689  0.318819  0.351698  1
  Y  Y17  1  0.764751  0.184205  0.646048  1
  Y  Y18  1  0.232432  0.676486  0.855001  1
  Y  Y19  1  0.723816  0.817014  0.147631  1
  Si  Si20  1  0.598962  0.534992  0.287123  1
  Si  Si21  1  0.402461  0.035812  0.212601  1
  Si  Si22  1  0.908206  0.463519  0.787980  1
  Si  Si23  1  0.405355  0.027522  0.793267  1
  Si  Si24  1  0.887954  0.477231  0.206931  1
  Si  Si25  1  0.112706  0.978036  0.291600  1
  Si  Si26  1  0.604685  0.526212  0.709730  1
  Si  Si27  1  0.977252  0.377901  0.497710  1
  Si  Si28  1  0.474694  0.123322  0.499434  1
  Si  Si29  1  0.523527  0.623428  0.000027  1
  Si  Si30  1  0.023290  0.874240  0.002798  1
  Si  Si31  1  0.218684  0.613219  0.497714  1
  Si  Si32  1  0.718389  0.890451  0.498832  1
  Si  Si33  1  0.278879  0.389063  0.000531  1
  Si  Si34  1  0.780083  0.108400  0.002933  1
  Ag  Ag35  1  0.091675  0.964472  0.712205  1
