# generated using pymatgen
data_Ho12OsPd2Pt
_symmetry_space_group_name_H-M   'P 1'
_cell_length_a   6.42820513
_cell_length_b   7.10030087
_cell_length_c   9.45363000
_cell_angle_alpha   90.00000000
_cell_angle_beta   90.00000000
_cell_angle_gamma   90.17877596
_symmetry_Int_Tables_number   1
_chemical_formula_structural   Ho12OsPd2Pt
_chemical_formula_sum   'Ho12 Os1 Pd2 Pt1'
_cell_volume   431.48228100
_cell_formula_units_Z   1
loop_
 _symmetry_equiv_pos_site_id
 _symmetry_equiv_pos_as_xyz
  1  'x, y, z'
loop_
 _atom_site_type_symbol
 _atom_site_label
 _atom_site_symmetry_multiplicity
 _atom_site_fract_x
 _atom_site_fract_y
 _atom_site_fract_z
 _atom_site_occupancy
  Ho  Ho0  1  0.319027  0.684557  0.062247  1
  Ho  Ho1  1  0.173736  0.177473  0.437084  1
  Ho  Ho2  1  0.673481  0.319553  0.561528  1
  Ho  Ho3  1  0.827835  0.815729  0.945305  1
  Ho  Ho4  1  0.673481  0.319553  0.938472  1
  Ho  Ho5  1  0.827835  0.815729  0.554695  1
  Ho  Ho6  1  0.319027  0.684557  0.437753  1
  Ho  Ho7  1  0.173736  0.177473  0.062916  1
  Ho  Ho8  1  0.876232  0.536850  0.250000  1
  Ho  Ho9  1  0.631021  0.026283  0.250000  1
  Ho  Ho10  1  0.134246  0.473265  0.750000  1
  Ho  Ho11  1  0.372107  0.970088  0.750000  1
  Os  Os12  1  0.045215  0.889019  0.250000  1
  Pd  Pd13  1  0.454353  0.389347  0.250000  1
  Pd  Pd14  1  0.945977  0.108043  0.750000  1
  Pt  Pt15  1  0.552694  0.612483  0.750000  1
