# generated using pymatgen
data_Er8Ti11Si16Pt
_symmetry_space_group_name_H-M   'P 1'
_cell_length_a   7.02289356
_cell_length_b   7.02289356
_cell_length_c   12.81653593
_cell_angle_alpha   90.16852933
_cell_angle_beta   89.83147067
_cell_angle_gamma   89.68843900
_symmetry_Int_Tables_number   1
_chemical_formula_structural   Er8Ti11Si16Pt
_chemical_formula_sum   'Er8 Ti11 Si16 Pt1'
_cell_volume   632.10995888
_cell_formula_units_Z   1
loop_
 _symmetry_equiv_pos_site_id
 _symmetry_equiv_pos_as_xyz
  1  'x, y, z'
loop_
 _atom_site_type_symbol
 _atom_site_label
 _atom_site_symmetry_multiplicity
 _atom_site_fract_x
 _atom_site_fract_y
 _atom_site_fract_z
 _atom_site_occupancy
  Er  Er0  1  0.340848  0.003246  0.467079  1
  Er  Er1  1  0.496718  0.842000  0.717753  1
  Er  Er2  1  0.501574  0.156821  0.214368  1
  Er  Er3  1  0.842000  0.496718  0.282247  1
  Er  Er4  1  0.156821  0.501574  0.785632  1
  Er  Er5  1  0.656002  0.999105  0.968618  1
  Er  Er6  1  0.003246  0.340848  0.532921  1
  Er  Er7  1  0.999105  0.656002  0.031382  1
  Ti  Ti8  1  0.175930  0.825843  0.248422  1
  Ti  Ti9  1  0.825843  0.175930  0.751578  1
  Ti  Ti10  1  0.673573  0.673573  0.500000  1
  Ti  Ti11  1  0.147876  0.003870  0.876554  1
  Ti  Ti12  1  0.494522  0.654389  0.124093  1
  Ti  Ti13  1  0.506444  0.351145  0.627255  1
  Ti  Ti14  1  0.654389  0.494522  0.875907  1
  Ti  Ti15  1  0.351145  0.506444  0.372745  1
  Ti  Ti16  1  0.850346  0.993572  0.374565  1
  Ti  Ti17  1  0.003870  0.147876  0.123446  1
  Ti  Ti18  1  0.993572  0.850346  0.625435  1
  Si  Si19  1  0.202135  0.134169  0.685119  1
  Si  Si20  1  0.372277  0.710300  0.931464  1
  Si  Si21  1  0.631722  0.294609  0.433175  1
  Si  Si22  1  0.710300  0.372277  0.068536  1
  Si  Si23  1  0.294609  0.631722  0.566825  1
  Si  Si24  1  0.797300  0.866320  0.182944  1
  Si  Si25  1  0.134169  0.202135  0.314881  1
  Si  Si26  1  0.866320  0.797300  0.817056  1
  Si  Si27  1  0.285956  0.944656  0.064355  1
  Si  Si28  1  0.547714  0.791928  0.315172  1
  Si  Si29  1  0.449439  0.209414  0.815596  1
  Si  Si30  1  0.791928  0.547714  0.684828  1
  Si  Si31  1  0.209414  0.449439  0.184404  1
  Si  Si32  1  0.707915  0.048265  0.565400  1
  Si  Si33  1  0.944656  0.285956  0.935645  1
  Si  Si34  1  0.048265  0.707915  0.434600  1
  Pt  Pt35  1  0.332059  0.332059  0.000000  1
