# generated using pymatgen
data_HoPb4W3O13
_symmetry_space_group_name_H-M   'P 1'
_cell_length_a   7.62645703
_cell_length_b   7.62645711
_cell_length_c   7.62645570
_cell_angle_alpha   60.37721688
_cell_angle_beta   60.37721857
_cell_angle_gamma   60.37721100
_symmetry_Int_Tables_number   1
_chemical_formula_structural   HoPb4W3O13
_chemical_formula_sum   'Ho1 Pb4 W3 O13'
_cell_volume   316.33192678
_cell_formula_units_Z   1
loop_
 _symmetry_equiv_pos_site_id
 _symmetry_equiv_pos_as_xyz
  1  'x, y, z'
loop_
 _atom_site_type_symbol
 _atom_site_label
 _atom_site_symmetry_multiplicity
 _atom_site_fract_x
 _atom_site_fract_y
 _atom_site_fract_z
 _atom_site_occupancy
  Ho  Ho0  1  0.500682  0.500682  0.500682  1
  Pb  Pb1  1  0.997448  0.997448  0.997448  1
  Pb  Pb2  1  0.495907  0.002453  0.002453  1
  Pb  Pb3  1  0.002453  0.002453  0.495907  1
  Pb  Pb4  1  0.002453  0.495907  0.002453  1
  W  W5  1  0.001313  0.500080  0.500080  1
  W  W6  1  0.500080  0.500080  0.001313  1
  W  W7  1  0.500080  0.001313  0.500080  1
  O  O8  1  0.853132  0.417349  0.417349  1
  O  O9  1  0.419684  0.817283  0.817283  1
  O  O10  1  0.417349  0.417349  0.853132  1
  O  O11  1  0.817283  0.817283  0.419684  1
  O  O12  1  0.817283  0.419684  0.817283  1
  O  O13  1  0.417349  0.853132  0.417349  1
  O  O14  1  0.152283  0.579118  0.579118  1
  O  O15  1  0.579229  0.185077  0.185077  1
  O  O16  1  0.579118  0.579118  0.152283  1
  O  O17  1  0.185077  0.185077  0.579229  1
  O  O18  1  0.185077  0.579229  0.185077  1
  O  O19  1  0.579118  0.152283  0.579118  1
  O  O20  1  0.122598  0.122598  0.122598  1
