# generated using pymatgen
data_Hf2Nb4Fe6Si11Ge
_symmetry_space_group_name_H-M   'P 1'
_cell_length_a   9.54874138
_cell_length_b   9.55741701
_cell_length_c   9.55741712
_cell_angle_alpha   148.79203381
_cell_angle_beta   133.29502349
_cell_angle_gamma   57.25399891
_symmetry_Int_Tables_number   1
_chemical_formula_structural   Hf2Nb4Fe6Si11Ge
_chemical_formula_sum   'Hf2 Nb4 Fe6 Si11 Ge1'
_cell_volume   326.52139994
_cell_formula_units_Z   1
loop_
 _symmetry_equiv_pos_site_id
 _symmetry_equiv_pos_as_xyz
  1  'x, y, z'
loop_
 _atom_site_type_symbol
 _atom_site_label
 _atom_site_symmetry_multiplicity
 _atom_site_fract_x
 _atom_site_fract_y
 _atom_site_fract_z
 _atom_site_occupancy
  Hf  Hf0  1  0.141779  0.141683  0.000096  1
  Hf  Hf1  1  0.858476  0.858661  0.999814  1
  Nb  Nb2  1  0.851949  0.593426  0.258524  1
  Nb  Nb3  1  0.147484  0.406535  0.740948  1
  Nb  Nb4  1  0.666103  0.406952  0.259152  1
  Nb  Nb5  1  0.333094  0.593044  0.740050  1
  Fe  Fe6  1  0.749934  0.000483  0.749451  1
  Fe  Fe7  1  0.999666  0.999871  0.499842  1
  Fe  Fe8  1  0.501298  0.503853  0.500591  1
  Fe  Fe9  1  0.501298  0.000707  0.997445  1
  Fe  Fe10  1  0.245969  0.996469  0.249500  1
  Fe  Fe11  1  0.999666  0.499824  0.999795  1
  Si  Si12  1  0.514930  0.863521  0.651410  1
  Si  Si13  1  0.210262  0.862058  0.348205  1
  Si  Si14  1  0.792773  0.137373  0.655399  1
  Si  Si15  1  0.699806  0.699616  0.000190  1
  Si  Si16  1  0.300438  0.301052  0.999386  1
  Si  Si17  1  0.498918  0.736394  0.238281  1
  Si  Si18  1  0.498918  0.260636  0.762523  1
  Si  Si19  1  0.999885  0.264036  0.263842  1
  Si  Si20  1  0.211928  0.711661  0.500267  1
  Si  Si21  1  0.999885  0.736043  0.735849  1
  Si  Si22  1  0.790433  0.289767  0.500667  1
  Ge  Ge23  1  0.485108  0.136333  0.348774  1
