# generated using pymatgen
data_Tm2Al16Pt8Rh
_symmetry_space_group_name_H-M   'P 1'
_cell_length_a   11.11842469
_cell_length_b   11.11842516
_cell_length_c   11.11842432
_cell_angle_alpha   158.56985414
_cell_angle_beta   115.76242301
_cell_angle_gamma   68.56137897
_symmetry_Int_Tables_number   1
_chemical_formula_structural   Tm2Al16Pt8Rh
_chemical_formula_sum   'Tm2 Al16 Pt8 Rh1'
_cell_volume   449.06238998
_cell_formula_units_Z   1
loop_
 _symmetry_equiv_pos_site_id
 _symmetry_equiv_pos_as_xyz
  1  'x, y, z'
loop_
 _atom_site_type_symbol
 _atom_site_label
 _atom_site_symmetry_multiplicity
 _atom_site_fract_x
 _atom_site_fract_y
 _atom_site_fract_z
 _atom_site_occupancy
  Tm  Tm0  1  0.228877  0.228783  0.000094  1
  Tm  Tm1  1  0.771311  0.771217  0.000094  1
  Al  Al2  1  0.270936  0.390282  0.880654  1
  Al  Al3  1  0.090554  0.920770  0.169785  1
  Al  Al4  1  0.511538  0.204426  0.307114  1
  Al  Al5  1  0.249014  0.079230  0.169785  1
  Al  Al6  1  0.911620  0.414123  0.497497  1
  Al  Al7  1  0.727008  0.605152  0.121856  1
  Al  Al8  1  0.896830  0.205246  0.691585  1
  Al  Al9  1  0.486341  0.794754  0.691585  1
  Al  Al10  1  0.387802  0.000000  0.387802  1
  Al  Al11  1  0.620663  0.000000  0.620663  1
  Al  Al12  1  0.490373  0.609718  0.880654  1
  Al  Al13  1  0.102687  0.795574  0.307114  1
  Al  Al14  1  0.905165  0.080823  0.824342  1
  Al  Al15  1  0.743520  0.919177  0.824342  1
  Al  Al16  1  0.516704  0.394848  0.121856  1
  Al  Al17  1  0.083374  0.585877  0.497497  1
  Pt  Pt18  1  0.020684  0.339587  0.681097  1
  Pt  Pt19  1  0.628619  0.128334  0.500285  1
  Pt  Pt20  1  0.253089  0.500000  0.753089  1
  Pt  Pt21  1  0.371951  0.871666  0.500285  1
  Pt  Pt22  1  0.995229  0.000000  0.995229  1
  Pt  Pt23  1  0.655119  0.338509  0.316609  1
  Pt  Pt24  1  0.341510  0.660413  0.681097  1
  Pt  Pt25  1  0.978100  0.661491  0.316609  1
  Rh  Rh26  1  0.761380  0.500000  0.261380  1
