# generated using pymatgen
data_CaZrReB6
_symmetry_space_group_name_H-M   'P 1'
_cell_length_a   3.58666000
_cell_length_b   9.10449300
_cell_length_c   11.48456300
_cell_angle_alpha   90.00000000
_cell_angle_beta   90.00000000
_cell_angle_gamma   90.00000000
_symmetry_Int_Tables_number   1
_chemical_formula_structural   CaZrReB6
_chemical_formula_sum   'Ca4 Zr4 Re4 B24'
_cell_volume   375.02519900
_cell_formula_units_Z   4
loop_
 _symmetry_equiv_pos_site_id
 _symmetry_equiv_pos_as_xyz
  1  'x, y, z'
loop_
 _atom_site_type_symbol
 _atom_site_label
 _atom_site_symmetry_multiplicity
 _atom_site_fract_x
 _atom_site_fract_y
 _atom_site_fract_z
 _atom_site_occupancy
  Ca  Ca0  1  0.000000  0.323809  0.415467  1
  Ca  Ca1  1  0.000000  0.676191  0.584533  1
  Ca  Ca2  1  0.000000  0.823809  0.084533  1
  Ca  Ca3  1  0.000000  0.176191  0.915467  1
  Zr  Zr4  1  0.000000  0.944984  0.369390  1
  Zr  Zr5  1  0.000000  0.055016  0.630610  1
  Zr  Zr6  1  0.000000  0.444984  0.130610  1
  Zr  Zr7  1  0.000000  0.555016  0.869390  1
  Re  Re8  1  0.000000  0.643072  0.316748  1
  Re  Re9  1  0.000000  0.356928  0.683252  1
  Re  Re10  1  0.000000  0.143072  0.183252  1
  Re  Re11  1  0.000000  0.856928  0.816748  1
  B  B12  1  0.500000  0.554876  0.432853  1
  B  B13  1  0.500000  0.445124  0.567147  1
  B  B14  1  0.500000  0.054876  0.067147  1
  B  B15  1  0.500000  0.945124  0.932853  1
  B  B16  1  0.500000  0.753325  0.417448  1
  B  B17  1  0.500000  0.246675  0.582552  1
  B  B18  1  0.500000  0.253325  0.082552  1
  B  B19  1  0.500000  0.746675  0.917448  1
  B  B20  1  0.500000  0.796167  0.263369  1
  B  B21  1  0.500000  0.203833  0.736631  1
  B  B22  1  0.500000  0.296167  0.236631  1
  B  B23  1  0.500000  0.703833  0.763369  1
  B  B24  1  0.500000  0.631588  0.183235  1
  B  B25  1  0.500000  0.368412  0.816765  1
  B  B26  1  0.500000  0.131588  0.316765  1
  B  B27  1  0.500000  0.868412  0.683235  1
  B  B28  1  0.500000  0.983816  0.212389  1
  B  B29  1  0.500000  0.016184  0.787611  1
  B  B30  1  0.500000  0.483816  0.287611  1
  B  B31  1  0.500000  0.516184  0.712389  1
  B  B32  1  0.500000  0.596648  0.025520  1
  B  B33  1  0.500000  0.403352  0.974480  1
  B  B34  1  0.500000  0.096648  0.474480  1
  B  B35  1  0.500000  0.903352  0.525520  1
