# generated using pymatgen
data_Pr3Nd2SiPb3
_symmetry_space_group_name_H-M   'P 1'
_cell_length_a   9.77096444
_cell_length_b   9.76590627
_cell_length_c   6.64883300
_cell_angle_alpha   90.00000000
_cell_angle_beta   90.00000000
_cell_angle_gamma   119.98287655
_symmetry_Int_Tables_number   1
_chemical_formula_structural   Pr3Nd2SiPb3
_chemical_formula_sum   'Pr6 Nd4 Si2 Pb6'
_cell_volume   549.54207769
_cell_formula_units_Z   2
loop_
 _symmetry_equiv_pos_site_id
 _symmetry_equiv_pos_as_xyz
  1  'x, y, z'
loop_
 _atom_site_type_symbol
 _atom_site_label
 _atom_site_symmetry_multiplicity
 _atom_site_fract_x
 _atom_site_fract_y
 _atom_site_fract_z
 _atom_site_occupancy
  Pr  Pr0  1  0.666723  0.333271  0.500626  1
  Pr  Pr1  1  0.333277  0.666549  0.500626  1
  Pr  Pr2  1  0.333277  0.666549  0.999374  1
  Pr  Pr3  1  0.666723  0.333271  0.999374  1
  Pr  Pr4  1  0.750006  0.750085  0.250000  1
  Pr  Pr5  1  0.249994  0.000079  0.250000  1
  Nd  Nd6  1  0.000000  0.248994  0.250000  1
  Nd  Nd7  1  0.249471  0.249551  0.750000  1
  Nd  Nd8  1  0.750529  0.000080  0.750000  1
  Nd  Nd9  1  0.000000  0.750791  0.750000  1
  Si  Si10  1  0.000000  0.000544  0.501877  1
  Si  Si11  1  0.000000  0.000544  0.998123  1
  Pb  Pb12  1  0.389305  0.389877  0.250000  1
  Pb  Pb13  1  0.610695  0.000572  0.250000  1
  Pb  Pb14  1  0.000000  0.609191  0.250000  1
  Pb  Pb15  1  0.610258  0.610338  0.750000  1
  Pb  Pb16  1  0.389742  0.000080  0.750000  1
  Pb  Pb17  1  0.000000  0.389634  0.750000  1
