# generated using pymatgen
data_Y7Tm9Cd4NiIr3
_symmetry_space_group_name_H-M   'P 1'
_cell_length_a   9.52166941
_cell_length_b   9.58374276
_cell_length_c   9.59774900
_cell_angle_alpha   59.95164703
_cell_angle_beta   59.73533750
_cell_angle_gamma   59.78107802
_symmetry_Int_Tables_number   1
_chemical_formula_structural   Y7Tm9Cd4NiIr3
_chemical_formula_sum   'Y7 Tm9 Cd4 Ni1 Ir3'
_cell_volume   616.80487514
_cell_formula_units_Z   1
loop_
 _symmetry_equiv_pos_site_id
 _symmetry_equiv_pos_as_xyz
  1  'x, y, z'
loop_
 _atom_site_type_symbol
 _atom_site_label
 _atom_site_symmetry_multiplicity
 _atom_site_fract_x
 _atom_site_fract_y
 _atom_site_fract_z
 _atom_site_occupancy
  Y  Y0  1  0.059352  0.063440  0.438604  1
  Y  Y1  1  0.191690  0.808540  0.810798  1
  Y  Y2  1  0.808097  0.189993  0.186978  1
  Y  Y3  1  0.808097  0.189993  0.814932  1
  Y  Y4  1  0.191690  0.808540  0.188973  1
  Y  Y5  1  0.809240  0.813793  0.188483  1
  Y  Y6  1  0.191096  0.190340  0.809282  1
  Tm  Tm7  1  0.602143  0.596519  0.595515  1
  Tm  Tm8  1  0.602143  0.596519  0.205823  1
  Tm  Tm9  1  0.600992  0.205228  0.596890  1
  Tm  Tm10  1  0.204188  0.598460  0.598675  1
  Tm  Tm11  1  0.059571  0.438498  0.438798  1
  Tm  Tm12  1  0.437328  0.061004  0.061648  1
  Tm  Tm13  1  0.437328  0.061004  0.440019  1
  Tm  Tm14  1  0.059571  0.438498  0.063132  1
  Tm  Tm15  1  0.437308  0.439520  0.061586  1
  Cd  Cd16  1  0.828778  0.830371  0.831255  1
  Cd  Cd17  1  0.828778  0.830371  0.509594  1
  Cd  Cd18  1  0.829533  0.507831  0.831317  1
  Cd  Cd19  1  0.507290  0.830647  0.831032  1
  Ni  Ni20  1  0.823878  0.394304  0.390910  1
  Ir  Ir21  1  0.392743  0.391973  0.391134  1
  Ir  Ir22  1  0.392743  0.391973  0.824152  1
  Ir  Ir23  1  0.396425  0.822637  0.390470  1
