# generated using pymatgen
data_NdSm3(Ni7P4)2
_symmetry_space_group_name_H-M   'P 1'
_cell_length_a   3.73502200
_cell_length_b   9.20773120
_cell_length_c   10.36934606
_cell_angle_alpha   89.95160259
_cell_angle_beta   90.00000000
_cell_angle_gamma   90.00000000
_symmetry_Int_Tables_number   1
_chemical_formula_structural   NdSm3(Ni7P4)2
_chemical_formula_sum   'Nd1 Sm3 Ni14 P8'
_cell_volume   356.61286843
_cell_formula_units_Z   1
loop_
 _symmetry_equiv_pos_site_id
 _symmetry_equiv_pos_as_xyz
  1  'x, y, z'
loop_
 _atom_site_type_symbol
 _atom_site_label
 _atom_site_symmetry_multiplicity
 _atom_site_fract_x
 _atom_site_fract_y
 _atom_site_fract_z
 _atom_site_occupancy
  Nd  Nd0  1  0.500000  0.436273  0.499677  1
  Sm  Sm1  1  0.500000  0.059155  0.282624  1
  Sm  Sm2  1  0.000000  0.941451  0.783084  1
  Sm  Sm3  1  0.000000  0.564924  0.999724  1
  Ni  Ni4  1  0.500000  0.305454  0.073708  1
  Ni  Ni5  1  0.500000  0.747438  0.402821  1
  Ni  Ni6  1  0.500000  0.417253  0.806954  1
  Ni  Ni7  1  0.500000  0.058320  0.979305  1
  Ni  Ni8  1  0.500000  0.684587  0.765197  1
  Ni  Ni9  1  0.000000  0.272703  0.670680  1
  Ni  Ni10  1  0.000000  0.254463  0.903390  1
  Ni  Ni11  1  0.000000  0.695698  0.577017  1
  Ni  Ni12  1  0.500000  0.095198  0.585422  1
  Ni  Ni13  1  0.000000  0.315552  0.262265  1
  Ni  Ni14  1  0.000000  0.583567  0.302119  1
  Ni  Ni15  1  0.000000  0.903312  0.084873  1
  Ni  Ni16  1  0.000000  0.940620  0.479017  1
  Ni  Ni17  1  0.500000  0.726274  0.169722  1
  P  P18  1  0.000000  0.818420  0.288070  1
  P  P19  1  0.000000  0.186473  0.467535  1
  P  P20  1  0.500000  0.182186  0.788482  1
  P  P21  1  0.000000  0.155654  0.091040  1
  P  P22  1  0.500000  0.478242  0.215110  1
  P  P23  1  0.500000  0.811944  0.967033  1
  P  P24  1  0.500000  0.843139  0.591881  1
  P  P25  1  0.000000  0.521701  0.718650  1
