# generated using pymatgen
data_YEr2Tm2Re2C7
_symmetry_space_group_name_H-M   'P 1'
_cell_length_a   8.26722406
_cell_length_b   8.27421470
_cell_length_c   3.38938500
_cell_angle_alpha   90.00000000
_cell_angle_beta   90.00000000
_cell_angle_gamma   122.24152308
_symmetry_Int_Tables_number   1
_chemical_formula_structural   YEr2Tm2Re2C7
_chemical_formula_sum   'Y1 Er2 Tm2 Re2 C7'
_cell_volume   196.10043149
_cell_formula_units_Z   1
loop_
 _symmetry_equiv_pos_site_id
 _symmetry_equiv_pos_as_xyz
  1  'x, y, z'
loop_
 _atom_site_type_symbol
 _atom_site_label
 _atom_site_symmetry_multiplicity
 _atom_site_fract_x
 _atom_site_fract_y
 _atom_site_fract_z
 _atom_site_occupancy
  Y  Y0  1  0.500000  0.500000  0.000000  1
  Er  Er1  1  0.664728  0.923115  0.500000  1
  Er  Er2  1  0.335272  0.076885  0.500000  1
  Tm  Tm3  1  0.077224  0.337122  0.500000  1
  Tm  Tm4  1  0.922776  0.662878  0.500000  1
  Re  Re5  1  0.715883  0.284202  0.000000  1
  Re  Re6  1  0.284117  0.715798  0.000000  1
  C  C7  1  0.626876  0.373381  0.500000  1
  C  C8  1  0.373124  0.626619  0.500000  1
  C  C9  1  0.000000  0.000000  0.000000  1
  C  C10  1  0.168811  0.170773  0.000000  1
  C  C11  1  0.831189  0.829227  0.000000  1
  C  C12  1  0.000000  0.500000  0.000000  1
  C  C13  1  0.500000  0.000000  0.000000  1
