# generated using pymatgen
data_Ca16Yb4(CdAg3)3
_symmetry_space_group_name_H-M   'P 1'
_cell_length_a   8.09278400
_cell_length_b   8.09278400
_cell_length_c   14.80853900
_cell_angle_alpha   90.00000000
_cell_angle_beta   90.00000000
_cell_angle_gamma   90.00000000
_symmetry_Int_Tables_number   1
_chemical_formula_structural   Ca16Yb4(CdAg3)3
_chemical_formula_sum   'Ca16 Yb4 Cd3 Ag9'
_cell_volume   969.85790852
_cell_formula_units_Z   1
loop_
 _symmetry_equiv_pos_site_id
 _symmetry_equiv_pos_as_xyz
  1  'x, y, z'
loop_
 _atom_site_type_symbol
 _atom_site_label
 _atom_site_symmetry_multiplicity
 _atom_site_fract_x
 _atom_site_fract_y
 _atom_site_fract_z
 _atom_site_occupancy
  Ca  Ca0  1  0.670846  0.163262  0.105806  1
  Ca  Ca1  1  0.168191  0.667204  0.608494  1
  Ca  Ca2  1  0.329154  0.836738  0.105806  1
  Ca  Ca3  1  0.831809  0.332796  0.608494  1
  Ca  Ca4  1  0.836738  0.670846  0.105806  1
  Ca  Ca5  1  0.332796  0.168191  0.608494  1
  Ca  Ca6  1  0.163262  0.329154  0.105806  1
  Ca  Ca7  1  0.667204  0.831809  0.608494  1
  Ca  Ca8  1  0.836738  0.329154  0.894194  1
  Ca  Ca9  1  0.332796  0.831809  0.391506  1
  Ca  Ca10  1  0.163262  0.670846  0.894194  1
  Ca  Ca11  1  0.667204  0.168191  0.391506  1
  Ca  Ca12  1  0.670846  0.836738  0.894194  1
  Ca  Ca13  1  0.168191  0.332796  0.391506  1
  Ca  Ca14  1  0.329154  0.163262  0.894194  1
  Ca  Ca15  1  0.831809  0.667204  0.391506  1
  Yb  Yb16  1  0.500000  0.500000  0.754292  1
  Yb  Yb17  1  0.000000  0.000000  0.250798  1
  Yb  Yb18  1  0.000000  0.000000  0.749202  1
  Yb  Yb19  1  0.500000  0.500000  0.245708  1
  Cd  Cd20  1  0.500000  0.500000  0.500000  1
  Cd  Cd21  1  0.500000  0.500000  0.000000  1
  Cd  Cd22  1  0.000000  0.000000  0.500000  1
  Ag  Ag23  1  0.626704  0.127405  0.751425  1
  Ag  Ag24  1  0.127405  0.626704  0.248575  1
  Ag  Ag25  1  0.872595  0.373296  0.248575  1
  Ag  Ag26  1  0.373296  0.872595  0.751425  1
  Ag  Ag27  1  0.872595  0.626704  0.751425  1
  Ag  Ag28  1  0.373296  0.127405  0.248575  1
  Ag  Ag29  1  0.127405  0.373296  0.751425  1
  Ag  Ag30  1  0.626704  0.872595  0.248575  1
  Ag  Ag31  1  0.000000  0.000000  0.000000  1
