# generated using pymatgen
data_CePr8(IrO8)3
_symmetry_space_group_name_H-M   'P 1'
_cell_length_a   5.53996254
_cell_length_b   9.52848716
_cell_length_c   10.41295856
_cell_angle_alpha   89.07226855
_cell_angle_beta   89.75933681
_cell_angle_gamma   90.26205788
_symmetry_Int_Tables_number   1
_chemical_formula_structural   CePr8(IrO8)3
_chemical_formula_sum   'Ce1 Pr8 Ir3 O24'
_cell_volume   549.59082768
_cell_formula_units_Z   1
loop_
 _symmetry_equiv_pos_site_id
 _symmetry_equiv_pos_as_xyz
  1  'x, y, z'
loop_
 _atom_site_type_symbol
 _atom_site_label
 _atom_site_symmetry_multiplicity
 _atom_site_fract_x
 _atom_site_fract_y
 _atom_site_fract_z
 _atom_site_occupancy
  Ce  Ce0  1  0.032347  0.484094  0.653578  1
  Pr  Pr1  1  0.041125  0.216399  0.128605  1
  Pr  Pr2  1  0.463725  0.770807  0.633462  1
  Pr  Pr3  1  0.964245  0.717209  0.372212  1
  Pr  Pr4  1  0.532764  0.284966  0.859982  1
  Pr  Pr5  1  0.031108  0.103754  0.537484  1
  Pr  Pr6  1  0.475276  0.901350  0.034965  1
  Pr  Pr7  1  0.985432  0.608743  0.967393  1
  Pr  Pr8  1  0.520444  0.403457  0.458957  1
  Ir  Ir9  1  0.543543  0.000603  0.352770  1
  Ir  Ir10  1  0.959093  0.000278  0.857841  1
  Ir  Ir11  1  0.459723  0.502256  0.144015  1
  O  O12  1  0.431087  0.150179  0.457501  1
  O  O13  1  0.061349  0.857679  0.984196  1
  O  O14  1  0.563840  0.651066  0.028541  1
  O  O15  1  0.909108  0.330664  0.505727  1
  O  O16  1  0.718263  0.387186  0.081537  1
  O  O17  1  0.751555  0.615529  0.547831  1
  O  O18  1  0.278844  0.892468  0.432388  1
  O  O19  1  0.223706  0.111661  0.935930  1
  O  O20  1  0.255610  0.411687  0.009306  1
  O  O21  1  0.252547  0.600689  0.502916  1
  O  O22  1  0.748896  0.916577  0.490048  1
  O  O23  1  0.751480  0.091202  0.991534  1
  O  O24  1  0.193445  0.626365  0.182897  1
  O  O25  1  0.347206  0.335312  0.665405  1
  O  O26  1  0.813624  0.118776  0.309616  1
  O  O27  1  0.691005  0.875661  0.822544  1
  O  O28  1  0.341308  0.055647  0.210087  1
  O  O29  1  0.161787  0.944357  0.720569  1
  O  O30  1  0.660633  0.561558  0.279256  1
  O  O31  1  0.802584  0.463155  0.821348  1
  O  O32  1  0.320804  0.362322  0.255386  1
  O  O33  1  0.207562  0.642327  0.776730  1
  O  O34  1  0.661646  0.856825  0.242731  1
  O  O35  1  0.843287  0.147191  0.744716  1
