# generated using pymatgen
data_Zr3Sn3Ir2Rh
_symmetry_space_group_name_H-M   'P 1'
_cell_length_a   7.43030400
_cell_length_b   7.43030398
_cell_length_c   7.30318800
_cell_angle_alpha   90.00000000
_cell_angle_beta   90.00000000
_cell_angle_gamma   120.00000008
_symmetry_Int_Tables_number   1
_chemical_formula_structural   Zr3Sn3Ir2Rh
_chemical_formula_sum   'Zr6 Sn6 Ir4 Rh2'
_cell_volume   349.18556010
_cell_formula_units_Z   2
loop_
 _symmetry_equiv_pos_site_id
 _symmetry_equiv_pos_as_xyz
  1  'x, y, z'
loop_
 _atom_site_type_symbol
 _atom_site_label
 _atom_site_symmetry_multiplicity
 _atom_site_fract_x
 _atom_site_fract_y
 _atom_site_fract_z
 _atom_site_occupancy
  Zr  Zr0  1  0.591074  0.978372  0.750000  1
  Zr  Zr1  1  0.387298  0.408926  0.750000  1
  Zr  Zr2  1  0.021628  0.612702  0.750000  1
  Zr  Zr3  1  0.612702  0.021628  0.250000  1
  Zr  Zr4  1  0.408926  0.387298  0.250000  1
  Zr  Zr5  1  0.978372  0.591074  0.250000  1
  Sn  Sn6  1  0.269542  0.000000  0.000000  1
  Sn  Sn7  1  0.730458  0.730458  0.500000  1
  Sn  Sn8  1  0.000000  0.269542  0.500000  1
  Sn  Sn9  1  0.000000  0.269542  0.000000  1
  Sn  Sn10  1  0.730458  0.730458  0.000000  1
  Sn  Sn11  1  0.269542  0.000000  0.500000  1
  Ir  Ir12  1  0.666667  0.333333  0.960942  1
  Ir  Ir13  1  0.666667  0.333333  0.539058  1
  Ir  Ir14  1  0.333333  0.666667  0.039058  1
  Ir  Ir15  1  0.333333  0.666667  0.460942  1
  Rh  Rh16  1  0.000000  0.000000  0.750000  1
  Rh  Rh17  1  0.000000  0.000000  0.250000  1
