# generated using pymatgen
data_Y8Si12Ir3Pt
_symmetry_space_group_name_H-M   'P 1'
_cell_length_a   8.18242800
_cell_length_b   8.18242792
_cell_length_c   7.98279200
_cell_angle_alpha   90.00000000
_cell_angle_beta   90.00000000
_cell_angle_gamma   119.99999223
_symmetry_Int_Tables_number   1
_chemical_formula_structural   Y8Si12Ir3Pt
_chemical_formula_sum   'Y8 Si12 Ir3 Pt1'
_cell_volume   462.86022270
_cell_formula_units_Z   1
loop_
 _symmetry_equiv_pos_site_id
 _symmetry_equiv_pos_as_xyz
  1  'x, y, z'
loop_
 _atom_site_type_symbol
 _atom_site_label
 _atom_site_symmetry_multiplicity
 _atom_site_fract_x
 _atom_site_fract_y
 _atom_site_fract_z
 _atom_site_occupancy
  Y  Y0  1  0.000000  0.000000  0.249412  1
  Y  Y1  1  0.000000  0.000000  0.749325  1
  Y  Y2  1  0.510510  0.489490  0.252217  1
  Y  Y3  1  0.510510  0.021019  0.252217  1
  Y  Y4  1  0.978981  0.489490  0.252217  1
  Y  Y5  1  0.491491  0.508509  0.748036  1
  Y  Y6  1  0.491491  0.982983  0.748036  1
  Y  Y7  1  0.017017  0.508509  0.748036  1
  Si  Si8  1  0.166799  0.833201  0.498871  1
  Si  Si9  1  0.166799  0.333597  0.498871  1
  Si  Si10  1  0.666403  0.833201  0.498871  1
  Si  Si11  1  0.833314  0.166686  0.500877  1
  Si  Si12  1  0.833314  0.666628  0.500877  1
  Si  Si13  1  0.333372  0.166686  0.500877  1
  Si  Si14  1  0.832536  0.167464  0.999749  1
  Si  Si15  1  0.832536  0.665073  0.999749  1
  Si  Si16  1  0.334927  0.167464  0.999749  1
  Si  Si17  1  0.164712  0.835288  0.999656  1
  Si  Si18  1  0.164712  0.329424  0.999656  1
  Si  Si19  1  0.670576  0.835288  0.999656  1
  Ir  Ir20  1  0.333333  0.666667  0.470292  1
  Ir  Ir21  1  0.666667  0.333333  0.533166  1
  Ir  Ir22  1  0.666667  0.333333  0.966106  1
  Pt  Pt23  1  0.333333  0.666667  0.033480  1
