# generated using pymatgen
data_Lu6Ni20As13
_symmetry_space_group_name_H-M   'P 1'
_cell_length_a   13.07988000
_cell_length_b   13.07988056
_cell_length_c   3.81409900
_cell_angle_alpha   90.00000000
_cell_angle_beta   90.00000000
_cell_angle_gamma   119.99999859
_symmetry_Int_Tables_number   1
_chemical_formula_structural   Lu6Ni20As13
_chemical_formula_sum   'Lu6 Ni20 As13'
_cell_volume   565.10628449
_cell_formula_units_Z   1
loop_
 _symmetry_equiv_pos_site_id
 _symmetry_equiv_pos_as_xyz
  1  'x, y, z'
loop_
 _atom_site_type_symbol
 _atom_site_label
 _atom_site_symmetry_multiplicity
 _atom_site_fract_x
 _atom_site_fract_y
 _atom_site_fract_z
 _atom_site_occupancy
  Lu  Lu0  1  0.527653  0.809157  0.000000  1
  Lu  Lu1  1  0.281505  0.472347  0.000000  1
  Lu  Lu2  1  0.190843  0.718495  0.000000  1
  Lu  Lu3  1  0.809645  0.281682  0.500000  1
  Lu  Lu4  1  0.472037  0.190355  0.500000  1
  Lu  Lu5  1  0.718318  0.527963  0.500000  1
  Ni  Ni6  1  0.800083  0.907257  0.000000  1
  Ni  Ni7  1  0.107173  0.199917  0.000000  1
  Ni  Ni8  1  0.092743  0.892827  0.000000  1
  Ni  Ni9  1  0.333333  0.666667  0.500000  1
  Ni  Ni10  1  0.928040  0.084163  0.500000  1
  Ni  Ni11  1  0.156123  0.071960  0.500000  1
  Ni  Ni12  1  0.915837  0.843877  0.500000  1
  Ni  Ni13  1  0.666667  0.333333  0.000000  1
  Ni  Ni14  1  0.563422  0.581892  0.000000  1
  Ni  Ni15  1  0.018470  0.436578  0.000000  1
  Ni  Ni16  1  0.418108  0.981530  0.000000  1
  Ni  Ni17  1  0.680481  0.751022  0.500000  1
  Ni  Ni18  1  0.070542  0.319519  0.500000  1
  Ni  Ni19  1  0.248978  0.929458  0.500000  1
  Ni  Ni20  1  0.980501  0.564930  0.500000  1
  Ni  Ni21  1  0.584430  0.019499  0.500000  1
  Ni  Ni22  1  0.435070  0.415570  0.500000  1
  Ni  Ni23  1  0.753943  0.076240  0.000000  1
  Ni  Ni24  1  0.322298  0.246057  0.000000  1
  Ni  Ni25  1  0.923760  0.677702  0.000000  1
  As  As26  1  0.474311  0.613624  0.500000  1
  As  As27  1  0.139313  0.525689  0.500000  1
  As  As28  1  0.386376  0.860687  0.500000  1
  As  As29  1  0.716325  0.948933  0.500000  1
  As  As30  1  0.232609  0.283675  0.500000  1
  As  As31  1  0.051067  0.767391  0.500000  1
  As  As32  1  0.859945  0.474442  0.000000  1
  As  As33  1  0.614497  0.140055  0.000000  1
  As  As34  1  0.525558  0.385503  0.000000  1
  As  As35  1  0.946280  0.231784  0.000000  1
  As  As36  1  0.285504  0.053720  0.000000  1
  As  As37  1  0.768216  0.714496  0.000000  1
  As  As38  1  0.000000  0.000000  0.000000  1
