# generated using pymatgen
data_Tm2Ga10OsRu2
_symmetry_space_group_name_H-M   'P 1'
_cell_length_a   8.90293500
_cell_length_b   8.90293500
_cell_length_c   6.36951200
_cell_angle_alpha   90.00000000
_cell_angle_beta   90.00000000
_cell_angle_gamma   90.00000000
_symmetry_Int_Tables_number   1
_chemical_formula_structural   Tm2Ga10OsRu2
_chemical_formula_sum   'Tm4 Ga20 Os2 Ru4'
_cell_volume   504.86186280
_cell_formula_units_Z   2
loop_
 _symmetry_equiv_pos_site_id
 _symmetry_equiv_pos_as_xyz
  1  'x, y, z'
loop_
 _atom_site_type_symbol
 _atom_site_label
 _atom_site_symmetry_multiplicity
 _atom_site_fract_x
 _atom_site_fract_y
 _atom_site_fract_z
 _atom_site_occupancy
  Tm  Tm0  1  0.183509  0.316491  0.000000  1
  Tm  Tm1  1  0.683509  0.183509  0.000000  1
  Tm  Tm2  1  0.816491  0.683509  0.000000  1
  Tm  Tm3  1  0.316491  0.816491  0.000000  1
  Ga  Ga4  1  0.500000  0.000000  0.283249  1
  Ga  Ga5  1  0.500000  0.000000  0.716751  1
  Ga  Ga6  1  0.292867  0.561327  0.707212  1
  Ga  Ga7  1  0.000000  0.500000  0.283249  1
  Ga  Ga8  1  0.000000  0.500000  0.716751  1
  Ga  Ga9  1  0.061327  0.792867  0.707212  1
  Ga  Ga10  1  0.207133  0.061327  0.292788  1
  Ga  Ga11  1  0.061327  0.792867  0.292788  1
  Ga  Ga12  1  0.707133  0.438673  0.707212  1
  Ga  Ga13  1  0.207133  0.061327  0.707212  1
  Ga  Ga14  1  0.938673  0.207133  0.707212  1
  Ga  Ga15  1  0.707133  0.438673  0.292788  1
  Ga  Ga16  1  0.561327  0.707133  0.292788  1
  Ga  Ga17  1  0.938673  0.207133  0.292788  1
  Ga  Ga18  1  0.561327  0.707133  0.707212  1
  Ga  Ga19  1  0.792867  0.938673  0.292788  1
  Ga  Ga20  1  0.438673  0.292867  0.707212  1
  Ga  Ga21  1  0.792867  0.938673  0.707212  1
  Ga  Ga22  1  0.438673  0.292867  0.292788  1
  Ga  Ga23  1  0.292867  0.561327  0.292788  1
  Os  Os24  1  0.000000  0.000000  0.000000  1
  Os  Os25  1  0.500000  0.500000  0.000000  1
  Ru  Ru26  1  0.178104  0.321896  0.500000  1
  Ru  Ru27  1  0.321896  0.821896  0.500000  1
  Ru  Ru28  1  0.821896  0.678104  0.500000  1
  Ru  Ru29  1  0.678104  0.178104  0.500000  1
