# generated using pymatgen
data_Zr6Nb4Sn6Se
_symmetry_space_group_name_H-M   'P 1'
_cell_length_a   5.73347500
_cell_length_b   8.48823989
_cell_length_c   8.48827600
_cell_angle_alpha   119.99899937
_cell_angle_beta   90.00036081
_cell_angle_gamma   90.00008598
_symmetry_Int_Tables_number   1
_chemical_formula_structural   Zr6Nb4Sn6Se
_chemical_formula_sum   'Zr6 Nb4 Sn6 Se1'
_cell_volume   357.75859075
_cell_formula_units_Z   1
loop_
 _symmetry_equiv_pos_site_id
 _symmetry_equiv_pos_as_xyz
  1  'x, y, z'
loop_
 _atom_site_type_symbol
 _atom_site_label
 _atom_site_symmetry_multiplicity
 _atom_site_fract_x
 _atom_site_fract_y
 _atom_site_fract_z
 _atom_site_occupancy
  Zr  Zr0  1  0.764808  0.256876  0.999999  1
  Zr  Zr1  1  0.764806  0.743117  0.743128  1
  Zr  Zr2  1  0.764803  0.000003  0.256886  1
  Zr  Zr3  1  0.235190  0.743115  0.999988  1
  Zr  Zr4  1  0.235192  0.256877  0.256880  1
  Zr  Zr5  1  0.235200  0.000009  0.743120  1
  Nb  Nb6  1  0.500006  0.333335  0.666669  1
  Nb  Nb7  1  0.499994  0.666667  0.333330  1
  Nb  Nb8  1  0.999994  0.666667  0.333330  1
  Nb  Nb9  1  0.000005  0.333335  0.666669  1
  Sn  Sn10  1  0.748405  0.604547  0.000022  1
  Sn  Sn11  1  0.748410  0.395477  0.395454  1
  Sn  Sn12  1  0.748411  0.999976  0.604525  1
  Sn  Sn13  1  0.251594  0.395473  0.000024  1
  Sn  Sn14  1  0.251590  0.604547  0.604524  1
  Sn  Sn15  1  0.251588  0.999981  0.395454  1
  Se  Se16  1  0.500000  0.999999  0.000001  1
