# generated using pymatgen
data_Ho3In3Ru2Au
_symmetry_space_group_name_H-M   'P 1'
_cell_length_a   7.71644800
_cell_length_b   7.71644714
_cell_length_c   3.84203400
_cell_angle_alpha   90.00000000
_cell_angle_beta   90.00000000
_cell_angle_gamma   120.00000369
_symmetry_Int_Tables_number   1
_chemical_formula_structural   Ho3In3Ru2Au
_chemical_formula_sum   'Ho3 In3 Ru2 Au1'
_cell_volume   198.11923329
_cell_formula_units_Z   1
loop_
 _symmetry_equiv_pos_site_id
 _symmetry_equiv_pos_as_xyz
  1  'x, y, z'
loop_
 _atom_site_type_symbol
 _atom_site_label
 _atom_site_symmetry_multiplicity
 _atom_site_fract_x
 _atom_site_fract_y
 _atom_site_fract_z
 _atom_site_occupancy
  Ho  Ho0  1  0.413566  0.387123  0.500000  1
  Ho  Ho1  1  0.612877  0.026443  0.500000  1
  Ho  Ho2  1  0.973557  0.586434  0.500000  1
  In  In3  1  0.742724  0.737537  0.000000  1
  In  In4  1  0.262463  0.005186  0.000000  1
  In  In5  1  0.994814  0.257276  0.000000  1
  Ru  Ru6  1  0.666667  0.333333  0.000000  1
  Ru  Ru7  1  0.000000  0.000000  0.500000  1
  Au  Au8  1  0.333333  0.666667  0.000000  1
