# generated using pymatgen
data_Cs2SnAs4O13
_symmetry_space_group_name_H-M   'P 1'
_cell_length_a   5.48948801
_cell_length_b   8.46806668
_cell_length_c   16.57421600
_cell_angle_alpha   83.79367554
_cell_angle_beta   83.82956548
_cell_angle_gamma   80.76435429
_symmetry_Int_Tables_number   1
_chemical_formula_structural   Cs2SnAs4O13
_chemical_formula_sum   'Cs4 Sn2 As8 O26'
_cell_volume   752.81709383
_cell_formula_units_Z   2
loop_
 _symmetry_equiv_pos_site_id
 _symmetry_equiv_pos_as_xyz
  1  'x, y, z'
loop_
 _atom_site_type_symbol
 _atom_site_label
 _atom_site_symmetry_multiplicity
 _atom_site_fract_x
 _atom_site_fract_y
 _atom_site_fract_z
 _atom_site_occupancy
  Cs  Cs0  1  0.322053  0.255686  0.010820  1
  Cs  Cs1  1  0.736341  0.697815  0.471111  1
  Cs  Cs2  1  0.263658  0.302183  0.528889  1
  Cs  Cs3  1  0.677948  0.744313  0.989180  1
  Sn  Sn4  1  0.441943  0.056313  0.261641  1
  Sn  Sn5  1  0.558058  0.943688  0.738359  1
  As  As6  1  0.009176  0.905049  0.161323  1
  As  As7  1  0.673281  0.406158  0.189187  1
  As  As8  1  0.312819  0.667756  0.289521  1
  As  As9  1  0.879037  0.216708  0.355510  1
  As  As10  1  0.120962  0.783293  0.644490  1
  As  As11  1  0.687180  0.332244  0.710479  1
  As  As12  1  0.326718  0.593842  0.810813  1
  As  As13  1  0.990823  0.094949  0.838677  1
  O  O14  1  0.115750  0.837625  0.072017  1
  O  O15  1  0.821148  0.419611  0.097030  1
  O  O16  1  0.694046  0.970976  0.166508  1
  O  O17  1  0.158180  0.055314  0.187677  1
  O  O18  1  0.444227  0.287831  0.204831  1
  O  O19  1  0.514759  0.605400  0.202382  1
  O  O20  1  0.032369  0.746067  0.244994  1
  O  O21  1  0.867178  0.370898  0.270130  1
  O  O22  1  0.434470  0.825480  0.318490  1
  O  O23  1  0.721428  0.065438  0.335709  1
  O  O24  1  0.189523  0.139978  0.355430  1
  O  O25  1  0.266405  0.529491  0.365061  1
  O  O26  1  0.781634  0.300207  0.441657  1
  O  O27  1  0.218366  0.699795  0.558342  1
  O  O28  1  0.733596  0.470507  0.634938  1
  O  O29  1  0.810481  0.860020  0.644570  1
  O  O30  1  0.278571  0.934564  0.664293  1
  O  O31  1  0.565527  0.174521  0.681510  1
  O  O32  1  0.132822  0.629103  0.729870  1
  O  O33  1  0.967630  0.253932  0.755006  1
  O  O34  1  0.485240  0.394601  0.797618  1
  O  O35  1  0.555770  0.712170  0.795168  1
  O  O36  1  0.841819  0.944685  0.812323  1
  O  O37  1  0.305953  0.029023  0.833492  1
  O  O38  1  0.178853  0.580388  0.902970  1
  O  O39  1  0.884247  0.162375  0.927983  1
