# generated using pymatgen
data_Tb8In2CoRu
_symmetry_space_group_name_H-M   'P 1'
_cell_length_a   9.66699944
_cell_length_b   9.63410693
_cell_length_c   9.63410525
_cell_angle_alpha   59.85539674
_cell_angle_beta   59.88700385
_cell_angle_gamma   59.88699385
_symmetry_Int_Tables_number   1
_chemical_formula_structural   Tb8In2CoRu
_chemical_formula_sum   'Tb16 In4 Co2 Ru2'
_cell_volume   632.67461671
_cell_formula_units_Z   2
loop_
 _symmetry_equiv_pos_site_id
 _symmetry_equiv_pos_as_xyz
  1  'x, y, z'
loop_
 _atom_site_type_symbol
 _atom_site_label
 _atom_site_symmetry_multiplicity
 _atom_site_fract_x
 _atom_site_fract_y
 _atom_site_fract_z
 _atom_site_occupancy
  Tb  Tb0  1  0.442355  0.438103  0.056312  1
  Tb  Tb1  1  0.591953  0.598658  0.598658  1
  Tb  Tb2  1  0.187169  0.812831  0.812831  1
  Tb  Tb3  1  0.063230  0.056312  0.438103  1
  Tb  Tb4  1  0.441371  0.058629  0.058629  1
  Tb  Tb5  1  0.813095  0.189342  0.808118  1
  Tb  Tb6  1  0.442354  0.056312  0.438103  1
  Tb  Tb7  1  0.594863  0.207562  0.602713  1
  Tb  Tb8  1  0.813095  0.808118  0.189342  1
  Tb  Tb9  1  0.210730  0.598658  0.598658  1
  Tb  Tb10  1  0.806550  0.193450  0.193450  1
  Tb  Tb11  1  0.059779  0.440221  0.440221  1
  Tb  Tb12  1  0.189445  0.808118  0.189342  1
  Tb  Tb13  1  0.594863  0.602713  0.207562  1
  Tb  Tb14  1  0.189445  0.189342  0.808118  1
  Tb  Tb15  1  0.063230  0.438103  0.056312  1
  In  In16  1  0.832787  0.830898  0.503528  1
  In  In17  1  0.833428  0.831731  0.831731  1
  In  In18  1  0.503109  0.831731  0.831731  1
  In  In19  1  0.832787  0.503528  0.830898  1
  Co  Co20  1  0.387969  0.831955  0.392108  1
  Co  Co21  1  0.387969  0.392108  0.831955  1
  Ru  Ru22  1  0.387671  0.390788  0.390787  1
  Ru  Ru23  1  0.830755  0.390787  0.390788  1
