# generated using pymatgen
data_Tb10(SnSb)3
_symmetry_space_group_name_H-M   'P 1'
_cell_length_a   9.04076900
_cell_length_b   9.04076921
_cell_length_c   6.43896600
_cell_angle_alpha   90.00000000
_cell_angle_beta   90.00000000
_cell_angle_gamma   120.00001021
_symmetry_Int_Tables_number   1
_chemical_formula_structural   Tb10(SnSb)3
_chemical_formula_sum   'Tb10 Sn3 Sb3'
_cell_volume   455.78231978
_cell_formula_units_Z   1
loop_
 _symmetry_equiv_pos_site_id
 _symmetry_equiv_pos_as_xyz
  1  'x, y, z'
loop_
 _atom_site_type_symbol
 _atom_site_label
 _atom_site_symmetry_multiplicity
 _atom_site_fract_x
 _atom_site_fract_y
 _atom_site_fract_z
 _atom_site_occupancy
  Tb  Tb0  1  0.758438  0.000000  0.000000  1
  Tb  Tb1  1  0.000000  0.758438  0.000000  1
  Tb  Tb2  1  0.241562  0.241562  0.000000  1
  Tb  Tb3  1  0.242285  0.000000  0.500000  1
  Tb  Tb4  1  0.000000  0.242285  0.500000  1
  Tb  Tb5  1  0.757715  0.757715  0.500000  1
  Tb  Tb6  1  0.333333  0.666667  0.250875  1
  Tb  Tb7  1  0.666667  0.333333  0.250875  1
  Tb  Tb8  1  0.666667  0.333333  0.749125  1
  Tb  Tb9  1  0.333333  0.666667  0.749125  1
  Sn  Sn10  1  0.607478  0.000000  0.500000  1
  Sn  Sn11  1  0.000000  0.607478  0.500000  1
  Sn  Sn12  1  0.392522  0.392522  0.500000  1
  Sb  Sb13  1  0.392699  0.000000  0.000000  1
  Sb  Sb14  1  0.000000  0.392699  0.000000  1
  Sb  Sb15  1  0.607301  0.607301  0.000000  1
