# generated using pymatgen
data_ScAgAs2O7
_symmetry_space_group_name_H-M   'P 1'
_cell_length_a   5.69879528
_cell_length_b   5.69879560
_cell_length_c   4.93595105
_cell_angle_alpha   82.68894983
_cell_angle_beta   82.68894961
_cell_angle_gamma   102.17579672
_symmetry_Int_Tables_number   1
_chemical_formula_structural   ScAgAs2O7
_chemical_formula_sum   'Sc1 Ag1 As2 O7'
_cell_volume   153.44583796
_cell_formula_units_Z   1
loop_
 _symmetry_equiv_pos_site_id
 _symmetry_equiv_pos_as_xyz
  1  'x, y, z'
loop_
 _atom_site_type_symbol
 _atom_site_label
 _atom_site_symmetry_multiplicity
 _atom_site_fract_x
 _atom_site_fract_y
 _atom_site_fract_z
 _atom_site_occupancy
  Sc  Sc0  1  0.630825  0.369175  0.500000  1
  Ag  Ag1  1  0.243252  0.756748  0.500000  1
  As  As2  1  0.172795  0.248101  0.085743  1
  As  As3  1  0.751899  0.827205  0.914257  1
  O  O4  1  0.950271  0.363564  0.241865  1
  O  O5  1  0.327728  0.418582  0.782801  1
  O  O6  1  0.363557  0.168988  0.304336  1
  O  O7  1  0.636436  0.049729  0.758135  1
  O  O8  1  0.043984  0.956016  0.000000  1
  O  O9  1  0.831012  0.636443  0.695664  1
  O  O10  1  0.581418  0.672272  0.217199  1
