# generated using pymatgen
data_BaLi2Bi2Pb
_symmetry_space_group_name_H-M   'P 1'
_cell_length_a   5.07535100
_cell_length_b   8.17962554
_cell_length_c   8.80562464
_cell_angle_alpha   89.96767081
_cell_angle_beta   90.00000000
_cell_angle_gamma   90.00000000
_symmetry_Int_Tables_number   1
_chemical_formula_structural   BaLi2Bi2Pb
_chemical_formula_sum   'Ba2 Li4 Bi4 Pb2'
_cell_volume   365.56078770
_cell_formula_units_Z   2
loop_
 _symmetry_equiv_pos_site_id
 _symmetry_equiv_pos_as_xyz
  1  'x, y, z'
loop_
 _atom_site_type_symbol
 _atom_site_label
 _atom_site_symmetry_multiplicity
 _atom_site_fract_x
 _atom_site_fract_y
 _atom_site_fract_z
 _atom_site_occupancy
  Ba  Ba0  1  0.750000  0.000333  0.751548  1
  Ba  Ba1  1  0.250000  0.999667  0.248452  1
  Li  Li2  1  0.750000  0.358669  0.082589  1
  Li  Li3  1  0.250000  0.641331  0.917411  1
  Li  Li4  1  0.750000  0.650241  0.413810  1
  Li  Li5  1  0.250000  0.349759  0.586190  1
  Bi  Bi6  1  0.750000  0.734975  0.081988  1
  Bi  Bi7  1  0.250000  0.265025  0.918012  1
  Bi  Bi8  1  0.750000  0.263886  0.417507  1
  Bi  Bi9  1  0.250000  0.736114  0.582493  1
  Pb  Pb10  1  0.750000  0.500357  0.745831  1
  Pb  Pb11  1  0.250000  0.499643  0.254169  1
