# generated using pymatgen
data_TiNb3(PRu)4
_symmetry_space_group_name_H-M   'P 1'
_cell_length_a   3.75239600
_cell_length_b   6.34826937
_cell_length_c   7.19720941
_cell_angle_alpha   90.03891725
_cell_angle_beta   90.00000000
_cell_angle_gamma   90.00000000
_symmetry_Int_Tables_number   1
_chemical_formula_structural   TiNb3(PRu)4
_chemical_formula_sum   'Ti1 Nb3 P4 Ru4'
_cell_volume   171.44627346
_cell_formula_units_Z   1
loop_
 _symmetry_equiv_pos_site_id
 _symmetry_equiv_pos_as_xyz
  1  'x, y, z'
loop_
 _atom_site_type_symbol
 _atom_site_label
 _atom_site_symmetry_multiplicity
 _atom_site_fract_x
 _atom_site_fract_y
 _atom_site_fract_z
 _atom_site_occupancy
  Ti  Ti0  1  0.250000  0.025110  0.823041  1
  Nb  Nb1  1  0.250000  0.523363  0.672952  1
  Nb  Nb2  1  0.750000  0.976401  0.172366  1
  Nb  Nb3  1  0.750000  0.474546  0.327824  1
  P  P4  1  0.250000  0.269181  0.122049  1
  P  P5  1  0.250000  0.771559  0.376266  1
  P  P6  1  0.750000  0.734119  0.876801  1
  P  P7  1  0.750000  0.227214  0.626667  1
  Ru  Ru8  1  0.250000  0.147316  0.438876  1
  Ru  Ru9  1  0.250000  0.647915  0.059375  1
  Ru  Ru10  1  0.750000  0.853489  0.564180  1
  Ru  Ru11  1  0.750000  0.349787  0.939602  1
