# generated using pymatgen
data_YNp7(BeSi3)4
_symmetry_space_group_name_H-M   'P 1'
_cell_length_a   7.79125556
_cell_length_b   7.81449236
_cell_length_c   8.13470300
_cell_angle_alpha   90.00000000
_cell_angle_beta   90.00000000
_cell_angle_gamma   120.09870201
_symmetry_Int_Tables_number   1
_chemical_formula_structural   YNp7(BeSi3)4
_chemical_formula_sum   'Y1 Np7 Be4 Si12'
_cell_volume   428.49696499
_cell_formula_units_Z   1
loop_
 _symmetry_equiv_pos_site_id
 _symmetry_equiv_pos_as_xyz
  1  'x, y, z'
loop_
 _atom_site_type_symbol
 _atom_site_label
 _atom_site_symmetry_multiplicity
 _atom_site_fract_x
 _atom_site_fract_y
 _atom_site_fract_z
 _atom_site_occupancy
  Y  Y0  1  0.000133  0.500067  0.750000  1
  Np  Np1  1  0.000025  0.000012  0.250000  1
  Np  Np2  1  0.999994  0.999997  0.750000  1
  Np  Np3  1  0.999943  0.499971  0.250000  1
  Np  Np4  1  0.500018  0.499972  0.250000  1
  Np  Np5  1  0.499959  0.999922  0.750000  1
  Np  Np6  1  0.500018  0.000045  0.250000  1
  Np  Np7  1  0.499959  0.500038  0.750000  1
  Be  Be8  1  0.333315  0.666658  0.998913  1
  Be  Be9  1  0.333315  0.666658  0.501087  1
  Be  Be10  1  0.666688  0.333343  0.000258  1
  Be  Be11  1  0.666688  0.333343  0.499742  1
  Si  Si12  1  0.173318  0.345171  0.001221  1
  Si  Si13  1  0.654223  0.827111  0.999992  1
  Si  Si14  1  0.173318  0.345171  0.498779  1
  Si  Si15  1  0.345773  0.172887  0.999849  1
  Si  Si16  1  0.173318  0.828147  0.001221  1
  Si  Si17  1  0.654223  0.827111  0.500008  1
  Si  Si18  1  0.826670  0.654821  0.001106  1
  Si  Si19  1  0.345773  0.172887  0.500151  1
  Si  Si20  1  0.173318  0.828147  0.498779  1
  Si  Si21  1  0.826670  0.654821  0.498894  1
  Si  Si22  1  0.826670  0.171849  0.001106  1
  Si  Si23  1  0.826670  0.171849  0.498894  1
