# generated using pymatgen
data_PrThHgPd2
_symmetry_space_group_name_H-M   'P 1'
_cell_length_a   7.93161300
_cell_length_b   7.93719900
_cell_length_c   3.85335500
_cell_angle_alpha   90.00000000
_cell_angle_beta   90.00000000
_cell_angle_gamma   90.00000000
_symmetry_Int_Tables_number   1
_chemical_formula_structural   PrThHgPd2
_chemical_formula_sum   'Pr2 Th2 Hg2 Pd4'
_cell_volume   242.58715780
_cell_formula_units_Z   2
loop_
 _symmetry_equiv_pos_site_id
 _symmetry_equiv_pos_as_xyz
  1  'x, y, z'
loop_
 _atom_site_type_symbol
 _atom_site_label
 _atom_site_symmetry_multiplicity
 _atom_site_fract_x
 _atom_site_fract_y
 _atom_site_fract_z
 _atom_site_occupancy
  Pr  Pr0  1  0.176075  0.323729  0.500000  1
  Pr  Pr1  1  0.676075  0.176271  0.500000  1
  Th  Th2  1  0.325276  0.827815  0.500000  1
  Th  Th3  1  0.825276  0.672185  0.500000  1
  Hg  Hg4  1  0.997306  0.002096  0.000000  1
  Hg  Hg5  1  0.497306  0.497904  0.000000  1
  Pd  Pd6  1  0.374454  0.111119  0.000000  1
  Pd  Pd7  1  0.874454  0.388881  0.000000  1
  Pd  Pd8  1  0.126889  0.637642  0.000000  1
  Pd  Pd9  1  0.626889  0.862358  0.000000  1
