# generated using pymatgen
data_Sc4Ga17SiIr6
_symmetry_space_group_name_H-M   'P 1'
_cell_length_a   7.51149311
_cell_length_b   7.48405526
_cell_length_c   9.38785051
_cell_angle_alpha   90.07883672
_cell_angle_beta   89.79291616
_cell_angle_gamma   120.10797826
_symmetry_Int_Tables_number   1
_chemical_formula_structural   Sc4Ga17SiIr6
_chemical_formula_sum   'Sc4 Ga17 Si1 Ir6'
_cell_volume   456.54500546
_cell_formula_units_Z   1
loop_
 _symmetry_equiv_pos_site_id
 _symmetry_equiv_pos_as_xyz
  1  'x, y, z'
loop_
 _atom_site_type_symbol
 _atom_site_label
 _atom_site_symmetry_multiplicity
 _atom_site_fract_x
 _atom_site_fract_y
 _atom_site_fract_z
 _atom_site_occupancy
  Sc  Sc0  1  0.996616  0.661629  0.247325  1
  Sc  Sc1  1  0.002601  0.330435  0.753126  1
  Sc  Sc2  1  0.677272  0.006233  0.247032  1
  Sc  Sc3  1  0.328825  0.001151  0.748358  1
  Ga  Ga4  1  0.127361  0.125794  0.250877  1
  Ga  Ga5  1  0.873851  0.876488  0.750673  1
  Ga  Ga6  1  0.002932  0.672500  0.914190  1
  Ga  Ga7  1  0.004015  0.665896  0.583355  1
  Ga  Ga8  1  0.333416  0.993857  0.416054  1
  Ga  Ga9  1  0.996520  0.334202  0.417683  1
  Ga  Ga10  1  0.665980  0.003930  0.583273  1
  Ga  Ga11  1  0.657063  0.998540  0.914076  1
  Ga  Ga12  1  0.332467  0.994055  0.083997  1
  Ga  Ga13  1  0.330395  0.329281  0.571631  1
  Ga  Ga14  1  0.671860  0.672407  0.428452  1
  Ga  Ga15  1  0.671019  0.673196  0.074241  1
  Ga  Ga16  1  0.335950  0.328842  0.927047  1
  Ga  Ga17  1  0.341478  0.550586  0.251652  1
  Ga  Ga18  1  0.661208  0.447394  0.751623  1
  Ga  Ga19  1  0.550115  0.339626  0.250696  1
  Ga  Ga20  1  0.447311  0.657415  0.750800  1
  Si  Si21  1  0.997394  0.334421  0.074788  1
  Ir  Ir22  1  0.684999  0.330764  0.004580  1
  Ir  Ir23  1  0.312858  0.656581  0.001611  1
  Ir  Ir24  1  0.328409  0.671114  0.500847  1
  Ir  Ir25  1  0.671741  0.328689  0.500174  1
  Ir  Ir26  1  0.996161  0.014676  0.001351  1
  Ir  Ir27  1  0.000182  0.000300  0.500487  1
