# generated using pymatgen
data_MnGa4O7
_symmetry_space_group_name_H-M   'P 1'
_cell_length_a   7.90275010
_cell_length_b   7.90275046
_cell_length_c   5.59040636
_cell_angle_alpha   78.04544792
_cell_angle_beta   78.04544443
_cell_angle_gamma   70.06532701
_symmetry_Int_Tables_number   1
_chemical_formula_structural   MnGa4O7
_chemical_formula_sum   'Mn2 Ga8 O14'
_cell_volume   317.54502751
_cell_formula_units_Z   2
loop_
 _symmetry_equiv_pos_site_id
 _symmetry_equiv_pos_as_xyz
  1  'x, y, z'
loop_
 _atom_site_type_symbol
 _atom_site_label
 _atom_site_symmetry_multiplicity
 _atom_site_fract_x
 _atom_site_fract_y
 _atom_site_fract_z
 _atom_site_occupancy
  Mn  Mn0  1  0.717025  0.282975  0.250000  1
  Mn  Mn1  1  0.282975  0.717025  0.750000  1
  Ga  Ga2  1  0.265592  0.432637  0.323368  1
  Ga  Ga3  1  0.567363  0.734408  0.176632  1
  Ga  Ga4  1  0.942559  0.813636  0.228278  1
  Ga  Ga5  1  0.186364  0.057441  0.271722  1
  Ga  Ga6  1  0.057441  0.186364  0.771722  1
  Ga  Ga7  1  0.813636  0.942559  0.728278  1
  Ga  Ga8  1  0.432637  0.265592  0.823368  1
  Ga  Ga9  1  0.734408  0.567363  0.676632  1
  O  O10  1  0.040702  0.959298  0.750000  1
  O  O11  1  0.959298  0.040702  0.250000  1
  O  O12  1  0.149083  0.638215  0.121395  1
  O  O13  1  0.361785  0.850917  0.378605  1
  O  O14  1  0.850917  0.361785  0.878605  1
  O  O15  1  0.638215  0.149083  0.621395  1
  O  O16  1  0.687588  0.529026  0.383068  1
  O  O17  1  0.470974  0.312412  0.116932  1
  O  O18  1  0.312412  0.470974  0.616932  1
  O  O19  1  0.529026  0.687588  0.883068  1
  O  O20  1  0.740328  0.864417  0.066789  1
  O  O21  1  0.135583  0.259672  0.433211  1
  O  O22  1  0.259672  0.135583  0.933211  1
  O  O23  1  0.864417  0.740328  0.566789  1
