# generated using pymatgen
data_Ta13Al8Au3C4
_symmetry_space_group_name_H-M   'P 1'
_cell_length_a   8.48197126
_cell_length_b   8.48197138
_cell_length_c   8.48196887
_cell_angle_alpha   59.25554579
_cell_angle_beta   59.25554410
_cell_angle_gamma   59.25555089
_symmetry_Int_Tables_number   1
_chemical_formula_structural   Ta13Al8Au3C4
_chemical_formula_sum   'Ta13 Al8 Au3 C4'
_cell_volume   424.17819602
_cell_formula_units_Z   1
loop_
 _symmetry_equiv_pos_site_id
 _symmetry_equiv_pos_as_xyz
  1  'x, y, z'
loop_
 _atom_site_type_symbol
 _atom_site_label
 _atom_site_symmetry_multiplicity
 _atom_site_fract_x
 _atom_site_fract_y
 _atom_site_fract_z
 _atom_site_occupancy
  Ta  Ta0  1  0.570626  0.930506  0.570626  1
  Ta  Ta1  1  0.319494  0.679374  0.679374  1
  Ta  Ta2  1  0.697452  0.313323  0.313323  1
  Ta  Ta3  1  0.313323  0.697452  0.313323  1
  Ta  Ta4  1  0.679374  0.679374  0.319494  1
  Ta  Ta5  1  0.313323  0.313323  0.697452  1
  Ta  Ta6  1  0.570626  0.570626  0.930506  1
  Ta  Ta7  1  0.930506  0.570626  0.570626  1
  Ta  Ta8  1  0.552548  0.936677  0.936677  1
  Ta  Ta9  1  0.936677  0.936677  0.552548  1
  Ta  Ta10  1  0.679374  0.319494  0.679374  1
  Ta  Ta11  1  0.936677  0.552548  0.936677  1
  Ta  Ta12  1  0.125000  0.125000  0.125000  1
  Al  Al13  1  0.909863  0.909863  0.909863  1
  Al  Al14  1  0.995357  0.336379  0.336379  1
  Al  Al15  1  0.336379  0.995357  0.336379  1
  Al  Al16  1  0.336379  0.336379  0.995357  1
  Al  Al17  1  0.913621  0.254643  0.913621  1
  Al  Al18  1  0.913621  0.913621  0.254643  1
  Al  Al19  1  0.254643  0.913621  0.913621  1
  Al  Al20  1  0.340137  0.340137  0.340137  1
  Au  Au21  1  0.625000  0.125000  0.125000  1
  Au  Au22  1  0.125000  0.625000  0.125000  1
  Au  Au23  1  0.125000  0.125000  0.625000  1
  C  C24  1  0.625000  0.625000  0.625000  1
  C  C25  1  0.125000  0.625000  0.625000  1
  C  C26  1  0.625000  0.125000  0.625000  1
  C  C27  1  0.625000  0.625000  0.125000  1
