# generated using pymatgen
data_DyScFeSi2Rh
_symmetry_space_group_name_H-M   'P 1'
_cell_length_a   4.17208900
_cell_length_b   6.76480200
_cell_length_c   7.00191400
_cell_angle_alpha   90.00000000
_cell_angle_beta   90.00000000
_cell_angle_gamma   90.00000000
_symmetry_Int_Tables_number   1
_chemical_formula_structural   DyScFeSi2Rh
_chemical_formula_sum   'Dy2 Sc2 Fe2 Si4 Rh2'
_cell_volume   197.61751158
_cell_formula_units_Z   2
loop_
 _symmetry_equiv_pos_site_id
 _symmetry_equiv_pos_as_xyz
  1  'x, y, z'
loop_
 _atom_site_type_symbol
 _atom_site_label
 _atom_site_symmetry_multiplicity
 _atom_site_fract_x
 _atom_site_fract_y
 _atom_site_fract_z
 _atom_site_occupancy
  Dy  Dy0  1  0.250000  0.998287  0.320693  1
  Dy  Dy1  1  0.250000  0.498287  0.179307  1
  Sc  Sc2  1  0.750000  0.518098  0.800562  1
  Sc  Sc3  1  0.750000  0.018098  0.699438  1
  Fe  Fe4  1  0.250000  0.641931  0.571966  1
  Fe  Fe5  1  0.250000  0.141931  0.928034  1
  Si  Si6  1  0.250000  0.804300  0.866103  1
  Si  Si7  1  0.250000  0.304300  0.633897  1
  Si  Si8  1  0.750000  0.202302  0.083445  1
  Si  Si9  1  0.750000  0.702302  0.416555  1
  Rh  Rh10  1  0.750000  0.835083  0.055755  1
  Rh  Rh11  1  0.750000  0.335083  0.444245  1
