# generated using pymatgen
data_La3Ce(SO4)6
_symmetry_space_group_name_H-M   'P 1'
_cell_length_a   6.82986467
_cell_length_b   7.07552233
_cell_length_c   11.46587600
_cell_angle_alpha   106.51312554
_cell_angle_beta   107.76340760
_cell_angle_gamma   89.93477011
_symmetry_Int_Tables_number   1
_chemical_formula_structural   La3Ce(SO4)6
_chemical_formula_sum   'La3 Ce1 S6 O24'
_cell_volume   503.67941039
_cell_formula_units_Z   1
loop_
 _symmetry_equiv_pos_site_id
 _symmetry_equiv_pos_as_xyz
  1  'x, y, z'
loop_
 _atom_site_type_symbol
 _atom_site_label
 _atom_site_symmetry_multiplicity
 _atom_site_fract_x
 _atom_site_fract_y
 _atom_site_fract_z
 _atom_site_occupancy
  La  La0  1  0.781522  0.129600  0.263732  1
  La  La1  1  0.480064  0.629093  0.262814  1
  La  La2  1  0.518718  0.370941  0.736614  1
  Ce  Ce3  1  0.217629  0.868327  0.736198  1
  S  S4  1  0.665359  0.247736  0.999584  1
  S  S5  1  0.331989  0.751400  0.998890  1
  S  S6  1  0.998245  0.677766  0.368013  1
  S  S7  1  0.368815  0.177135  0.366244  1
  S  S8  1  0.003069  0.322705  0.634183  1
  S  S9  1  0.632388  0.823146  0.633244  1
  O  O10  1  0.235547  0.609784  0.042787  1
  O  O11  1  0.807222  0.107650  0.045329  1
  O  O12  1  0.591756  0.352414  0.110347  1
  O  O13  1  0.515173  0.857010  0.111864  1
  O  O14  1  0.147326  0.624763  0.296881  1
  O  O15  1  0.147607  0.122118  0.294142  1
  O  O16  1  0.460917  0.298786  0.303147  1
  O  O17  1  0.841455  0.799438  0.304980  1
  O  O18  1  0.484131  0.997133  0.356448  1
  O  O19  1  0.873204  0.496923  0.356827  1
  O  O20  1  0.898642  0.210854  0.499848  1
  O  O21  1  0.599768  0.709433  0.499210  1
  O  O22  1  0.399437  0.290661  0.500077  1
  O  O23  1  0.102523  0.790124  0.502336  1
  O  O24  1  0.129266  0.503148  0.645164  1
  O  O25  1  0.521428  0.005603  0.643931  1
  O  O26  1  0.159232  0.200303  0.696823  1
  O  O27  1  0.537750  0.703754  0.696657  1
  O  O28  1  0.854814  0.873418  0.704361  1
  O  O29  1  0.854473  0.377482  0.705381  1
  O  O30  1  0.480741  0.142969  0.887496  1
  O  O31  1  0.408261  0.648690  0.889055  1
  O  O32  1  0.189875  0.890826  0.952096  1
  O  O33  1  0.761654  0.388873  0.955302  1
