# generated using pymatgen
data_Fe6GeW6
_symmetry_space_group_name_H-M   'P 1'
_cell_length_a   4.77389770
_cell_length_b   4.77389733
_cell_length_c   9.16324300
_cell_angle_alpha   74.90075555
_cell_angle_beta   74.90075675
_cell_angle_gamma   59.99999150
_symmetry_Int_Tables_number   1
_chemical_formula_structural   Fe6GeW6
_chemical_formula_sum   'Fe6 Ge1 W6'
_cell_volume   172.47787637
_cell_formula_units_Z   1
loop_
 _symmetry_equiv_pos_site_id
 _symmetry_equiv_pos_as_xyz
  1  'x, y, z'
loop_
 _atom_site_type_symbol
 _atom_site_label
 _atom_site_symmetry_multiplicity
 _atom_site_fract_x
 _atom_site_fract_y
 _atom_site_fract_z
 _atom_site_occupancy
  Fe  Fe0  1  0.909255  0.909255  0.767247  1
  Fe  Fe1  1  0.414242  0.909255  0.767247  1
  Fe  Fe2  1  0.909255  0.414242  0.767247  1
  Fe  Fe3  1  0.090745  0.090745  0.232753  1
  Fe  Fe4  1  0.585758  0.090745  0.232753  1
  Fe  Fe5  1  0.090745  0.585758  0.232753  1
  Ge  Ge6  1  0.000000  0.000000  0.000000  1
  W  W7  1  0.832379  0.832379  0.502863  1
  W  W8  1  0.167621  0.167621  0.497137  1
  W  W9  1  0.650679  0.650679  0.047963  1
  W  W10  1  0.349321  0.349321  0.952037  1
  W  W11  1  0.549139  0.549139  0.352581  1
  W  W12  1  0.450861  0.450861  0.647419  1
