# generated using pymatgen
data_Sr5Cd(SbN)2
_symmetry_space_group_name_H-M   'P 1'
_cell_length_a   7.49425900
_cell_length_b   7.49477700
_cell_length_c   9.59492300
_cell_angle_alpha   90.00000000
_cell_angle_beta   90.00000000
_cell_angle_gamma   90.00000000
_symmetry_Int_Tables_number   1
_chemical_formula_structural   Sr5Cd(SbN)2
_chemical_formula_sum   'Sr10 Cd2 Sb4 N4'
_cell_volume   538.92571594
_cell_formula_units_Z   2
loop_
 _symmetry_equiv_pos_site_id
 _symmetry_equiv_pos_as_xyz
  1  'x, y, z'
loop_
 _atom_site_type_symbol
 _atom_site_label
 _atom_site_symmetry_multiplicity
 _atom_site_fract_x
 _atom_site_fract_y
 _atom_site_fract_z
 _atom_site_occupancy
  Sr  Sr0  1  0.752562  0.752538  0.989773  1
  Sr  Sr1  1  0.747438  0.252538  0.510227  1
  Sr  Sr2  1  0.246127  0.246426  0.533373  1
  Sr  Sr3  1  0.253873  0.746426  0.966627  1
  Sr  Sr4  1  0.246127  0.246426  0.966627  1
  Sr  Sr5  1  0.253873  0.746426  0.533373  1
  Sr  Sr6  1  0.752562  0.752538  0.510227  1
  Sr  Sr7  1  0.747438  0.252538  0.989773  1
  Sr  Sr8  1  0.476013  0.000308  0.250000  1
  Sr  Sr9  1  0.023987  0.500308  0.250000  1
  Cd  Cd10  1  0.526122  0.000985  0.750000  1
  Cd  Cd11  1  0.973878  0.500985  0.750000  1
  Sb  Sb12  1  0.497103  0.502663  0.250000  1
  Sb  Sb13  1  0.002897  0.002663  0.250000  1
  Sb  Sb14  1  0.517407  0.498097  0.750000  1
  Sb  Sb15  1  0.982593  0.998097  0.750000  1
  N  N16  1  0.001885  0.500009  0.984094  1
  N  N17  1  0.498115  0.000009  0.515906  1
  N  N18  1  0.001885  0.500009  0.515906  1
  N  N19  1  0.498115  0.000009  0.984094  1
