# generated using pymatgen
data_Nd5P12PdRu18
_symmetry_space_group_name_H-M   'P 1'
_cell_length_a   12.69625700
_cell_length_b   12.60012682
_cell_length_c   4.01900500
_cell_angle_alpha   90.00000000
_cell_angle_beta   90.00000000
_cell_angle_gamma   119.74985805
_symmetry_Int_Tables_number   1
_chemical_formula_structural   Nd5P12PdRu18
_chemical_formula_sum   'Nd5 P12 Pd1 Ru18'
_cell_volume   558.19889358
_cell_formula_units_Z   1
loop_
 _symmetry_equiv_pos_site_id
 _symmetry_equiv_pos_as_xyz
  1  'x, y, z'
loop_
 _atom_site_type_symbol
 _atom_site_label
 _atom_site_symmetry_multiplicity
 _atom_site_fract_x
 _atom_site_fract_y
 _atom_site_fract_z
 _atom_site_occupancy
  Nd  Nd0  1  0.000000  0.182429  0.500000  1
  Nd  Nd1  1  0.816226  0.815560  0.500000  1
  Nd  Nd2  1  0.183774  0.999334  0.500000  1
  Nd  Nd3  1  0.662067  0.330625  0.000000  1
  Nd  Nd4  1  0.337933  0.668560  0.000000  1
  P  P5  1  0.000000  0.809417  0.000000  1
  P  P6  1  0.185734  0.186883  0.000000  1
  P  P7  1  0.814266  0.001149  0.000000  1
  P  P8  1  0.693858  0.172175  0.500000  1
  P  P9  1  0.819865  0.521445  0.500000  1
  P  P10  1  0.473538  0.304540  0.500000  1
  P  P11  1  0.180135  0.701581  0.500000  1
  P  P12  1  0.526462  0.831002  0.500000  1
  P  P13  1  0.306142  0.478317  0.500000  1
  P  P14  1  0.000000  0.367229  0.000000  1
  P  P15  1  0.624323  0.625111  0.000000  1
  P  P16  1  0.375677  0.000789  0.000000  1
  Pd  Pd17  1  0.000000  0.552688  0.000000  1
  Ru  Ru18  1  0.444424  0.445771  0.000000  1
  Ru  Ru19  1  0.555576  0.001347  0.000000  1
  Ru  Ru20  1  0.000000  0.710233  0.500000  1
  Ru  Ru21  1  0.283627  0.285524  0.500000  1
  Ru  Ru22  1  0.716373  0.001897  0.500000  1
  Ru  Ru23  1  0.805648  0.185743  0.000000  1
  Ru  Ru24  1  0.814192  0.619949  0.000000  1
  Ru  Ru25  1  0.375838  0.192787  0.000000  1
  Ru  Ru26  1  0.185808  0.805757  0.000000  1
  Ru  Ru27  1  0.624162  0.816949  0.000000  1
  Ru  Ru28  1  0.194352  0.380095  0.000000  1
  Ru  Ru29  1  0.875455  0.368002  0.500000  1
  Ru  Ru30  1  0.629653  0.508230  0.500000  1
  Ru  Ru31  1  0.491111  0.125612  0.500000  1
  Ru  Ru32  1  0.370347  0.878576  0.500000  1
  Ru  Ru33  1  0.508889  0.634501  0.500000  1
  Ru  Ru34  1  0.124545  0.492547  0.500000  1
  Ru  Ru35  1  0.000000  0.997645  0.000000  1
