# generated using pymatgen
data_Pr7Ho6Th3Cd2(HgIr2)2
_symmetry_space_group_name_H-M   'P 1'
_cell_length_a   9.84411237
_cell_length_b   9.85875702
_cell_length_c   9.83467800
_cell_angle_alpha   60.08076108
_cell_angle_beta   60.03169778
_cell_angle_gamma   60.35495945
_symmetry_Int_Tables_number   1
_chemical_formula_structural   Pr7Ho6Th3Cd2(HgIr2)2
_chemical_formula_sum   'Pr7 Ho6 Th3 Cd2 Hg2 Ir4'
_cell_volume   677.27618543
_cell_formula_units_Z   1
loop_
 _symmetry_equiv_pos_site_id
 _symmetry_equiv_pos_as_xyz
  1  'x, y, z'
loop_
 _atom_site_type_symbol
 _atom_site_label
 _atom_site_symmetry_multiplicity
 _atom_site_fract_x
 _atom_site_fract_y
 _atom_site_fract_z
 _atom_site_occupancy
  Pr  Pr0  1  0.812527  0.812187  0.187642  1
  Pr  Pr1  1  0.944825  0.556280  0.561214  1
  Pr  Pr2  1  0.556888  0.942479  0.938292  1
  Pr  Pr3  1  0.556888  0.942479  0.562340  1
  Pr  Pr4  1  0.944825  0.556280  0.937680  1
  Pr  Pr5  1  0.559965  0.561670  0.939183  1
  Pr  Pr6  1  0.941647  0.937780  0.560286  1
  Ho  Ho7  1  0.950354  0.346623  0.351510  1
  Ho  Ho8  1  0.812905  0.189573  0.187072  1
  Ho  Ho9  1  0.187139  0.815066  0.813311  1
  Ho  Ho10  1  0.187139  0.815066  0.184485  1
  Ho  Ho11  1  0.812905  0.189573  0.810449  1
  Ho  Ho12  1  0.183483  0.183953  0.816283  1
  Th  Th13  1  0.345981  0.349687  0.348567  1
  Th  Th14  1  0.345981  0.349687  0.955763  1
  Th  Th15  1  0.345129  0.953451  0.350709  1
  Cd  Cd16  1  0.582341  0.261266  0.578197  1
  Cd  Cd17  1  0.260836  0.579749  0.579708  1
  Hg  Hg18  1  0.584785  0.580100  0.584228  1
  Hg  Hg19  1  0.584785  0.580100  0.250885  1
  Ir  Ir20  1  0.142972  0.140026  0.143916  1
  Ir  Ir21  1  0.142972  0.140026  0.573086  1
  Ir  Ir22  1  0.147140  0.568476  0.142192  1
  Ir  Ir23  1  0.565584  0.148417  0.143000  1
