# generated using pymatgen
data_Tb2Er10TlCo5
_symmetry_space_group_name_H-M   'P 1'
_cell_length_a   8.21718466
_cell_length_b   8.21718438
_cell_length_c   8.21156800
_cell_angle_alpha   110.93975788
_cell_angle_beta   110.73422411
_cell_angle_gamma   106.80208504
_symmetry_Int_Tables_number   1
_chemical_formula_structural   Tb2Er10TlCo5
_chemical_formula_sum   'Tb2 Er10 Tl1 Co5'
_cell_volume   425.97248868
_cell_formula_units_Z   1
loop_
 _symmetry_equiv_pos_site_id
 _symmetry_equiv_pos_as_xyz
  1  'x, y, z'
loop_
 _atom_site_type_symbol
 _atom_site_label
 _atom_site_symmetry_multiplicity
 _atom_site_fract_x
 _atom_site_fract_y
 _atom_site_fract_z
 _atom_site_occupancy
  Tb  Tb0  1  0.289351  0.185561  0.474912  1
  Tb  Tb1  1  0.710649  0.814439  0.525088  1
  Er  Er2  1  0.288852  0.813960  0.102811  1
  Er  Er3  1  0.711148  0.186040  0.897189  1
  Er  Er4  1  0.619978  0.313862  0.304897  1
  Er  Er5  1  0.380022  0.686138  0.695103  1
  Er  Er6  1  0.008966  0.315081  0.695103  1
  Er  Er7  1  0.991034  0.684919  0.304897  1
  Er  Er8  1  0.210898  0.403855  0.191377  1
  Er  Er9  1  0.789102  0.596145  0.808623  1
  Er  Er10  1  0.212477  0.019522  0.808623  1
  Er  Er11  1  0.787523  0.980478  0.191377  1
  Tl  Tl12  1  0.500000  0.500000  0.000000  1
  Co  Co13  1  0.999419  0.377613  0.377032  1
  Co  Co14  1  0.000581  0.622387  0.622968  1
  Co  Co15  1  0.387182  0.887182  0.500000  1
  Co  Co16  1  0.612818  0.112818  0.500000  1
  Co  Co17  1  0.000000  0.000000  0.000000  1
