# generated using pymatgen
data_GdHo3(WO6)2
_symmetry_space_group_name_H-M   'P 1'
_cell_length_a   5.40107700
_cell_length_b   7.70352117
_cell_length_c   11.48545402
_cell_angle_alpha   75.41838565
_cell_angle_beta   90.00000000
_cell_angle_gamma   90.00000000
_symmetry_Int_Tables_number   1
_chemical_formula_structural   GdHo3(WO6)2
_chemical_formula_sum   'Gd2 Ho6 W4 O24'
_cell_volume   462.48638259
_cell_formula_units_Z   2
loop_
 _symmetry_equiv_pos_site_id
 _symmetry_equiv_pos_as_xyz
  1  'x, y, z'
loop_
 _atom_site_type_symbol
 _atom_site_label
 _atom_site_symmetry_multiplicity
 _atom_site_fract_x
 _atom_site_fract_y
 _atom_site_fract_z
 _atom_site_occupancy
  Gd  Gd0  1  0.684393  0.500000  0.750000  1
  Gd  Gd1  1  0.315607  0.500000  0.250000  1
  Ho  Ho2  1  0.739195  0.000000  0.750000  1
  Ho  Ho3  1  0.260805  0.000000  0.250000  1
  Ho  Ho4  1  0.186465  0.796676  0.577530  1
  Ho  Ho5  1  0.813535  0.796676  0.077530  1
  Ho  Ho6  1  0.186465  0.203324  0.922470  1
  Ho  Ho7  1  0.813535  0.203324  0.422470  1
  W  W8  1  0.253989  0.724559  0.885403  1
  W  W9  1  0.746011  0.724559  0.385403  1
  W  W10  1  0.253989  0.275441  0.614597  1
  W  W11  1  0.746011  0.275441  0.114597  1
  O  O12  1  0.040473  0.940423  0.895506  1
  O  O13  1  0.531247  0.848940  0.930847  1
  O  O14  1  0.959527  0.940423  0.395506  1
  O  O15  1  0.458266  0.791666  0.727515  1
  O  O16  1  0.468753  0.848940  0.430847  1
  O  O17  1  0.983584  0.713136  0.770674  1
  O  O18  1  0.541734  0.791666  0.227515  1
  O  O19  1  0.853476  0.636964  0.547685  1
  O  O20  1  0.357654  0.490062  0.887515  1
  O  O21  1  0.016416  0.713136  0.270674  1
  O  O22  1  0.357654  0.509938  0.612485  1
  O  O23  1  0.853476  0.363036  0.952315  1
  O  O24  1  0.146524  0.636964  0.047685  1
  O  O25  1  0.642346  0.490062  0.387515  1
  O  O26  1  0.983584  0.286864  0.729326  1
  O  O27  1  0.642346  0.509938  0.112485  1
  O  O28  1  0.146524  0.363036  0.452315  1
  O  O29  1  0.458266  0.208334  0.772485  1
  O  O30  1  0.016416  0.286864  0.229326  1
  O  O31  1  0.531247  0.151060  0.569153  1
  O  O32  1  0.541734  0.208334  0.272485  1
  O  O33  1  0.040473  0.059577  0.604494  1
  O  O34  1  0.468753  0.151060  0.069153  1
  O  O35  1  0.959527  0.059577  0.104494  1
