# generated using pymatgen
data_KHoSiSe4
_symmetry_space_group_name_H-M   'P 1'
_cell_length_a   6.97124400
_cell_length_b   6.69347679
_cell_length_c   9.10351592
_cell_angle_alpha   72.39531819
_cell_angle_beta   90.00000000
_cell_angle_gamma   90.00000000
_symmetry_Int_Tables_number   1
_chemical_formula_structural   KHoSiSe4
_chemical_formula_sum   'K2 Ho2 Si2 Se8'
_cell_volume   404.89249297
_cell_formula_units_Z   2
loop_
 _symmetry_equiv_pos_site_id
 _symmetry_equiv_pos_as_xyz
  1  'x, y, z'
loop_
 _atom_site_type_symbol
 _atom_site_label
 _atom_site_symmetry_multiplicity
 _atom_site_fract_x
 _atom_site_fract_y
 _atom_site_fract_z
 _atom_site_occupancy
  K  K0  1  0.979295  0.732737  0.064720  1
  K  K1  1  0.479295  0.267263  0.935280  1
  Ho  Ho2  1  0.500004  0.230964  0.450235  1
  Ho  Ho3  1  0.000004  0.769036  0.549765  1
  Si  Si4  1  0.463034  0.780477  0.327943  1
  Si  Si5  1  0.963034  0.219523  0.672057  1
  Se  Se6  1  0.463436  0.578345  0.168441  1
  Se  Se7  1  0.226399  0.029836  0.279683  1
  Se  Se8  1  0.733764  0.984501  0.298958  1
  Se  Se9  1  0.901069  0.427575  0.427186  1
  Se  Se10  1  0.401069  0.572425  0.572814  1
  Se  Se11  1  0.233764  0.015499  0.701042  1
  Se  Se12  1  0.726399  0.970164  0.720317  1
  Se  Se13  1  0.963436  0.421655  0.831559  1
