# generated using pymatgen
data_Ba6Dy(RhO6)2
_symmetry_space_group_name_H-M   'P 1'
_cell_length_a   9.26973384
_cell_length_b   9.26973295
_cell_length_c   7.42485300
_cell_angle_alpha   68.01817859
_cell_angle_beta   68.01818081
_cell_angle_gamma   36.86115077
_symmetry_Int_Tables_number   1
_chemical_formula_structural   Ba6Dy(RhO6)2
_chemical_formula_sum   'Ba6 Dy1 Rh2 O12'
_cell_volume   351.67492137
_cell_formula_units_Z   1
loop_
 _symmetry_equiv_pos_site_id
 _symmetry_equiv_pos_as_xyz
  1  'x, y, z'
loop_
 _atom_site_type_symbol
 _atom_site_label
 _atom_site_symmetry_multiplicity
 _atom_site_fract_x
 _atom_site_fract_y
 _atom_site_fract_z
 _atom_site_occupancy
  Ba  Ba0  1  0.216331  0.216331  0.708358  1
  Ba  Ba1  1  0.879961  0.879961  0.712118  1
  Ba  Ba2  1  0.548958  0.548958  0.705597  1
  Ba  Ba3  1  0.783669  0.783669  0.291642  1
  Ba  Ba4  1  0.451042  0.451042  0.294403  1
  Ba  Ba5  1  0.120039  0.120039  0.287882  1
  Dy  Dy6  1  0.000000  0.000000  0.000000  1
  Rh  Rh7  1  0.670267  0.670267  0.999503  1
  Rh  Rh8  1  0.329733  0.329733  0.000497  1
  O  O9  1  0.281510  0.281510  0.306858  1
  O  O10  1  0.943035  0.943035  0.331322  1
  O  O11  1  0.617461  0.617461  0.304861  1
  O  O12  1  0.718490  0.718490  0.693142  1
  O  O13  1  0.382539  0.382539  0.695139  1
  O  O14  1  0.056965  0.056965  0.668678  1
  O  O15  1  0.000000  0.500000  0.000000  1
  O  O16  1  0.644056  0.176331  0.001269  1
  O  O17  1  0.355944  0.823669  0.998731  1
  O  O18  1  0.500000  0.000000  0.000000  1
  O  O19  1  0.176331  0.644056  0.001269  1
  O  O20  1  0.823669  0.355944  0.998731  1
