# generated using pymatgen
data_YbTh3(CN2)6
_symmetry_space_group_name_H-M   'P 1'
_cell_length_a   6.54795778
_cell_length_b   6.54796009
_cell_length_c   10.61710300
_cell_angle_alpha   90.00000875
_cell_angle_beta   107.96093695
_cell_angle_gamma   59.99999419
_symmetry_Int_Tables_number   1
_chemical_formula_structural   YbTh3(CN2)6
_chemical_formula_sum   'Yb1 Th3 C6 N12'
_cell_volume   368.39043382
_cell_formula_units_Z   1
loop_
 _symmetry_equiv_pos_site_id
 _symmetry_equiv_pos_as_xyz
  1  'x, y, z'
loop_
 _atom_site_type_symbol
 _atom_site_label
 _atom_site_symmetry_multiplicity
 _atom_site_fract_x
 _atom_site_fract_y
 _atom_site_fract_z
 _atom_site_occupancy
  Yb  Yb0  1  0.335639  0.332181  0.003460  1
  Th  Th1  1  0.646835  0.676582  0.970254  1
  Th  Th2  1  0.351078  0.824461  0.526618  1
  Th  Th3  1  0.663251  0.168375  0.494875  1
  C  C4  1  0.182599  0.249032  0.248474  1
  C  C5  1  0.497506  0.568368  0.248474  1
  C  C6  1  0.816845  0.934125  0.248474  1
  C  C7  1  0.200521  0.047620  0.751947  1
  C  C8  1  0.503806  0.448574  0.751947  1
  C  C9  1  0.799566  0.751859  0.751947  1
  N  N10  1  0.071914  0.363050  0.133617  1
  N  N11  1  0.496669  0.565035  0.133617  1
  N  N12  1  0.698654  0.938296  0.133617  1
  N  N13  1  0.304789  0.132850  0.366602  1
  N  N14  1  0.499450  0.562360  0.366602  1
  N  N15  1  0.928963  0.938187  0.366602  1
  N  N16  1  0.060530  0.100393  0.628556  1
  N  N17  1  0.467631  0.431976  0.628556  1
  N  N18  1  0.728950  0.839076  0.628556  1
  N  N19  1  0.267481  0.064391  0.872401  1
  N  N20  1  0.540529  0.395081  0.872401  1
  N  N21  1  0.936792  0.668127  0.872401  1
