# generated using pymatgen
data_LiThFeH6
_symmetry_space_group_name_H-M   'P 1'
_cell_length_a   4.84944116
_cell_length_b   4.84944124
_cell_length_c   4.84944100
_cell_angle_alpha   59.99999484
_cell_angle_beta   59.99999429
_cell_angle_gamma   59.99999674
_symmetry_Int_Tables_number   1
_chemical_formula_structural   LiThFeH6
_chemical_formula_sum   'Li1 Th1 Fe1 H6'
_cell_volume   80.64176638
_cell_formula_units_Z   1
loop_
 _symmetry_equiv_pos_site_id
 _symmetry_equiv_pos_as_xyz
  1  'x, y, z'
loop_
 _atom_site_type_symbol
 _atom_site_label
 _atom_site_symmetry_multiplicity
 _atom_site_fract_x
 _atom_site_fract_y
 _atom_site_fract_z
 _atom_site_occupancy
  Li  Li0  1  0.750000  0.750000  0.750000  1
  Th  Th1  1  0.250000  0.250000  0.250000  1
  Fe  Fe2  1  0.000000  0.000000  0.000000  1
  H  H3  1  0.237365  0.762635  0.237365  1
  H  H4  1  0.762634  0.762634  0.237366  1
  H  H5  1  0.762634  0.237366  0.237366  1
  H  H6  1  0.237366  0.762634  0.762634  1
  H  H7  1  0.762635  0.237365  0.762635  1
  H  H8  1  0.237365  0.237365  0.762635  1
