# generated using pymatgen
data_Y4Tm4Sc11Si16Ag
_symmetry_space_group_name_H-M   'P 1'
_cell_length_a   7.01279621
_cell_length_b   7.37812440
_cell_length_c   13.98890502
_cell_angle_alpha   90.00393745
_cell_angle_beta   90.00385683
_cell_angle_gamma   89.92233534
_symmetry_Int_Tables_number   1
_chemical_formula_structural   Y4Tm4Sc11Si16Ag
_chemical_formula_sum   'Y4 Tm4 Sc11 Si16 Ag1'
_cell_volume   723.80322267
_cell_formula_units_Z   1
loop_
 _symmetry_equiv_pos_site_id
 _symmetry_equiv_pos_as_xyz
  1  'x, y, z'
loop_
 _atom_site_type_symbol
 _atom_site_label
 _atom_site_symmetry_multiplicity
 _atom_site_fract_x
 _atom_site_fract_y
 _atom_site_fract_z
 _atom_site_occupancy
  Y  Y0  1  0.010563  0.175553  0.096423  1
  Y  Y1  1  0.990207  0.815110  0.901682  1
  Y  Y2  1  0.485317  0.673107  0.902620  1
  Y  Y3  1  0.990324  0.814929  0.597515  1
  Tm  Tm4  1  0.510087  0.322913  0.096902  1
  Tm  Tm5  1  0.011581  0.176682  0.403207  1
  Tm  Tm6  1  0.510145  0.322798  0.403952  1
  Tm  Tm7  1  0.484838  0.673922  0.597727  1
  Sc  Sc8  1  0.838402  0.496759  0.250376  1
  Sc  Sc9  1  0.340602  0.004000  0.250380  1
  Sc  Sc10  1  0.656671  0.997581  0.749674  1
  Sc  Sc11  1  0.325651  0.182937  0.626759  1
  Sc  Sc12  1  0.670969  0.823520  0.375039  1
  Sc  Sc13  1  0.170854  0.678655  0.373875  1
  Sc  Sc14  1  0.671068  0.823628  0.125759  1
  Sc  Sc15  1  0.836457  0.327023  0.626309  1
  Sc  Sc16  1  0.325544  0.182760  0.872838  1
  Sc  Sc17  1  0.836580  0.327279  0.872902  1
  Sc  Sc18  1  0.171001  0.678412  0.126560  1
  Si  Si19  1  0.027222  0.097935  0.749603  1
  Si  Si20  1  0.969517  0.889225  0.250634  1
  Si  Si21  1  0.468137  0.614649  0.250370  1
  Si  Si22  1  0.536632  0.385493  0.749406  1
  Si  Si23  1  0.288512  0.881414  0.749257  1
  Si  Si24  1  0.713148  0.129811  0.250914  1
  Si  Si25  1  0.213992  0.371006  0.250845  1
  Si  Si26  1  0.775194  0.629661  0.749096  1
  Si  Si27  1  0.163881  0.459000  0.530839  1
  Si  Si28  1  0.841608  0.533319  0.461276  1
  Si  Si29  1  0.343585  0.966166  0.462565  1
  Si  Si30  1  0.841111  0.534632  0.038481  1
  Si  Si31  1  0.656689  0.034435  0.539910  1
  Si  Si32  1  0.161917  0.459347  0.969066  1
  Si  Si33  1  0.657077  0.035661  0.960215  1
  Si  Si34  1  0.345351  0.966464  0.037719  1
  Ag  Ag35  1  0.159563  0.514213  0.749310  1
