# generated using pymatgen
data_AuBr28
_symmetry_space_group_name_H-M   'P 1'
_cell_length_a   11.08100058
_cell_length_b   14.26806845
_cell_length_c   12.72108000
_cell_angle_alpha   123.45192622
_cell_angle_beta   99.87943871
_cell_angle_gamma   107.91255287
_symmetry_Int_Tables_number   1
_chemical_formula_structural   AuBr28
_chemical_formula_sum   'Au1 Br28'
_cell_volume   1441.84298122
_cell_formula_units_Z   1
loop_
 _symmetry_equiv_pos_site_id
 _symmetry_equiv_pos_as_xyz
  1  'x, y, z'
loop_
 _atom_site_type_symbol
 _atom_site_label
 _atom_site_symmetry_multiplicity
 _atom_site_fract_x
 _atom_site_fract_y
 _atom_site_fract_z
 _atom_site_occupancy
  Au  Au0  1  0.500000  0.000000  0.000000  1
  Br  Br1  1  0.096940  0.120267  0.387024  1
  Br  Br2  1  0.559845  0.110889  0.402856  1
  Br  Br3  1  0.273184  0.355207  0.864874  1
  Br  Br4  1  0.781433  0.294549  0.827397  1
  Br  Br5  1  0.244441  0.572817  0.755878  1
  Br  Br6  1  0.750833  0.543888  0.682964  1
  Br  Br7  1  0.440155  0.889111  0.597144  1
  Br  Br8  1  0.903060  0.879733  0.612976  1
  Br  Br9  1  0.218567  0.705451  0.172603  1
  Br  Br10  1  0.726816  0.644793  0.135126  1
  Br  Br11  1  0.249167  0.456112  0.317036  1
  Br  Br12  1  0.755559  0.427183  0.244122  1
  Br  Br13  1  0.931477  0.084380  0.804979  1
  Br  Br14  1  0.478395  0.068277  0.857861  1
  Br  Br15  1  0.046080  0.682623  0.997909  1
  Br  Br16  1  0.572518  0.647484  0.983434  1
  Br  Br17  1  0.594556  0.225278  0.217288  1
  Br  Br18  1  0.180031  0.294876  0.340810  1
  Br  Br19  1  0.521605  0.931723  0.142139  1
  Br  Br20  1  0.068523  0.915620  0.195021  1
  Br  Br21  1  0.427482  0.352516  0.016566  1
  Br  Br22  1  0.953920  0.317377  0.002091  1
  Br  Br23  1  0.819969  0.705124  0.659190  1
  Br  Br24  1  0.405444  0.774722  0.782712  1
  Br  Br25  1  0.091847  0.366665  0.691860  1
  Br  Br26  1  0.583602  0.267059  0.639873  1
  Br  Br27  1  0.416398  0.732941  0.360127  1
  Br  Br28  1  0.908153  0.633335  0.308140  1
