# generated using pymatgen
data_Tb2Ho2GaCo4
_symmetry_space_group_name_H-M   'P 1'
_cell_length_a   5.47710729
_cell_length_b   5.47710665
_cell_length_c   8.90114890
_cell_angle_alpha   70.95883962
_cell_angle_beta   70.95884277
_cell_angle_gamma   43.44602575
_symmetry_Int_Tables_number   1
_chemical_formula_structural   Tb2Ho2GaCo4
_chemical_formula_sum   'Tb2 Ho2 Ga1 Co4'
_cell_volume   171.92801662
_cell_formula_units_Z   1
loop_
 _symmetry_equiv_pos_site_id
 _symmetry_equiv_pos_as_xyz
  1  'x, y, z'
loop_
 _atom_site_type_symbol
 _atom_site_label
 _atom_site_symmetry_multiplicity
 _atom_site_fract_x
 _atom_site_fract_y
 _atom_site_fract_z
 _atom_site_occupancy
  Tb  Tb0  1  0.745807  0.745807  0.662076  1
  Tb  Tb1  1  0.254193  0.254193  0.337924  1
  Ho  Ho2  1  0.391578  0.391578  0.885205  1
  Ho  Ho3  1  0.608422  0.608422  0.114795  1
  Ga  Ga4  1  0.500000  0.500000  0.500000  1
  Co  Co5  1  0.036225  0.036225  0.645645  1
  Co  Co6  1  0.963775  0.963775  0.354355  1
  Co  Co7  1  0.091962  0.091962  0.880044  1
  Co  Co8  1  0.908038  0.908038  0.119956  1
