# generated using pymatgen
data_BaGa3NiRu
_symmetry_space_group_name_H-M   'P 1'
_cell_length_a   6.68387089
_cell_length_b   6.68387210
_cell_length_c   5.46311700
_cell_angle_alpha   90.00000000
_cell_angle_beta   90.00000000
_cell_angle_gamma   106.98892700
_symmetry_Int_Tables_number   1
_chemical_formula_structural   BaGa3NiRu
_chemical_formula_sum   'Ba2 Ga6 Ni2 Ru2'
_cell_volume   233.40956651
_cell_formula_units_Z   2
loop_
 _symmetry_equiv_pos_site_id
 _symmetry_equiv_pos_as_xyz
  1  'x, y, z'
loop_
 _atom_site_type_symbol
 _atom_site_label
 _atom_site_symmetry_multiplicity
 _atom_site_fract_x
 _atom_site_fract_y
 _atom_site_fract_z
 _atom_site_occupancy
  Ba  Ba0  1  0.351371  0.351371  0.250000  1
  Ba  Ba1  1  0.648629  0.648629  0.750000  1
  Ga  Ga2  1  0.931360  0.519503  0.249646  1
  Ga  Ga3  1  0.068640  0.480497  0.749646  1
  Ga  Ga4  1  0.060965  0.060965  0.750000  1
  Ga  Ga5  1  0.939035  0.939035  0.250000  1
  Ga  Ga6  1  0.480497  0.068640  0.750354  1
  Ga  Ga7  1  0.519503  0.931360  0.250354  1
  Ni  Ni8  1  0.804590  0.195410  0.000000  1
  Ni  Ni9  1  0.195410  0.804590  0.500000  1
  Ru  Ru10  1  0.192332  0.807668  0.000000  1
  Ru  Ru11  1  0.807668  0.192332  0.500000  1
