# generated using pymatgen
data_TbDy11IrPt3
_symmetry_space_group_name_H-M   'P 1'
_cell_length_a   6.46072014
_cell_length_b   7.08054050
_cell_length_c   9.54630700
_cell_angle_alpha   90.00000000
_cell_angle_beta   90.00000000
_cell_angle_gamma   89.90457675
_symmetry_Int_Tables_number   1
_chemical_formula_structural   TbDy11IrPt3
_chemical_formula_sum   'Tb1 Dy11 Ir1 Pt3'
_cell_volume   436.69893699
_cell_formula_units_Z   1
loop_
 _symmetry_equiv_pos_site_id
 _symmetry_equiv_pos_as_xyz
  1  'x, y, z'
loop_
 _atom_site_type_symbol
 _atom_site_label
 _atom_site_symmetry_multiplicity
 _atom_site_fract_x
 _atom_site_fract_y
 _atom_site_fract_z
 _atom_site_occupancy
  Tb  Tb0  1  0.866857  0.528087  0.250000  1
  Dy  Dy1  1  0.325700  0.680885  0.059025  1
  Dy  Dy2  1  0.174441  0.179602  0.439324  1
  Dy  Dy3  1  0.674067  0.322546  0.563374  1
  Dy  Dy4  1  0.822071  0.817749  0.937079  1
  Dy  Dy5  1  0.674067  0.322546  0.936626  1
  Dy  Dy6  1  0.822071  0.817749  0.562921  1
  Dy  Dy7  1  0.325700  0.680885  0.440975  1
  Dy  Dy8  1  0.174441  0.179602  0.060676  1
  Dy  Dy9  1  0.633362  0.029359  0.250000  1
  Dy  Dy10  1  0.136753  0.471923  0.750000  1
  Dy  Dy11  1  0.369799  0.965325  0.750000  1
  Ir  Ir12  1  0.551524  0.614888  0.750000  1
  Pt  Pt13  1  0.054110  0.887219  0.250000  1
  Pt  Pt14  1  0.444909  0.387732  0.250000  1
  Pt  Pt15  1  0.950127  0.113900  0.750000  1
