# generated using pymatgen
data_NdDyPa2(InRh2)2
_symmetry_space_group_name_H-M   'P 1'
_cell_length_a   7.76803515
_cell_length_b   7.76803541
_cell_length_c   3.64139100
_cell_angle_alpha   90.00000000
_cell_angle_beta   90.00000000
_cell_angle_gamma   94.70434869
_symmetry_Int_Tables_number   1
_chemical_formula_structural   NdDyPa2(InRh2)2
_chemical_formula_sum   'Nd1 Dy1 Pa2 In2 Rh4'
_cell_volume   218.98993601
_cell_formula_units_Z   1
loop_
 _symmetry_equiv_pos_site_id
 _symmetry_equiv_pos_as_xyz
  1  'x, y, z'
loop_
 _atom_site_type_symbol
 _atom_site_label
 _atom_site_symmetry_multiplicity
 _atom_site_fract_x
 _atom_site_fract_y
 _atom_site_fract_z
 _atom_site_occupancy
  Nd  Nd0  1  0.170307  0.329693  0.500000  1
  Dy  Dy1  1  0.828990  0.671010  0.500000  1
  Pa  Pa2  1  0.668362  0.167147  0.500000  1
  Pa  Pa3  1  0.332853  0.831638  0.500000  1
  In  In4  1  0.503360  0.501982  0.000000  1
  In  In5  1  0.998018  0.996640  0.000000  1
  Rh  Rh6  1  0.379487  0.120513  0.000000  1
  Rh  Rh7  1  0.146893  0.652910  0.000000  1
  Rh  Rh8  1  0.847090  0.353107  0.000000  1
  Rh  Rh9  1  0.624640  0.875360  0.000000  1
