# generated using pymatgen
data_PrNd5Mg(SiSe7)2
_symmetry_space_group_name_H-M   'P 1'
_cell_length_a   10.71048094
_cell_length_b   10.70599520
_cell_length_c   6.01753529
_cell_angle_alpha   89.98015078
_cell_angle_beta   90.07260189
_cell_angle_gamma   119.96975151
_symmetry_Int_Tables_number   1
_chemical_formula_structural   PrNd5Mg(SiSe7)2
_chemical_formula_sum   'Pr1 Nd5 Mg1 Si2 Se14'
_cell_volume   597.74674030
_cell_formula_units_Z   1
loop_
 _symmetry_equiv_pos_site_id
 _symmetry_equiv_pos_as_xyz
  1  'x, y, z'
loop_
 _atom_site_type_symbol
 _atom_site_label
 _atom_site_symmetry_multiplicity
 _atom_site_fract_x
 _atom_site_fract_y
 _atom_site_fract_z
 _atom_site_occupancy
  Pr  Pr0  1  0.976739  0.434011  0.752109  1
  Nd  Nd1  1  0.457157  0.022996  0.751893  1
  Nd  Nd2  1  0.565818  0.542806  0.751869  1
  Nd  Nd3  1  0.689199  0.898978  0.249208  1
  Nd  Nd4  1  0.209923  0.310716  0.249310  1
  Nd  Nd5  1  0.100993  0.790360  0.249153  1
  Mg  Mg6  1  0.333512  0.666789  0.513682  1
  Si  Si7  1  0.666563  0.333305  0.165233  1
  Si  Si8  1  0.000084  0.999863  0.660045  1
  Se  Se9  1  0.665933  0.333086  0.540545  1
  Se  Se10  1  0.000011  0.000027  0.035919  1
  Se  Se11  1  0.084071  0.504565  0.273370  1
  Se  Se12  1  0.420590  0.916349  0.274519  1
  Se  Se13  1  0.495682  0.579299  0.274467  1
  Se  Se14  1  0.582933  0.831482  0.756642  1
  Se  Se15  1  0.249649  0.417067  0.756533  1
  Se  Se16  1  0.169392  0.752783  0.756731  1
  Se  Se17  1  0.813390  0.558975  0.014895  1
  Se  Se18  1  0.743791  0.185122  0.015036  1
  Se  Se19  1  0.441390  0.255299  0.013861  1
  Se  Se20  1  0.852586  0.774592  0.509845  1
  Se  Se21  1  0.921939  0.146916  0.509317  1
  Se  Se22  1  0.225322  0.077945  0.509851  1
