# generated using pymatgen
data_Tb4Al6Cu3Si4Ni3
_symmetry_space_group_name_H-M   'P 1'
_cell_length_a   8.14950606
_cell_length_b   8.14950665
_cell_length_c   8.14948101
_cell_angle_alpha   138.67466376
_cell_angle_beta   102.70813881
_cell_angle_gamma   91.66444983
_symmetry_Int_Tables_number   1
_chemical_formula_structural   Tb4Al6Cu3Si4Ni3
_chemical_formula_sum   'Tb4 Al6 Cu3 Si4 Ni3'
_cell_volume   332.41630858
_cell_formula_units_Z   1
loop_
 _symmetry_equiv_pos_site_id
 _symmetry_equiv_pos_as_xyz
  1  'x, y, z'
loop_
 _atom_site_type_symbol
 _atom_site_label
 _atom_site_symmetry_multiplicity
 _atom_site_fract_x
 _atom_site_fract_y
 _atom_site_fract_z
 _atom_site_occupancy
  Tb  Tb0  1  0.627036  0.869967  0.752878  1
  Tb  Tb1  1  0.378508  0.127662  0.247594  1
  Tb  Tb2  1  0.880066  0.630914  0.252406  1
  Tb  Tb3  1  0.117091  0.374159  0.747122  1
  Al  Al4  1  0.996933  0.246933  0.250000  1
  Al  Al5  1  0.996845  0.746845  0.750000  1
  Al  Al6  1  0.257163  0.507163  0.250000  1
  Al  Al7  1  0.747819  0.997819  0.250000  1
  Al  Al8  1  0.746652  0.496652  0.750000  1
  Al  Al9  1  0.259109  0.009109  0.750000  1
  Cu  Cu10  1  0.996233  0.129081  0.866352  1
  Cu  Cu11  1  0.497863  0.747863  0.250000  1
  Cu  Cu12  1  0.262729  0.629881  0.633648  1
  Si  Si13  1  0.469921  0.603424  0.853308  1
  Si  Si14  1  0.750117  0.116613  0.646692  1
  Si  Si15  1  0.239149  0.894176  0.357769  1
  Si  Si16  1  0.536406  0.381381  0.142231  1
  Ni  Ni17  1  0.740306  0.371361  0.369087  1
  Ni  Ni18  1  0.002274  0.871219  0.130913  1
  Ni  Ni19  1  0.497779  0.247779  0.750000  1
