# generated using pymatgen
data_Ac(BeN)2
_symmetry_space_group_name_H-M   'P 1'
_cell_length_a   5.68554309
_cell_length_b   5.68554321
_cell_length_c   5.68554346
_cell_angle_alpha   120.88250288
_cell_angle_beta   120.88249965
_cell_angle_gamma   88.47814077
_symmetry_Int_Tables_number   1
_chemical_formula_structural   Ac(BeN)2
_chemical_formula_sum   'Ac2 Be4 N4'
_cell_volume   128.17480149
_cell_formula_units_Z   2
loop_
 _symmetry_equiv_pos_site_id
 _symmetry_equiv_pos_as_xyz
  1  'x, y, z'
loop_
 _atom_site_type_symbol
 _atom_site_label
 _atom_site_symmetry_multiplicity
 _atom_site_fract_x
 _atom_site_fract_y
 _atom_site_fract_z
 _atom_site_occupancy
  Ac  Ac0  1  0.750000  0.750000  0.000000  1
  Ac  Ac1  1  0.250000  0.250000  0.000000  1
  Be  Be2  1  0.124878  0.624878  0.749756  1
  Be  Be3  1  0.624878  0.875122  0.500000  1
  Be  Be4  1  0.875122  0.375122  0.250244  1
  Be  Be5  1  0.375122  0.124878  0.500000  1
  N  N6  1  0.172193  0.327807  0.500000  1
  N  N7  1  0.672193  0.172193  0.844387  1
  N  N8  1  0.327807  0.827807  0.155613  1
  N  N9  1  0.827807  0.672193  0.500000  1
