# generated using pymatgen
data_Nb4Fe(RhSe6)2
_symmetry_space_group_name_H-M   'P 1'
_cell_length_a   7.55066840
_cell_length_b   7.55066786
_cell_length_c   19.56299044
_cell_angle_alpha   68.67127861
_cell_angle_beta   68.67128086
_cell_angle_gamma   26.68591267
_symmetry_Int_Tables_number   1
_chemical_formula_structural   Nb4Fe(RhSe6)2
_chemical_formula_sum   'Nb4 Fe1 Rh2 Se12'
_cell_volume   464.58485853
_cell_formula_units_Z   1
loop_
 _symmetry_equiv_pos_site_id
 _symmetry_equiv_pos_as_xyz
  1  'x, y, z'
loop_
 _atom_site_type_symbol
 _atom_site_label
 _atom_site_symmetry_multiplicity
 _atom_site_fract_x
 _atom_site_fract_y
 _atom_site_fract_z
 _atom_site_occupancy
  Nb  Nb0  1  0.744681  0.744681  0.592683  1
  Nb  Nb1  1  0.255319  0.255319  0.407317  1
  Nb  Nb2  1  0.618221  0.618221  0.854183  1
  Nb  Nb3  1  0.381779  0.381779  0.145817  1
  Fe  Fe4  1  0.000000  0.000000  0.000000  1
  Rh  Rh5  1  0.773384  0.773384  0.280720  1
  Rh  Rh6  1  0.226616  0.226616  0.719280  1
  Se  Se7  1  0.861287  0.861287  0.449058  1
  Se  Se8  1  0.026276  0.026276  0.112708  1
  Se  Se9  1  0.800977  0.800977  0.771499  1
  Se  Se10  1  0.398433  0.398433  0.278717  1
  Se  Se11  1  0.172833  0.172833  0.932547  1
  Se  Se12  1  0.601567  0.601567  0.721283  1
  Se  Se13  1  0.138713  0.138713  0.550942  1
  Se  Se14  1  0.827167  0.827167  0.067453  1
  Se  Se15  1  0.371230  0.371230  0.600396  1
  Se  Se16  1  0.973724  0.973724  0.887292  1
  Se  Se17  1  0.199023  0.199023  0.228501  1
  Se  Se18  1  0.628770  0.628770  0.399604  1
