# generated using pymatgen
data_TaAg3Te4
_symmetry_space_group_name_H-M   'P 1'
_cell_length_a   6.52090000
_cell_length_b   9.22611400
_cell_length_c   9.22611400
_cell_angle_alpha   90.00000000
_cell_angle_beta   90.00000000
_cell_angle_gamma   90.00000000
_symmetry_Int_Tables_number   1
_chemical_formula_structural   TaAg3Te4
_chemical_formula_sum   'Ta2 Ag6 Te8'
_cell_volume   555.06669967
_cell_formula_units_Z   2
loop_
 _symmetry_equiv_pos_site_id
 _symmetry_equiv_pos_as_xyz
  1  'x, y, z'
loop_
 _atom_site_type_symbol
 _atom_site_label
 _atom_site_symmetry_multiplicity
 _atom_site_fract_x
 _atom_site_fract_y
 _atom_site_fract_z
 _atom_site_occupancy
  Ta  Ta0  1  0.000000  0.500000  0.500000  1
  Ta  Ta1  1  0.000000  0.000000  0.000000  1
  Ag  Ag2  1  0.000000  0.250018  0.250018  1
  Ag  Ag3  1  0.000000  0.749982  0.749982  1
  Ag  Ag4  1  0.000000  0.250018  0.749982  1
  Ag  Ag5  1  0.000000  0.749982  0.250018  1
  Ag  Ag6  1  0.500000  0.000000  0.000000  1
  Ag  Ag7  1  0.500000  0.500000  0.500000  1
  Te  Te8  1  0.760369  0.500000  0.739477  1
  Te  Te9  1  0.760376  0.000000  0.239468  1
  Te  Te10  1  0.760369  0.500000  0.260523  1
  Te  Te11  1  0.760376  0.000000  0.760532  1
  Te  Te12  1  0.239624  0.760532  0.000000  1
  Te  Te13  1  0.239631  0.260523  0.500000  1
  Te  Te14  1  0.239624  0.239468  0.000000  1
  Te  Te15  1  0.239631  0.739477  0.500000  1
