# generated using pymatgen
data_LiDy6Co6Sn23
_symmetry_space_group_name_H-M   'P 1'
_cell_length_a   9.68244500
_cell_length_b   9.68244445
_cell_length_c   9.95509600
_cell_angle_alpha   90.00000000
_cell_angle_beta   90.00000000
_cell_angle_gamma   119.99999845
_symmetry_Int_Tables_number   1
_chemical_formula_structural   LiDy6Co6Sn23
_chemical_formula_sum   'Li1 Dy6 Co6 Sn23'
_cell_volume   808.25080136
_cell_formula_units_Z   1
loop_
 _symmetry_equiv_pos_site_id
 _symmetry_equiv_pos_as_xyz
  1  'x, y, z'
loop_
 _atom_site_type_symbol
 _atom_site_label
 _atom_site_symmetry_multiplicity
 _atom_site_fract_x
 _atom_site_fract_y
 _atom_site_fract_z
 _atom_site_occupancy
  Li  Li0  1  0.000000  0.000000  0.000000  1
  Dy  Dy1  1  0.479818  0.520182  0.305226  1
  Dy  Dy2  1  0.520182  0.479818  0.694774  1
  Dy  Dy3  1  0.479818  0.959637  0.305226  1
  Dy  Dy4  1  0.520182  0.040363  0.694774  1
  Dy  Dy5  1  0.040363  0.520182  0.305226  1
  Dy  Dy6  1  0.959637  0.479818  0.694774  1
  Co  Co7  1  0.829692  0.170308  0.200743  1
  Co  Co8  1  0.170308  0.829692  0.799257  1
  Co  Co9  1  0.829692  0.659383  0.200743  1
  Co  Co10  1  0.170308  0.340617  0.799257  1
  Co  Co11  1  0.340617  0.170308  0.200743  1
  Co  Co12  1  0.659383  0.829692  0.799257  1
  Sn  Sn13  1  0.342511  0.000000  0.000000  1
  Sn  Sn14  1  0.657489  0.000000  0.000000  1
  Sn  Sn15  1  0.000000  0.342511  0.000000  1
  Sn  Sn16  1  0.000000  0.657489  0.000000  1
  Sn  Sn17  1  0.657489  0.657489  0.000000  1
  Sn  Sn18  1  0.342511  0.342511  0.000000  1
  Sn  Sn19  1  0.333333  0.666667  0.814292  1
  Sn  Sn20  1  0.666667  0.333333  0.185708  1
  Sn  Sn21  1  0.000000  0.000000  0.500000  1
  Sn  Sn22  1  0.781691  0.218309  0.454334  1
  Sn  Sn23  1  0.218309  0.781691  0.545666  1
  Sn  Sn24  1  0.781691  0.563381  0.454334  1
  Sn  Sn25  1  0.218309  0.436619  0.545666  1
  Sn  Sn26  1  0.436619  0.218309  0.454334  1
  Sn  Sn27  1  0.563381  0.781691  0.545666  1
  Sn  Sn28  1  0.333333  0.666667  0.116155  1
  Sn  Sn29  1  0.666667  0.333333  0.883845  1
  Sn  Sn30  1  0.115599  0.884401  0.270079  1
  Sn  Sn31  1  0.884401  0.115599  0.729921  1
  Sn  Sn32  1  0.115599  0.231199  0.270079  1
  Sn  Sn33  1  0.884401  0.768801  0.729921  1
  Sn  Sn34  1  0.768801  0.884401  0.270079  1
  Sn  Sn35  1  0.231199  0.115599  0.729921  1
