# generated using pymatgen
data_Er4LuBiPd2
_symmetry_space_group_name_H-M   'P 1'
_cell_length_a   8.79399197
_cell_length_b   8.79399148
_cell_length_c   8.79399186
_cell_angle_alpha   128.14980836
_cell_angle_beta   128.14980006
_cell_angle_gamma   76.38247529
_symmetry_Int_Tables_number   1
_chemical_formula_structural   Er4LuBiPd2
_chemical_formula_sum   'Er8 Lu2 Bi2 Pd4'
_cell_volume   408.66347325
_cell_formula_units_Z   2
loop_
 _symmetry_equiv_pos_site_id
 _symmetry_equiv_pos_as_xyz
  1  'x, y, z'
loop_
 _atom_site_type_symbol
 _atom_site_label
 _atom_site_symmetry_multiplicity
 _atom_site_fract_x
 _atom_site_fract_y
 _atom_site_fract_z
 _atom_site_occupancy
  Er  Er0  1  0.795986  0.295986  0.811873  1
  Er  Er1  1  0.204014  0.704014  0.188127  1
  Er  Er2  1  0.484114  0.984114  0.188127  1
  Er  Er3  1  0.295986  0.484114  0.500000  1
  Er  Er4  1  0.015886  0.204014  0.500000  1
  Er  Er5  1  0.515886  0.015886  0.811873  1
  Er  Er6  1  0.704014  0.515886  0.500000  1
  Er  Er7  1  0.984114  0.795986  0.500000  1
  Lu  Lu8  1  0.000000  0.000000  0.000000  1
  Lu  Lu9  1  0.500000  0.500000  0.000000  1
  Bi  Bi10  1  0.250000  0.250000  0.000000  1
  Bi  Bi11  1  0.750000  0.750000  0.000000  1
  Pd  Pd12  1  0.138008  0.638008  0.776016  1
  Pd  Pd13  1  0.861992  0.361992  0.223984  1
  Pd  Pd14  1  0.638008  0.861992  0.500000  1
  Pd  Pd15  1  0.361992  0.138008  0.500000  1
