# generated using pymatgen
data_Er8Al2PtRh
_symmetry_space_group_name_H-M   'P 1'
_cell_length_a   9.46321854
_cell_length_b   9.47264682
_cell_length_c   9.47264701
_cell_angle_alpha   60.04368829
_cell_angle_beta   60.03292110
_cell_angle_gamma   60.03292772
_symmetry_Int_Tables_number   1
_chemical_formula_structural   Er8Al2PtRh
_chemical_formula_sum   'Er16 Al4 Pt2 Rh2'
_cell_volume   600.93271813
_cell_formula_units_Z   2
loop_
 _symmetry_equiv_pos_site_id
 _symmetry_equiv_pos_as_xyz
  1  'x, y, z'
loop_
 _atom_site_type_symbol
 _atom_site_label
 _atom_site_symmetry_multiplicity
 _atom_site_fract_x
 _atom_site_fract_y
 _atom_site_fract_z
 _atom_site_occupancy
  Er  Er0  1  0.195171  0.190123  0.807408  1
  Er  Er1  1  0.435903  0.064097  0.064097  1
  Er  Er2  1  0.435427  0.064248  0.436673  1
  Er  Er3  1  0.063650  0.436673  0.064248  1
  Er  Er4  1  0.645917  0.059958  0.648209  1
  Er  Er5  1  0.191349  0.808651  0.808651  1
  Er  Er6  1  0.063650  0.064248  0.436673  1
  Er  Er7  1  0.806089  0.193911  0.193911  1
  Er  Er8  1  0.807298  0.807408  0.190123  1
  Er  Er9  1  0.645917  0.648209  0.059958  1
  Er  Er10  1  0.643750  0.647225  0.647225  1
  Er  Er11  1  0.063735  0.436265  0.436265  1
  Er  Er12  1  0.061801  0.647225  0.647225  1
  Er  Er13  1  0.807298  0.190123  0.807408  1
  Er  Er14  1  0.435427  0.436673  0.064248  1
  Er  Er15  1  0.195171  0.807408  0.190123  1
  Al  Al16  1  0.422476  0.734019  0.421030  1
  Al  Al17  1  0.422476  0.421030  0.734019  1
  Al  Al18  1  0.734888  0.421472  0.421472  1
  Al  Al19  1  0.422167  0.421472  0.421472  1
  Pt  Pt20  1  0.857128  0.428662  0.857082  1
  Pt  Pt21  1  0.857128  0.857082  0.428662  1
  Rh  Rh22  1  0.429158  0.856909  0.856909  1
  Rh  Rh23  1  0.857025  0.856909  0.856909  1
