# generated using pymatgen
data_Sc2HPd6
_symmetry_space_group_name_H-M   'P 1'
_cell_length_a   5.70727017
_cell_length_b   5.70726937
_cell_length_c   5.70727000
_cell_angle_alpha   59.99999635
_cell_angle_beta   60.00000097
_cell_angle_gamma   60.00000606
_symmetry_Int_Tables_number   1
_chemical_formula_structural   Sc2HPd6
_chemical_formula_sum   'Sc2 H1 Pd6'
_cell_volume   131.45291892
_cell_formula_units_Z   1
loop_
 _symmetry_equiv_pos_site_id
 _symmetry_equiv_pos_as_xyz
  1  'x, y, z'
loop_
 _atom_site_type_symbol
 _atom_site_label
 _atom_site_symmetry_multiplicity
 _atom_site_fract_x
 _atom_site_fract_y
 _atom_site_fract_z
 _atom_site_occupancy
  Sc  Sc0  1  0.250000  0.250000  0.250000  1
  Sc  Sc1  1  0.750000  0.750000  0.750000  1
  H  H2  1  0.500000  0.500000  0.500000  1
  Pd  Pd3  1  0.751589  0.248411  0.248411  1
  Pd  Pd4  1  0.248411  0.751589  0.248411  1
  Pd  Pd5  1  0.751589  0.751589  0.248411  1
  Pd  Pd6  1  0.248411  0.248411  0.751589  1
  Pd  Pd7  1  0.751589  0.248411  0.751589  1
  Pd  Pd8  1  0.248411  0.751589  0.751589  1
