# generated using pymatgen
data_Sm2YHo3(Si3Ru)8
_symmetry_space_group_name_H-M   'P 1'
_cell_length_a   10.13664448
_cell_length_b   10.13664421
_cell_length_c   8.16616419
_cell_angle_alpha   90.06819675
_cell_angle_beta   89.93180134
_cell_angle_gamma   132.52146554
_symmetry_Int_Tables_number   1
_chemical_formula_structural   Sm2YHo3(Si3Ru)8
_chemical_formula_sum   'Sm2 Y1 Ho3 Si24 Ru8'
_cell_volume   618.42621902
_cell_formula_units_Z   1
loop_
 _symmetry_equiv_pos_site_id
 _symmetry_equiv_pos_as_xyz
  1  'x, y, z'
loop_
 _atom_site_type_symbol
 _atom_site_label
 _atom_site_symmetry_multiplicity
 _atom_site_fract_x
 _atom_site_fract_y
 _atom_site_fract_z
 _atom_site_occupancy
  Sm  Sm0  1  0.997500  0.497500  0.250000  1
  Sm  Sm1  1  0.496818  0.996818  0.250000  1
  Y  Y2  1  0.502479  0.002479  0.750000  1
  Ho  Ho3  1  0.499970  0.499998  0.500141  1
  Ho  Ho4  1  0.999998  0.999970  0.999859  1
  Ho  Ho5  1  0.002538  0.502538  0.750000  1
  Si  Si6  1  0.794722  0.205577  0.501932  1
  Si  Si7  1  0.294233  0.704977  0.998277  1
  Si  Si8  1  0.204977  0.794233  0.501723  1
  Si  Si9  1  0.705577  0.294722  0.998068  1
  Si  Si10  1  0.332335  0.332088  0.833085  1
  Si  Si11  1  0.667639  0.667804  0.167124  1
  Si  Si12  1  0.167804  0.167639  0.332876  1
  Si  Si13  1  0.832088  0.832335  0.666915  1
  Si  Si14  1  0.121424  0.887996  0.727672  1
  Si  Si15  1  0.113266  0.879540  0.271097  1
  Si  Si16  1  0.611205  0.377334  0.228446  1
  Si  Si17  1  0.621459  0.387938  0.771624  1
  Si  Si18  1  0.877334  0.111205  0.271554  1
  Si  Si19  1  0.887938  0.121459  0.728376  1
  Si  Si20  1  0.387996  0.621424  0.772328  1
  Si  Si21  1  0.379540  0.613266  0.228903  1
  Si  Si22  1  0.345896  0.112318  0.505116  1
  Si  Si23  1  0.888405  0.656414  0.496566  1
  Si  Si24  1  0.387468  0.154037  0.004843  1
  Si  Si25  1  0.844101  0.611632  0.994111  1
  Si  Si26  1  0.654037  0.887468  0.495157  1
  Si  Si27  1  0.111632  0.344101  0.505889  1
  Si  Si28  1  0.612318  0.845896  0.994884  1
  Si  Si29  1  0.156414  0.388405  0.003434  1
  Ru  Ru30  1  0.670546  0.333927  0.501429  1
  Ru  Ru31  1  0.166209  0.829624  0.997412  1
  Ru  Ru32  1  0.329624  0.666209  0.502588  1
  Ru  Ru33  1  0.833927  0.170546  0.998571  1
  Ru  Ru34  1  0.126158  0.125837  0.626688  1
  Ru  Ru35  1  0.874278  0.874308  0.372929  1
  Ru  Ru36  1  0.374308  0.374278  0.127071  1
  Ru  Ru37  1  0.625837  0.626158  0.873312  1
