# generated using pymatgen
data_Dy5Co14Si5P7Os5
_symmetry_space_group_name_H-M   'P 1'
_cell_length_a   12.20254309
_cell_length_b   12.16318051
_cell_length_c   3.73002800
_cell_angle_alpha   90.00000000
_cell_angle_beta   90.00000000
_cell_angle_gamma   119.98575106
_symmetry_Int_Tables_number   1
_chemical_formula_structural   Dy5Co14Si5P7Os5
_chemical_formula_sum   'Dy5 Co14 Si5 P7 Os5'
_cell_volume   479.51540528
_cell_formula_units_Z   1
loop_
 _symmetry_equiv_pos_site_id
 _symmetry_equiv_pos_as_xyz
  1  'x, y, z'
loop_
 _atom_site_type_symbol
 _atom_site_label
 _atom_site_symmetry_multiplicity
 _atom_site_fract_x
 _atom_site_fract_y
 _atom_site_fract_z
 _atom_site_occupancy
  Dy  Dy0  1  0.663102  0.333838  0.000000  1
  Dy  Dy1  1  0.332938  0.666013  0.000000  1
  Dy  Dy2  1  0.183586  0.182168  0.500000  1
  Dy  Dy3  1  0.819167  0.002104  0.500000  1
  Dy  Dy4  1  0.998212  0.818561  0.500000  1
  Co  Co5  1  0.831227  0.197684  0.000000  1
  Co  Co6  1  0.800792  0.634118  0.000000  1
  Co  Co7  1  0.373259  0.171209  0.000000  1
  Co  Co8  1  0.198620  0.824433  0.000000  1
  Co  Co9  1  0.621597  0.798817  0.000000  1
  Co  Co10  1  0.178923  0.375747  0.000000  1
  Co  Co11  1  0.474191  0.350960  0.500000  1
  Co  Co12  1  0.134052  0.645034  0.500000  1
  Co  Co13  1  0.511550  0.866630  0.500000  1
  Co  Co14  1  0.357167  0.484393  0.500000  1
  Co  Co15  1  0.715840  0.725349  0.500000  1
  Co  Co16  1  0.280017  0.998138  0.500000  1
  Co  Co17  1  0.008662  0.281900  0.500000  1
  Co  Co18  1  0.000240  0.999680  0.000000  1
  Si  Si19  1  0.362937  0.362506  0.000000  1
  Si  Si20  1  0.634725  0.994858  0.000000  1
  Si  Si21  1  0.005923  0.640452  0.000000  1
  Si  Si22  1  0.842968  0.317336  0.500000  1
  Si  Si23  1  0.677731  0.523437  0.500000  1
  P  P24  1  0.474114  0.164462  0.500000  1
  P  P25  1  0.314217  0.835027  0.500000  1
  P  P26  1  0.519172  0.684459  0.500000  1
  P  P27  1  0.167103  0.478779  0.500000  1
  P  P28  1  0.818329  0.822914  0.000000  1
  P  P29  1  0.178136  0.998422  0.000000  1
  P  P30  1  0.003720  0.180515  0.000000  1
  Os  Os31  1  0.555433  0.555868  0.000000  1
  Os  Os32  1  0.437324  0.990054  0.000000  1
  Os  Os33  1  0.007046  0.444237  0.000000  1
  Os  Os34  1  0.641327  0.124112  0.500000  1
  Os  Os35  1  0.876651  0.525787  0.500000  1
