# generated using pymatgen
data_K3LaV2O8
_symmetry_space_group_name_H-M   'P 1'
_cell_length_a   6.16612100
_cell_length_b   6.16612038
_cell_length_c   7.91907200
_cell_angle_alpha   90.00000000
_cell_angle_beta   90.00000000
_cell_angle_gamma   119.99999797
_symmetry_Int_Tables_number   1
_chemical_formula_structural   K3LaV2O8
_chemical_formula_sum   'K3 La1 V2 O8'
_cell_volume   260.75279600
_cell_formula_units_Z   1
loop_
 _symmetry_equiv_pos_site_id
 _symmetry_equiv_pos_as_xyz
  1  'x, y, z'
loop_
 _atom_site_type_symbol
 _atom_site_label
 _atom_site_symmetry_multiplicity
 _atom_site_fract_x
 _atom_site_fract_y
 _atom_site_fract_z
 _atom_site_occupancy
  K  K0  1  0.333333  0.666667  0.703243  1
  K  K1  1  0.666667  0.333333  0.296757  1
  K  K2  1  0.000000  0.000000  0.000000  1
  La  La3  1  0.000000  0.000000  0.500000  1
  V  V4  1  0.333333  0.666667  0.239618  1
  V  V5  1  0.666667  0.333333  0.760382  1
  O  O6  1  0.333333  0.666667  0.027066  1
  O  O7  1  0.666667  0.333333  0.972934  1
  O  O8  1  0.177804  0.822196  0.316579  1
  O  O9  1  0.822196  0.177804  0.683421  1
  O  O10  1  0.177804  0.355608  0.316579  1
  O  O11  1  0.822196  0.644392  0.683421  1
  O  O12  1  0.644392  0.822196  0.316579  1
  O  O13  1  0.355608  0.177804  0.683421  1
