# generated using pymatgen
data_RbNiP2Ru
_symmetry_space_group_name_H-M   'P 1'
_cell_length_a   7.52752349
_cell_length_b   7.52752325
_cell_length_c   7.52752334
_cell_angle_alpha   150.57974345
_cell_angle_beta   150.57974081
_cell_angle_gamma   42.09106517
_symmetry_Int_Tables_number   1
_chemical_formula_structural   RbNiP2Ru
_chemical_formula_sum   'Rb1 Ni1 P2 Ru1'
_cell_volume   102.67384235
_cell_formula_units_Z   1
loop_
 _symmetry_equiv_pos_site_id
 _symmetry_equiv_pos_as_xyz
  1  'x, y, z'
loop_
 _atom_site_type_symbol
 _atom_site_label
 _atom_site_symmetry_multiplicity
 _atom_site_fract_x
 _atom_site_fract_y
 _atom_site_fract_z
 _atom_site_occupancy
  Rb  Rb0  1  0.000000  0.000000  0.000000  1
  Ni  Ni1  1  0.750000  0.250000  0.500000  1
  P  P2  1  0.340610  0.340610  0.000000  1
  P  P3  1  0.659390  0.659390  0.000000  1
  Ru  Ru4  1  0.250000  0.750000  0.500000  1
