# generated using pymatgen
data_La2PuScO7
_symmetry_space_group_name_H-M   'P 1'
_cell_length_a   7.80486133
_cell_length_b   7.73338887
_cell_length_c   7.73338800
_cell_angle_alpha   59.71233292
_cell_angle_beta   59.69379417
_cell_angle_gamma   59.69379571
_symmetry_Int_Tables_number   1
_chemical_formula_structural   La2PuScO7
_chemical_formula_sum   'La4 Pu2 Sc2 O14'
_cell_volume   327.80829598
_cell_formula_units_Z   2
loop_
 _symmetry_equiv_pos_site_id
 _symmetry_equiv_pos_as_xyz
  1  'x, y, z'
loop_
 _atom_site_type_symbol
 _atom_site_label
 _atom_site_symmetry_multiplicity
 _atom_site_fract_x
 _atom_site_fract_y
 _atom_site_fract_z
 _atom_site_occupancy
  La  La0  1  0.625000  0.125000  0.125000  1
  La  La1  1  0.125000  0.125000  0.125000  1
  La  La2  1  0.125000  0.625000  0.125000  1
  La  La3  1  0.125000  0.125000  0.625000  1
  Pu  Pu4  1  0.625000  0.625000  0.625000  1
  Pu  Pu5  1  0.125000  0.625000  0.625000  1
  Sc  Sc6  1  0.625000  0.625000  0.125000  1
  Sc  Sc7  1  0.625000  0.125000  0.625000  1
  O  O8  1  0.710120  0.289880  0.289880  1
  O  O9  1  0.711456  0.706773  0.293856  1
  O  O10  1  0.287915  0.706773  0.293856  1
  O  O11  1  0.000675  0.999325  0.999325  1
  O  O12  1  0.711456  0.293856  0.706773  1
  O  O13  1  0.965971  0.534029  0.534029  1
  O  O14  1  0.284029  0.715971  0.715971  1
  O  O15  1  0.538544  0.956144  0.543227  1
  O  O16  1  0.249325  0.250675  0.250675  1
  O  O17  1  0.962085  0.543227  0.956144  1
  O  O18  1  0.538544  0.543227  0.956144  1
  O  O19  1  0.962085  0.956144  0.543227  1
  O  O20  1  0.539880  0.960120  0.960120  1
  O  O21  1  0.287915  0.293856  0.706773  1
