# generated using pymatgen
data_Ho6Sc4(GaBi)3
_symmetry_space_group_name_H-M   'P 1'
_cell_length_a   8.66101400
_cell_length_b   8.68663483
_cell_length_c   6.24466400
_cell_angle_alpha   90.00000000
_cell_angle_beta   90.00000000
_cell_angle_gamma   119.90248073
_symmetry_Int_Tables_number   1
_chemical_formula_structural   Ho6Sc4(GaBi)3
_chemical_formula_sum   'Ho6 Sc4 Ga3 Bi3'
_cell_volume   407.27330255
_cell_formula_units_Z   1
loop_
 _symmetry_equiv_pos_site_id
 _symmetry_equiv_pos_as_xyz
  1  'x, y, z'
loop_
 _atom_site_type_symbol
 _atom_site_label
 _atom_site_symmetry_multiplicity
 _atom_site_fract_x
 _atom_site_fract_y
 _atom_site_fract_z
 _atom_site_occupancy
  Ho  Ho0  1  0.234072  0.000000  0.250000  1
  Ho  Ho1  1  0.243898  0.227603  0.750000  1
  Ho  Ho2  1  0.016294  0.772397  0.750000  1
  Ho  Ho3  1  0.017291  0.251808  0.250000  1
  Ho  Ho4  1  0.765483  0.748192  0.250000  1
  Ho  Ho5  1  0.753604  0.000000  0.750000  1
  Sc  Sc6  1  0.324848  0.666950  0.005940  1
  Sc  Sc7  1  0.657900  0.333050  0.494060  1
  Sc  Sc8  1  0.657900  0.333050  0.005940  1
  Sc  Sc9  1  0.324848  0.666950  0.494060  1
  Ga  Ga10  1  0.999362  0.599930  0.250000  1
  Ga  Ga11  1  0.399432  0.400070  0.250000  1
  Ga  Ga12  1  0.401942  0.000000  0.750000  1
  Bi  Bi13  1  0.606428  0.000000  0.250000  1
  Bi  Bi14  1  0.599521  0.602345  0.750000  1
  Bi  Bi15  1  0.997177  0.397655  0.750000  1
