# generated using pymatgen
data_Li6Ga6Si5GeO24
_symmetry_space_group_name_H-M   'P 1'
_cell_length_a   8.57058198
_cell_length_b   8.57299319
_cell_length_c   8.57491258
_cell_angle_alpha   107.75138564
_cell_angle_beta   108.10180438
_cell_angle_gamma   107.74816870
_symmetry_Int_Tables_number   1
_chemical_formula_structural   Li6Ga6Si5GeO24
_chemical_formula_sum   'Li6 Ga6 Si5 Ge1 O24'
_cell_volume   511.78517365
_cell_formula_units_Z   1
loop_
 _symmetry_equiv_pos_site_id
 _symmetry_equiv_pos_as_xyz
  1  'x, y, z'
loop_
 _atom_site_type_symbol
 _atom_site_label
 _atom_site_symmetry_multiplicity
 _atom_site_fract_x
 _atom_site_fract_y
 _atom_site_fract_z
 _atom_site_occupancy
  Li  Li0  1  0.889670  0.723171  0.129450  1
  Li  Li1  1  0.435342  0.603351  0.213776  1
  Li  Li2  1  0.611117  0.214505  0.434802  1
  Li  Li3  1  0.209229  0.434878  0.608674  1
  Li  Li4  1  0.124516  0.892915  0.720799  1
  Li  Li5  1  0.724440  0.126620  0.892532  1
  Ga  Ga6  1  0.460363  0.239511  0.051894  1
  Ga  Ga7  1  0.052321  0.457755  0.235982  1
  Ga  Ga8  1  0.236166  0.056484  0.463622  1
  Ga  Ga9  1  0.768243  0.945253  0.533246  1
  Ga  Ga10  1  0.939751  0.529859  0.766227  1
  Ga  Ga11  1  0.537309  0.768567  0.942326  1
  Si  Si12  1  0.875016  0.095761  0.281120  1
  Si  Si13  1  0.797008  0.567091  0.388655  1
  Si  Si14  1  0.387619  0.796075  0.565803  1
  Si  Si15  1  0.566915  0.388511  0.795367  1
  Si  Si16  1  0.094949  0.281442  0.875038  1
  Ge  Ge17  1  0.281442  0.873601  0.097717  1
  O  O18  1  0.046400  0.719863  0.001046  1
  O  O19  1  0.307395  0.352597  0.019936  1
  O  O20  1  0.730698  0.003947  0.061742  1
  O  O21  1  0.413129  0.750530  0.084250  1
  O  O22  1  0.910478  0.579419  0.265519  1
  O  O23  1  0.631516  0.358254  0.296668  1
  O  O24  1  0.992778  0.977411  0.311696  1
  O  O25  1  0.361597  0.035085  0.322657  1
  O  O26  1  0.019515  0.307620  0.352210  1
  O  O27  1  0.296023  0.632362  0.355423  1
  O  O28  1  0.700184  0.705588  0.381048  1
  O  O29  1  0.760123  0.084077  0.403562  1
  O  O30  1  0.263575  0.909311  0.579193  1
  O  O31  1  0.937730  0.630844  0.601836  1
  O  O32  1  0.354618  0.299432  0.636016  1
  O  O33  1  0.601198  0.936153  0.631354  1
  O  O34  1  0.699910  0.375534  0.693283  1
  O  O35  1  0.380203  0.697100  0.702622  1
  O  O36  1  0.002870  0.063045  0.729238  1
  O  O37  1  0.081897  0.404201  0.760154  1
  O  O38  1  0.582591  0.266925  0.910826  1
  O  O39  1  0.635889  0.602340  0.934974  1
  O  O40  1  0.312853  0.994793  0.966460  1
  O  O41  1  0.977015  0.309822  0.992851  1
