# generated using pymatgen
data_TbYCo8(P3Ru)2
_symmetry_space_group_name_H-M   'P 1'
_cell_length_a   3.69858600
_cell_length_b   10.42137500
_cell_length_c   11.80433500
_cell_angle_alpha   90.00000000
_cell_angle_beta   90.00000000
_cell_angle_gamma   90.00000000
_symmetry_Int_Tables_number   1
_chemical_formula_structural   TbYCo8(P3Ru)2
_chemical_formula_sum   'Tb2 Y2 Co16 P12 Ru4'
_cell_volume   454.99043954
_cell_formula_units_Z   2
loop_
 _symmetry_equiv_pos_site_id
 _symmetry_equiv_pos_as_xyz
  1  'x, y, z'
loop_
 _atom_site_type_symbol
 _atom_site_label
 _atom_site_symmetry_multiplicity
 _atom_site_fract_x
 _atom_site_fract_y
 _atom_site_fract_z
 _atom_site_occupancy
  Tb  Tb0  1  0.750000  0.413897  0.296104  1
  Tb  Tb1  1  0.750000  0.086103  0.796104  1
  Y  Y2  1  0.250000  0.586331  0.703950  1
  Y  Y3  1  0.250000  0.913669  0.203950  1
  Co  Co4  1  0.250000  0.408561  0.489780  1
  Co  Co5  1  0.250000  0.091439  0.989780  1
  Co  Co6  1  0.750000  0.591426  0.510289  1
  Co  Co7  1  0.750000  0.908574  0.010289  1
  Co  Co8  1  0.250000  0.221021  0.176479  1
  Co  Co9  1  0.250000  0.278979  0.676479  1
  Co  Co10  1  0.750000  0.778883  0.823398  1
  Co  Co11  1  0.750000  0.721117  0.323398  1
  Co  Co12  1  0.250000  0.887039  0.702385  1
  Co  Co13  1  0.250000  0.612961  0.202385  1
  Co  Co14  1  0.750000  0.112742  0.297600  1
  Co  Co15  1  0.750000  0.387258  0.797600  1
  Co  Co16  1  0.250000  0.465271  0.930736  1
  Co  Co17  1  0.250000  0.034729  0.430736  1
  Co  Co18  1  0.750000  0.534918  0.069204  1
  Co  Co19  1  0.750000  0.965082  0.569204  1
  P  P20  1  0.250000  0.419726  0.111666  1
  P  P21  1  0.250000  0.080274  0.611666  1
  P  P22  1  0.750000  0.580320  0.888141  1
  P  P23  1  0.750000  0.919680  0.388141  1
  P  P24  1  0.250000  0.272295  0.867012  1
  P  P25  1  0.250000  0.227705  0.367012  1
  P  P26  1  0.750000  0.727972  0.133059  1
  P  P27  1  0.750000  0.772028  0.633059  1
  P  P28  1  0.250000  0.596186  0.390382  1
  P  P29  1  0.250000  0.903814  0.890382  1
  P  P30  1  0.750000  0.403980  0.609649  1
  P  P31  1  0.750000  0.096020  0.109649  1
  Ru  Ru32  1  0.250000  0.716564  0.992216  1
  Ru  Ru33  1  0.250000  0.783436  0.492216  1
  Ru  Ru34  1  0.750000  0.283377  0.007951  1
  Ru  Ru35  1  0.750000  0.216623  0.507951  1
