# generated using pymatgen
data_DyHoPa(GaIr)3
_symmetry_space_group_name_H-M   'P 1'
_cell_length_a   7.15086766
_cell_length_b   7.15547968
_cell_length_c   3.86946300
_cell_angle_alpha   90.00000000
_cell_angle_beta   90.00000000
_cell_angle_gamma   118.22387092
_symmetry_Int_Tables_number   1
_chemical_formula_structural   DyHoPa(GaIr)3
_chemical_formula_sum   'Dy1 Ho1 Pa1 Ga3 Ir3'
_cell_volume   174.45225849
_cell_formula_units_Z   1
loop_
 _symmetry_equiv_pos_site_id
 _symmetry_equiv_pos_as_xyz
  1  'x, y, z'
loop_
 _atom_site_type_symbol
 _atom_site_label
 _atom_site_symmetry_multiplicity
 _atom_site_fract_x
 _atom_site_fract_y
 _atom_site_fract_z
 _atom_site_occupancy
  Dy  Dy0  1  0.407854  0.001524  0.000000  1
  Ho  Ho1  1  0.001727  0.407540  0.000000  1
  Pa  Pa2  1  0.583935  0.583709  0.000000  1
  Ga  Ga3  1  0.008568  0.749944  0.500000  1
  Ga  Ga4  1  0.235162  0.235724  0.500000  1
  Ga  Ga5  1  0.749767  0.008407  0.500000  1
  Ir  Ir6  1  0.989008  0.990073  0.000000  1
  Ir  Ir7  1  0.666475  0.358887  0.500000  1
  Ir  Ir8  1  0.357505  0.664193  0.500000  1
