# generated using pymatgen
data_YHo15In4PdRh3
_symmetry_space_group_name_H-M   'P 1'
_cell_length_a   9.63218376
_cell_length_b   9.63517671
_cell_length_c   9.63119200
_cell_angle_alpha   60.01367947
_cell_angle_beta   60.00340594
_cell_angle_gamma   59.99738831
_symmetry_Int_Tables_number   1
_chemical_formula_structural   YHo15In4PdRh3
_chemical_formula_sum   'Y1 Ho15 In4 Pd1 Rh3'
_cell_volume   632.11627154
_cell_formula_units_Z   1
loop_
 _symmetry_equiv_pos_site_id
 _symmetry_equiv_pos_as_xyz
  1  'x, y, z'
loop_
 _atom_site_type_symbol
 _atom_site_label
 _atom_site_symmetry_multiplicity
 _atom_site_fract_x
 _atom_site_fract_y
 _atom_site_fract_z
 _atom_site_occupancy
  Y  Y0  1  0.188165  0.187276  0.812279  1
  Ho  Ho1  1  0.602676  0.596859  0.198756  1
  Ho  Ho2  1  0.439539  0.064577  0.439314  1
  Ho  Ho3  1  0.439090  0.439011  0.060949  1
  Ho  Ho4  1  0.812295  0.187106  0.812207  1
  Ho  Ho5  1  0.187598  0.810702  0.188049  1
  Ho  Ho6  1  0.439539  0.064577  0.056570  1
  Ho  Ho7  1  0.187598  0.810702  0.813651  1
  Ho  Ho8  1  0.060645  0.439165  0.061351  1
  Ho  Ho9  1  0.814080  0.810986  0.187467  1
  Ho  Ho10  1  0.197659  0.597596  0.602373  1
  Ho  Ho11  1  0.060645  0.439165  0.438837  1
  Ho  Ho12  1  0.056153  0.065029  0.439409  1
  Ho  Ho13  1  0.812295  0.187106  0.188392  1
  Ho  Ho14  1  0.600395  0.201407  0.599099  1
  Ho  Ho15  1  0.602676  0.596859  0.601710  1
  In  In16  1  0.833061  0.833386  0.833258  1
  In  In17  1  0.833061  0.833386  0.500295  1
  In  In18  1  0.500991  0.833239  0.832885  1
  In  In19  1  0.832992  0.500771  0.833119  1
  Pd  Pd20  1  0.392659  0.820786  0.393277  1
  Rh  Rh21  1  0.392219  0.393504  0.392327  1
  Rh  Rh22  1  0.821745  0.393304  0.392475  1
  Rh  Rh23  1  0.392219  0.393504  0.821949  1
