# generated using pymatgen
data_CsCoPd7O16
_symmetry_space_group_name_H-M   'P 1'
_cell_length_a   6.22503665
_cell_length_b   7.36877463
_cell_length_c   7.37265500
_cell_angle_alpha   87.52731326
_cell_angle_beta   77.97595613
_cell_angle_gamma   77.84672703
_symmetry_Int_Tables_number   1
_chemical_formula_structural   CsCoPd7O16
_chemical_formula_sum   'Cs1 Co1 Pd7 O16'
_cell_volume   323.35711119
_cell_formula_units_Z   1
loop_
 _symmetry_equiv_pos_site_id
 _symmetry_equiv_pos_as_xyz
  1  'x, y, z'
loop_
 _atom_site_type_symbol
 _atom_site_label
 _atom_site_symmetry_multiplicity
 _atom_site_fract_x
 _atom_site_fract_y
 _atom_site_fract_z
 _atom_site_occupancy
  Cs  Cs0  1  0.239393  0.998775  0.003762  1
  Co  Co1  1  0.079779  0.185063  0.483328  1
  Pd  Pd2  1  0.579998  0.185687  0.483484  1
  Pd  Pd3  1  0.321074  0.511903  0.185581  1
  Pd  Pd4  1  0.822725  0.514932  0.186523  1
  Pd  Pd5  1  0.172232  0.478945  0.813691  1
  Pd  Pd6  1  0.674751  0.477698  0.813789  1
  Pd  Pd7  1  0.410517  0.821261  0.516619  1
  Pd  Pd8  1  0.913677  0.821109  0.518844  1
  O  O9  1  0.382578  0.056373  0.361126  1
  O  O10  1  0.901610  0.055861  0.361701  1
  O  O11  1  0.083404  0.362741  0.288380  1
  O  O12  1  0.586627  0.366877  0.277587  1
  O  O13  1  0.073804  0.640522  0.050398  1
  O  O14  1  0.573601  0.641134  0.049249  1
  O  O15  1  0.260776  0.278738  0.621841  1
  O  O16  1  0.783637  0.280288  0.619934  1
  O  O17  1  0.222800  0.722941  0.368300  1
  O  O18  1  0.724097  0.723861  0.369188  1
  O  O19  1  0.422238  0.349912  0.949094  1
  O  O20  1  0.920663  0.351734  0.950638  1
  O  O21  1  0.410258  0.627179  0.718397  1
  O  O22  1  0.908208  0.630181  0.722166  1
  O  O23  1  0.597366  0.953564  0.647121  1
  O  O24  1  0.096765  0.962722  0.639261  1
