# generated using pymatgen
data_Li4ScP12Ir16Rh3
_symmetry_space_group_name_H-M   'P 1'
_cell_length_a   12.57896406
_cell_length_b   12.57896371
_cell_length_c   3.90515000
_cell_angle_alpha   90.00000000
_cell_angle_beta   90.00000000
_cell_angle_gamma   120.19119627
_symmetry_Int_Tables_number   1
_chemical_formula_structural   Li4ScP12Ir16Rh3
_chemical_formula_sum   'Li4 Sc1 P12 Ir16 Rh3'
_cell_volume   534.09454627
_cell_formula_units_Z   1
loop_
 _symmetry_equiv_pos_site_id
 _symmetry_equiv_pos_as_xyz
  1  'x, y, z'
loop_
 _atom_site_type_symbol
 _atom_site_label
 _atom_site_symmetry_multiplicity
 _atom_site_fract_x
 _atom_site_fract_y
 _atom_site_fract_z
 _atom_site_occupancy
  Li  Li0  1  0.334189  0.666468  0.000000  1
  Li  Li1  1  0.666468  0.334189  0.000000  1
  Li  Li2  1  0.822374  0.998901  0.500000  1
  Li  Li3  1  0.998901  0.822374  0.500000  1
  Sc  Sc4  1  0.174126  0.174126  0.500000  1
  P  P5  1  0.176694  0.994587  0.000000  1
  P  P6  1  0.994587  0.176694  0.000000  1
  P  P7  1  0.821026  0.821026  0.000000  1
  P  P8  1  0.174580  0.488024  0.500000  1
  P  P9  1  0.512912  0.687581  0.500000  1
  P  P10  1  0.314300  0.826080  0.500000  1
  P  P11  1  0.687581  0.512912  0.500000  1
  P  P12  1  0.826080  0.314300  0.500000  1
  P  P13  1  0.488024  0.174580  0.500000  1
  P  P14  1  0.639079  0.000345  0.000000  1
  P  P15  1  0.000345  0.639079  0.000000  1
  P  P16  1  0.360881  0.360881  0.000000  1
  Ir  Ir17  1  0.358241  0.490018  0.500000  1
  Ir  Ir18  1  0.511531  0.870954  0.500000  1
  Ir  Ir19  1  0.132118  0.641366  0.500000  1
  Ir  Ir20  1  0.870954  0.511531  0.500000  1
  Ir  Ir21  1  0.641366  0.132118  0.500000  1
  Ir  Ir22  1  0.490018  0.358241  0.500000  1
  Ir  Ir23  1  0.180363  0.370027  0.000000  1
  Ir  Ir24  1  0.624398  0.806757  0.000000  1
  Ir  Ir25  1  0.195170  0.817485  0.000000  1
  Ir  Ir26  1  0.806757  0.624398  0.000000  1
  Ir  Ir27  1  0.817485  0.195170  0.000000  1
  Ir  Ir28  1  0.370027  0.180363  0.000000  1
  Ir  Ir29  1  0.287261  0.000868  0.500000  1
  Ir  Ir30  1  0.000868  0.287261  0.500000  1
  Ir  Ir31  1  0.712800  0.712800  0.500000  1
  Ir  Ir32  1  0.003295  0.003295  0.000000  1
  Rh  Rh33  1  0.458593  0.003953  0.000000  1
  Rh  Rh34  1  0.003953  0.458593  0.000000  1
  Rh  Rh35  1  0.542657  0.542657  0.000000  1
