# generated using pymatgen
data_Rb4Tb3Sm(SiSe4)4
_symmetry_space_group_name_H-M   'P 1'
_cell_length_a   7.04453201
_cell_length_b   6.73420157
_cell_length_c   18.93861370
_cell_angle_alpha   72.06476804
_cell_angle_beta   90.03903577
_cell_angle_gamma   89.96751187
_symmetry_Int_Tables_number   1
_chemical_formula_structural   Rb4Tb3Sm(SiSe4)4
_chemical_formula_sum   'Rb4 Tb3 Sm1 Si4 Se16'
_cell_volume   854.77484131
_cell_formula_units_Z   1
loop_
 _symmetry_equiv_pos_site_id
 _symmetry_equiv_pos_as_xyz
  1  'x, y, z'
loop_
 _atom_site_type_symbol
 _atom_site_label
 _atom_site_symmetry_multiplicity
 _atom_site_fract_x
 _atom_site_fract_y
 _atom_site_fract_z
 _atom_site_occupancy
  Rb  Rb0  1  0.250593  0.730559  0.032898  1
  Rb  Rb1  1  0.249393  0.730896  0.533438  1
  Rb  Rb2  1  0.750449  0.269594  0.467270  1
  Rb  Rb3  1  0.749589  0.269974  0.966339  1
  Tb  Tb4  1  0.775994  0.228705  0.226562  1
  Tb  Tb5  1  0.223952  0.770912  0.773221  1
  Tb  Tb6  1  0.723874  0.228947  0.726772  1
  Sm  Sm7  1  0.273738  0.771682  0.273359  1
  Si  Si8  1  0.261018  0.217686  0.834262  1
  Si  Si9  1  0.238623  0.216717  0.335404  1
  Si  Si10  1  0.760885  0.782114  0.665762  1
  Si  Si11  1  0.738972  0.783677  0.164488  1
  Se  Se12  1  0.491446  0.984461  0.652517  1
  Se  Se13  1  0.175977  0.419877  0.216542  1
  Se  Se14  1  0.510032  0.017303  0.348507  1
  Se  Se15  1  0.991610  0.015410  0.847490  1
  Se  Se16  1  0.325728  0.425984  0.716511  1
  Se  Se17  1  0.256487  0.418131  0.910968  1
  Se  Se18  1  0.743003  0.580730  0.088693  1
  Se  Se19  1  0.825956  0.573879  0.783527  1
  Se  Se20  1  0.756455  0.581615  0.589063  1
  Se  Se21  1  0.242958  0.414569  0.412898  1
  Se  Se22  1  0.495244  0.968777  0.857111  1
  Se  Se23  1  0.995130  0.030798  0.642995  1
  Se  Se24  1  0.504875  0.032775  0.141908  1
  Se  Se25  1  0.007061  0.987367  0.150258  1
  Se  Se26  1  0.001825  0.970635  0.358392  1
  Se  Se27  1  0.679133  0.576225  0.282844  1
