# generated using pymatgen
data_Ho3Tm4(PaGa4)5
_symmetry_space_group_name_H-M   'P 1'
_cell_length_a   6.05271948
_cell_length_b   9.50572312
_cell_length_c   11.64869090
_cell_angle_alpha   90.01823302
_cell_angle_beta   90.10360462
_cell_angle_gamma   90.00300287
_symmetry_Int_Tables_number   1
_chemical_formula_structural   Ho3Tm4(PaGa4)5
_chemical_formula_sum   'Ho3 Tm4 Pa5 Ga20'
_cell_volume   670.21183960
_cell_formula_units_Z   1
loop_
 _symmetry_equiv_pos_site_id
 _symmetry_equiv_pos_as_xyz
  1  'x, y, z'
loop_
 _atom_site_type_symbol
 _atom_site_label
 _atom_site_symmetry_multiplicity
 _atom_site_fract_x
 _atom_site_fract_y
 _atom_site_fract_z
 _atom_site_occupancy
  Ho  Ho0  1  0.882191  0.502387  0.351272  1
  Ho  Ho1  1  0.618046  0.997648  0.851319  1
  Ho  Ho2  1  0.117565  0.002383  0.648687  1
  Tm  Tm3  1  0.857624  0.750361  0.072702  1
  Tm  Tm4  1  0.643518  0.748870  0.572471  1
  Tm  Tm5  1  0.143307  0.251759  0.928143  1
  Tm  Tm6  1  0.356974  0.249060  0.427604  1
  Pa  Pa7  1  0.381743  0.497925  0.147295  1
  Pa  Pa8  1  0.118911  0.497755  0.648502  1
  Pa  Pa9  1  0.380668  0.002456  0.148461  1
  Pa  Pa10  1  0.880729  0.997295  0.351744  1
  Pa  Pa11  1  0.618920  0.502291  0.851982  1
  Ga  Ga12  1  0.872619  0.052125  0.091293  1
  Ga  Ga13  1  0.626758  0.447230  0.591302  1
  Ga  Ga14  1  0.127438  0.552832  0.909137  1
  Ga  Ga15  1  0.372473  0.947536  0.408756  1
  Ga  Ga16  1  0.129478  0.948441  0.908671  1
  Ga  Ga17  1  0.370603  0.552158  0.409308  1
  Ga  Ga18  1  0.872062  0.447967  0.091006  1
  Ga  Ga19  1  0.629246  0.051966  0.590870  1
  Ga  Ga20  1  0.156104  0.749968  0.263326  1
  Ga  Ga21  1  0.344854  0.750043  0.762558  1
  Ga  Ga22  1  0.845093  0.250474  0.737204  1
  Ga  Ga23  1  0.654254  0.250072  0.236751  1
  Ga  Ga24  1  0.391293  0.750652  0.994467  1
  Ga  Ga25  1  0.107722  0.749433  0.494615  1
  Ga  Ga26  1  0.608529  0.250509  0.006123  1
  Ga  Ga27  1  0.891842  0.249265  0.505417  1
  Ga  Ga28  1  0.595725  0.749774  0.291425  1
  Ga  Ga29  1  0.903201  0.749172  0.792437  1
  Ga  Ga30  1  0.403012  0.250714  0.707685  1
  Ga  Ga31  1  0.097497  0.249481  0.207469  1
