# generated using pymatgen
data_Ca2Al4Pt3
_symmetry_space_group_name_H-M   'P 1'
_cell_length_a   13.69859700
_cell_length_b   13.69859625
_cell_length_c   4.26272700
_cell_angle_alpha   90.00000000
_cell_angle_beta   90.00000000
_cell_angle_gamma   119.99999456
_symmetry_Int_Tables_number   1
_chemical_formula_structural   Ca2Al4Pt3
_chemical_formula_sum   'Ca8 Al16 Pt12'
_cell_volume   692.74010356
_cell_formula_units_Z   4
loop_
 _symmetry_equiv_pos_site_id
 _symmetry_equiv_pos_as_xyz
  1  'x, y, z'
loop_
 _atom_site_type_symbol
 _atom_site_label
 _atom_site_symmetry_multiplicity
 _atom_site_fract_x
 _atom_site_fract_y
 _atom_site_fract_z
 _atom_site_occupancy
  Ca  Ca0  1  0.183001  0.000000  0.500000  1
  Ca  Ca1  1  0.816999  0.816999  0.500000  1
  Ca  Ca2  1  0.000000  0.183001  0.500000  1
  Ca  Ca3  1  0.666667  0.333333  0.000000  1
  Ca  Ca4  1  0.333333  0.666667  0.000000  1
  Ca  Ca5  1  0.552144  0.000000  0.000000  1
  Ca  Ca6  1  0.447856  0.447856  0.000000  1
  Ca  Ca7  1  0.000000  0.552144  0.000000  1
  Al  Al8  1  0.472436  0.123181  0.500000  1
  Al  Al9  1  0.876819  0.349255  0.500000  1
  Al  Al10  1  0.650745  0.527564  0.500000  1
  Al  Al11  1  0.527564  0.650745  0.500000  1
  Al  Al12  1  0.349255  0.876819  0.500000  1
  Al  Al13  1  0.123181  0.472436  0.500000  1
  Al  Al14  1  0.378137  0.195849  0.000000  1
  Al  Al15  1  0.804151  0.182290  0.000000  1
  Al  Al16  1  0.817710  0.621863  0.000000  1
  Al  Al17  1  0.621863  0.817710  0.000000  1
  Al  Al18  1  0.000000  0.000000  0.000000  1
  Al  Al19  1  0.182290  0.804151  0.000000  1
  Al  Al20  1  0.722193  0.000000  0.500000  1
  Al  Al21  1  0.277807  0.277807  0.500000  1
  Al  Al22  1  0.000000  0.722193  0.500000  1
  Al  Al23  1  0.195849  0.378137  0.000000  1
  Pt  Pt24  1  0.000000  0.350700  0.000000  1
  Pt  Pt25  1  0.350700  0.000000  0.000000  1
  Pt  Pt26  1  0.481300  0.313498  0.500000  1
  Pt  Pt27  1  0.686502  0.167801  0.500000  1
  Pt  Pt28  1  0.832199  0.518700  0.500000  1
  Pt  Pt29  1  0.518700  0.832199  0.500000  1
  Pt  Pt30  1  0.167801  0.686502  0.500000  1
  Pt  Pt31  1  0.313498  0.481300  0.500000  1
  Pt  Pt32  1  0.000000  0.817897  0.000000  1
  Pt  Pt33  1  0.182103  0.182103  0.000000  1
  Pt  Pt34  1  0.817897  0.000000  0.000000  1
  Pt  Pt35  1  0.649300  0.649300  0.000000  1
