# generated using pymatgen
data_Dy4Er8OsRu3
_symmetry_space_group_name_H-M   'P 1'
_cell_length_a   6.27957301
_cell_length_b   7.31935105
_cell_length_c   9.05755400
_cell_angle_alpha   90.00000000
_cell_angle_beta   90.00000000
_cell_angle_gamma   90.08187585
_symmetry_Int_Tables_number   1
_chemical_formula_structural   Dy4Er8OsRu3
_chemical_formula_sum   'Dy4 Er8 Os1 Ru3'
_cell_volume   416.30648878
_cell_formula_units_Z   1
loop_
 _symmetry_equiv_pos_site_id
 _symmetry_equiv_pos_as_xyz
  1  'x, y, z'
loop_
 _atom_site_type_symbol
 _atom_site_label
 _atom_site_symmetry_multiplicity
 _atom_site_fract_x
 _atom_site_fract_y
 _atom_site_fract_z
 _atom_site_occupancy
  Dy  Dy0  1  0.868366  0.540111  0.250000  1
  Dy  Dy1  1  0.631997  0.039889  0.250000  1
  Dy  Dy2  1  0.130262  0.460449  0.750000  1
  Dy  Dy3  1  0.367873  0.961605  0.750000  1
  Er  Er4  1  0.333670  0.675578  0.062444  1
  Er  Er5  1  0.167359  0.175997  0.436094  1
  Er  Er6  1  0.667975  0.324300  0.563644  1
  Er  Er7  1  0.831499  0.823529  0.935751  1
  Er  Er8  1  0.667975  0.324300  0.936356  1
  Er  Er9  1  0.831499  0.823529  0.564249  1
  Er  Er10  1  0.333670  0.675578  0.437556  1
  Er  Er11  1  0.167359  0.175997  0.063906  1
  Os  Os12  1  0.540222  0.616429  0.750000  1
  Ru  Ru13  1  0.039157  0.883459  0.250000  1
  Ru  Ru14  1  0.460646  0.383027  0.250000  1
  Ru  Ru15  1  0.960469  0.116221  0.750000  1
