# generated using pymatgen
data_Ho(ZnAu)6
_symmetry_space_group_name_H-M   'P 1'
_cell_length_a   7.05406071
_cell_length_b   7.05406115
_cell_length_c   7.05406037
_cell_angle_alpha   96.20982872
_cell_angle_beta   99.87914172
_cell_angle_gamma   136.07591712
_symmetry_Int_Tables_number   1
_chemical_formula_structural   Ho(ZnAu)6
_chemical_formula_sum   'Ho1 Zn6 Au6'
_cell_volume   225.67270552
_cell_formula_units_Z   1
loop_
 _symmetry_equiv_pos_site_id
 _symmetry_equiv_pos_as_xyz
  1  'x, y, z'
loop_
 _atom_site_type_symbol
 _atom_site_label
 _atom_site_symmetry_multiplicity
 _atom_site_fract_x
 _atom_site_fract_y
 _atom_site_fract_z
 _atom_site_occupancy
  Ho  Ho0  1  0.000000  0.000000  0.000000  1
  Zn  Zn1  1  0.000000  0.000000  0.500000  1
  Zn  Zn2  1  0.500000  0.500000  0.500000  1
  Zn  Zn3  1  0.500000  0.000000  0.000000  1
  Zn  Zn4  1  0.000000  0.500000  0.000000  1
  Zn  Zn5  1  0.739673  0.500000  0.239673  1
  Zn  Zn6  1  0.260327  0.500000  0.760327  1
  Au  Au7  1  0.000000  0.338521  0.338521  1
  Au  Au8  1  0.000000  0.661479  0.661479  1
  Au  Au9  1  0.668333  0.000000  0.668333  1
  Au  Au10  1  0.331667  0.000000  0.331667  1
  Au  Au11  1  0.500000  0.323931  0.823931  1
  Au  Au12  1  0.500000  0.676069  0.176069  1
