# generated using pymatgen
data_TbSm5Cd23Te
_symmetry_space_group_name_H-M   'P 1'
_cell_length_a   10.03071952
_cell_length_b   10.03071783
_cell_length_c   10.03464900
_cell_angle_alpha   59.98703148
_cell_angle_beta   59.98703707
_cell_angle_gamma   60.02592407
_symmetry_Int_Tables_number   1
_chemical_formula_structural   TbSm5Cd23Te
_chemical_formula_sum   'Tb1 Sm5 Cd23 Te1'
_cell_volume   713.92260165
_cell_formula_units_Z   1
loop_
 _symmetry_equiv_pos_site_id
 _symmetry_equiv_pos_as_xyz
  1  'x, y, z'
loop_
 _atom_site_type_symbol
 _atom_site_label
 _atom_site_symmetry_multiplicity
 _atom_site_fract_x
 _atom_site_fract_y
 _atom_site_fract_z
 _atom_site_occupancy
  Tb  Tb0  1  0.783041  0.783041  0.216959  1
  Sm  Sm1  1  0.217475  0.782803  0.217197  1
  Sm  Sm2  1  0.782803  0.217475  0.217197  1
  Sm  Sm3  1  0.217133  0.217133  0.782867  1
  Sm  Sm4  1  0.782803  0.217475  0.782525  1
  Sm  Sm5  1  0.217475  0.782803  0.782525  1
  Cd  Cd6  1  0.836528  0.836528  0.489238  1
  Cd  Cd7  1  0.835786  0.491650  0.836281  1
  Cd  Cd8  1  0.491650  0.835786  0.836281  1
  Cd  Cd9  1  0.836528  0.836528  0.837703  1
  Cd  Cd10  1  0.163719  0.163719  0.508350  1
  Cd  Cd11  1  0.162297  0.510762  0.163472  1
  Cd  Cd12  1  0.510762  0.162297  0.163472  1
  Cd  Cd13  1  0.163719  0.163719  0.164214  1
  Cd  Cd14  1  0.623711  0.623711  0.131426  1
  Cd  Cd15  1  0.623726  0.129658  0.623309  1
  Cd  Cd16  1  0.129658  0.623726  0.623309  1
  Cd  Cd17  1  0.623711  0.623711  0.621156  1
  Cd  Cd18  1  0.376691  0.376691  0.870342  1
  Cd  Cd19  1  0.378844  0.868574  0.376289  1
  Cd  Cd20  1  0.868574  0.378844  0.376289  1
  Cd  Cd21  1  0.376691  0.376691  0.376274  1
  Cd  Cd22  1  0.999720  0.999720  0.500280  1
  Cd  Cd23  1  0.500033  0.999907  0.499967  1
  Cd  Cd24  1  0.999907  0.500033  0.499967  1
  Cd  Cd25  1  0.499720  0.499720  0.000280  1
  Cd  Cd26  1  0.999907  0.500033  0.000093  1
  Cd  Cd27  1  0.500033  0.999907  0.000093  1
  Cd  Cd28  1  0.499018  0.499018  0.500982  1
  Te  Te29  1  0.998334  0.998334  0.001666  1
