# generated using pymatgen
data_Ho8Ga(Pd7Pt5)2
_symmetry_space_group_name_H-M   'P 1'
_cell_length_a   8.32899415
_cell_length_b   8.33307424
_cell_length_c   8.33268212
_cell_angle_alpha   90.01856538
_cell_angle_beta   90.00597139
_cell_angle_gamma   89.97936046
_symmetry_Int_Tables_number   1
_chemical_formula_structural   Ho8Ga(Pd7Pt5)2
_chemical_formula_sum   'Ho8 Ga1 Pd14 Pt10'
_cell_volume   578.33911920
_cell_formula_units_Z   1
loop_
 _symmetry_equiv_pos_site_id
 _symmetry_equiv_pos_as_xyz
  1  'x, y, z'
loop_
 _atom_site_type_symbol
 _atom_site_label
 _atom_site_symmetry_multiplicity
 _atom_site_fract_x
 _atom_site_fract_y
 _atom_site_fract_z
 _atom_site_occupancy
  Ho  Ho0  1  0.251750  0.251913  0.747894  1
  Ho  Ho1  1  0.252129  0.748236  0.252428  1
  Ho  Ho2  1  0.748017  0.252071  0.252053  1
  Ho  Ho3  1  0.748236  0.747728  0.747776  1
  Ho  Ho4  1  0.747860  0.747907  0.252238  1
  Ho  Ho5  1  0.748272  0.252223  0.747999  1
  Ho  Ho6  1  0.251754  0.748059  0.747585  1
  Ho  Ho7  1  0.251999  0.251753  0.252137  1
  Ga  Ga8  1  0.000137  0.000283  0.999857  1
  Pd  Pd9  1  0.999790  0.999755  0.708377  1
  Pd  Pd10  1  0.999950  0.291860  0.000166  1
  Pd  Pd11  1  0.291948  0.999806  0.000050  1
  Pd  Pd12  1  0.999791  0.999818  0.291650  1
  Pd  Pd13  1  0.999954  0.708193  0.000116  1
  Pd  Pd14  1  0.708079  0.999797  0.000037  1
  Pd  Pd15  1  0.500112  0.000088  0.739900  1
  Pd  Pd16  1  0.260159  0.500178  0.999871  1
  Pd  Pd17  1  0.999942  0.500194  0.260001  1
  Pd  Pd18  1  0.500058  0.739734  0.000060  1
  Pd  Pd19  1  0.000106  0.740042  0.499836  1
  Pd  Pd20  1  0.500134  0.000047  0.260005  1
  Pd  Pd21  1  0.739729  0.000067  0.499943  1
  Pd  Pd22  1  0.739930  0.500211  0.999892  1
  Pt  Pt23  1  0.500095  0.499998  0.747505  1
  Pt  Pt24  1  0.499895  0.252522  0.499906  1
  Pt  Pt25  1  0.252678  0.500030  0.500030  1
  Pt  Pt26  1  0.500097  0.499982  0.252625  1
  Pt  Pt27  1  0.499878  0.747229  0.499918  1
  Pt  Pt28  1  0.747202  0.500023  0.500039  1
  Pt  Pt29  1  0.999936  0.500117  0.740211  1
  Pt  Pt30  1  0.500060  0.260179  0.000034  1
  Pt  Pt31  1  0.260218  0.000017  0.499928  1
  Pt  Pt32  1  0.000106  0.259942  0.499934  1
