# generated using pymatgen
data_CeAlGa2Ag
_symmetry_space_group_name_H-M   'P 1'
_cell_length_a   4.26437275
_cell_length_b   4.26437296
_cell_length_c   6.35307126
_cell_angle_alpha   70.39005350
_cell_angle_beta   70.39005788
_cell_angle_gamma   89.99999720
_symmetry_Int_Tables_number   1
_chemical_formula_structural   CeAlGa2Ag
_chemical_formula_sum   'Ce1 Al1 Ga2 Ag1'
_cell_volume   101.68757008
_cell_formula_units_Z   1
loop_
 _symmetry_equiv_pos_site_id
 _symmetry_equiv_pos_as_xyz
  1  'x, y, z'
loop_
 _atom_site_type_symbol
 _atom_site_label
 _atom_site_symmetry_multiplicity
 _atom_site_fract_x
 _atom_site_fract_y
 _atom_site_fract_z
 _atom_site_occupancy
  Ce  Ce0  1  0.000000  0.000000  0.000000  1
  Al  Al1  1  0.250000  0.750000  0.500000  1
  Ga  Ga2  1  0.388941  0.388941  0.222118  1
  Ga  Ga3  1  0.611059  0.611059  0.777882  1
  Ag  Ag4  1  0.750000  0.250000  0.500000  1
