# generated using pymatgen
data_Ho5In5Ir
_symmetry_space_group_name_H-M   'P 1'
_cell_length_a   3.61913700
_cell_length_b   8.33474422
_cell_length_c   18.47643545
_cell_angle_alpha   88.93250636
_cell_angle_beta   90.00000000
_cell_angle_gamma   90.00000000
_symmetry_Int_Tables_number   1
_chemical_formula_structural   Ho5In5Ir
_chemical_formula_sum   'Ho10 In10 Ir2'
_cell_volume   557.23720809
_cell_formula_units_Z   2
loop_
 _symmetry_equiv_pos_site_id
 _symmetry_equiv_pos_as_xyz
  1  'x, y, z'
loop_
 _atom_site_type_symbol
 _atom_site_label
 _atom_site_symmetry_multiplicity
 _atom_site_fract_x
 _atom_site_fract_y
 _atom_site_fract_z
 _atom_site_occupancy
  Ho  Ho0  1  0.000000  0.500000  0.500000  1
  Ho  Ho1  1  0.000000  0.000000  0.000000  1
  Ho  Ho2  1  0.000000  0.701979  0.276318  1
  Ho  Ho3  1  0.000000  0.298021  0.723682  1
  Ho  Ho4  1  0.000000  0.733098  0.786864  1
  Ho  Ho5  1  0.000000  0.266902  0.213136  1
  Ho  Ho6  1  0.000000  0.614323  0.083426  1
  Ho  Ho7  1  0.000000  0.385677  0.916574  1
  Ho  Ho8  1  0.000000  0.874310  0.574105  1
  Ho  Ho9  1  0.000000  0.125690  0.425895  1
  In  In10  1  0.500000  0.708205  0.934475  1
  In  In11  1  0.500000  0.291795  0.065525  1
  In  In12  1  0.500000  0.789071  0.430405  1
  In  In13  1  0.500000  0.210929  0.569595  1
  In  In14  1  0.500000  0.581700  0.647246  1
  In  In15  1  0.500000  0.418300  0.352754  1
  In  In16  1  0.500000  0.913578  0.145409  1
  In  In17  1  0.500000  0.086422  0.854591  1
  In  In18  1  0.500000  0.981935  0.699407  1
  In  In19  1  0.500000  0.018065  0.300593  1
  Ir  Ir20  1  0.500000  0.521188  0.193625  1
  Ir  Ir21  1  0.500000  0.478812  0.806375  1
