# generated using pymatgen
data_K4Rb2Be2O5
_symmetry_space_group_name_H-M   'P 1'
_cell_length_a   6.45921300
_cell_length_b   6.45921300
_cell_length_c   11.42938500
_cell_angle_alpha   90.00000000
_cell_angle_beta   90.00000000
_cell_angle_gamma   90.00000000
_symmetry_Int_Tables_number   1
_chemical_formula_structural   K4Rb2Be2O5
_chemical_formula_sum   'K8 Rb4 Be4 O10'
_cell_volume   476.85031570
_cell_formula_units_Z   2
loop_
 _symmetry_equiv_pos_site_id
 _symmetry_equiv_pos_as_xyz
  1  'x, y, z'
loop_
 _atom_site_type_symbol
 _atom_site_label
 _atom_site_symmetry_multiplicity
 _atom_site_fract_x
 _atom_site_fract_y
 _atom_site_fract_z
 _atom_site_occupancy
  K  K0  1  0.000000  0.000000  0.227407  1
  K  K1  1  0.500000  0.000000  0.250000  1
  K  K2  1  0.000000  0.500000  0.250000  1
  K  K3  1  0.500000  0.500000  0.272593  1
  K  K4  1  0.500000  0.500000  0.727406  1
  K  K5  1  0.500000  0.000000  0.750000  1
  K  K6  1  0.000000  0.500000  0.750000  1
  K  K7  1  0.000000  0.000000  0.772593  1
  Rb  Rb8  1  0.320579  0.320579  0.000000  1
  Rb  Rb9  1  0.679422  0.679422  0.000000  1
  Rb  Rb10  1  0.820579  0.179420  0.500000  1
  Rb  Rb11  1  0.179420  0.820579  0.500000  1
  Be  Be12  1  0.820694  0.179307  0.000000  1
  Be  Be13  1  0.179307  0.820694  0.000000  1
  Be  Be14  1  0.320694  0.320694  0.500000  1
  Be  Be15  1  0.679307  0.679307  0.500000  1
  O  O16  1  0.000000  0.000000  0.000000  1
  O  O17  1  0.735700  0.264300  0.120388  1
  O  O18  1  0.264300  0.735700  0.120388  1
  O  O19  1  0.235700  0.235700  0.379612  1
  O  O20  1  0.764301  0.764301  0.379612  1
  O  O21  1  0.500000  0.500000  0.500000  1
  O  O22  1  0.235700  0.235700  0.620389  1
  O  O23  1  0.764301  0.764301  0.620389  1
  O  O24  1  0.735700  0.264300  0.879611  1
  O  O25  1  0.264300  0.735700  0.879611  1
