# generated using pymatgen
data_TmLu3Tc3B8Os
_symmetry_space_group_name_H-M   'P 1'
_cell_length_a   5.87514716
_cell_length_b   5.23789300
_cell_length_c   6.37189032
_cell_angle_alpha   90.00000000
_cell_angle_beta   90.34241824
_cell_angle_gamma   90.00000000
_symmetry_Int_Tables_number   1
_chemical_formula_structural   TmLu3Tc3B8Os
_chemical_formula_sum   'Tm1 Lu3 Tc3 B8 Os1'
_cell_volume   196.08117781
_cell_formula_units_Z   1
loop_
 _symmetry_equiv_pos_site_id
 _symmetry_equiv_pos_as_xyz
  1  'x, y, z'
loop_
 _atom_site_type_symbol
 _atom_site_label
 _atom_site_symmetry_multiplicity
 _atom_site_fract_x
 _atom_site_fract_y
 _atom_site_fract_z
 _atom_site_occupancy
  Tm  Tm0  1  0.514243  0.250000  0.161820  1
  Lu  Lu1  1  0.014841  0.250000  0.337122  1
  Lu  Lu2  1  0.984716  0.750000  0.664355  1
  Lu  Lu3  1  0.484507  0.750000  0.835544  1
  Tc  Tc4  1  0.181559  0.250000  0.813505  1
  Tc  Tc5  1  0.680178  0.250000  0.684078  1
  Tc  Tc6  1  0.819533  0.750000  0.186338  1
  B  B7  1  0.366210  0.077470  0.535161  1
  B  B8  1  0.868352  0.422097  0.965303  1
  B  B9  1  0.633596  0.579471  0.465816  1
  B  B10  1  0.134027  0.921638  0.035094  1
  B  B11  1  0.633596  0.920529  0.465816  1
  B  B12  1  0.134027  0.578362  0.035094  1
  B  B13  1  0.366210  0.422530  0.535161  1
  B  B14  1  0.868352  0.077903  0.965303  1
  Os  Os15  1  0.316049  0.750000  0.314493  1
