# generated using pymatgen
data_Mn3Cr(NiS4)2
_symmetry_space_group_name_H-M   'P 1'
_cell_length_a   6.83788263
_cell_length_b   6.84282098
_cell_length_c   6.84028800
_cell_angle_alpha   59.89729428
_cell_angle_beta   59.86107482
_cell_angle_gamma   59.87338026
_symmetry_Int_Tables_number   1
_chemical_formula_structural   Mn3Cr(NiS4)2
_chemical_formula_sum   'Mn3 Cr1 Ni2 S8'
_cell_volume   225.68611311
_cell_formula_units_Z   1
loop_
 _symmetry_equiv_pos_site_id
 _symmetry_equiv_pos_as_xyz
  1  'x, y, z'
loop_
 _atom_site_type_symbol
 _atom_site_label
 _atom_site_symmetry_multiplicity
 _atom_site_fract_x
 _atom_site_fract_y
 _atom_site_fract_z
 _atom_site_occupancy
  Mn  Mn0  1  0.499971  0.499993  0.000012  1
  Mn  Mn1  1  0.000018  0.500017  0.499971  1
  Mn  Mn2  1  0.500010  0.000020  0.499998  1
  Cr  Cr3  1  0.499985  0.500047  0.500036  1
  Ni  Ni4  1  0.874929  0.875004  0.875180  1
  Ni  Ni5  1  0.125043  0.124951  0.124788  1
  S  S6  1  0.744947  0.744824  0.744947  1
  S  S7  1  0.254765  0.254754  0.733342  1
  S  S8  1  0.254781  0.733233  0.254774  1
  S  S9  1  0.733303  0.254759  0.254773  1
  S  S10  1  0.745296  0.266714  0.745258  1
  S  S11  1  0.266681  0.745279  0.745224  1
  S  S12  1  0.255026  0.255123  0.255051  1
  S  S13  1  0.745249  0.745277  0.266646  1
