# generated using pymatgen
data_Sc6Al16CuOs6
_symmetry_space_group_name_H-M   'P 1'
_cell_length_a   8.76592634
_cell_length_b   8.76592636
_cell_length_c   8.76592700
_cell_angle_alpha   60.00000135
_cell_angle_beta   60.00000130
_cell_angle_gamma   60.00000092
_symmetry_Int_Tables_number   1
_chemical_formula_structural   Sc6Al16CuOs6
_chemical_formula_sum   'Sc6 Al16 Cu1 Os6'
_cell_volume   476.29771556
_cell_formula_units_Z   1
loop_
 _symmetry_equiv_pos_site_id
 _symmetry_equiv_pos_as_xyz
  1  'x, y, z'
loop_
 _atom_site_type_symbol
 _atom_site_label
 _atom_site_symmetry_multiplicity
 _atom_site_fract_x
 _atom_site_fract_y
 _atom_site_fract_z
 _atom_site_occupancy
  Sc  Sc0  1  0.710720  0.710720  0.289280  1
  Sc  Sc1  1  0.289280  0.710720  0.289280  1
  Sc  Sc2  1  0.710720  0.289280  0.289280  1
  Sc  Sc3  1  0.289280  0.289280  0.710720  1
  Sc  Sc4  1  0.710720  0.289280  0.710720  1
  Sc  Sc5  1  0.289280  0.710720  0.710720  1
  Al  Al6  1  0.878234  0.878234  0.365296  1
  Al  Al7  1  0.878234  0.365296  0.878234  1
  Al  Al8  1  0.365296  0.878234  0.878234  1
  Al  Al9  1  0.878234  0.878234  0.878234  1
  Al  Al10  1  0.121766  0.121766  0.634704  1
  Al  Al11  1  0.121766  0.634704  0.121766  1
  Al  Al12  1  0.634704  0.121766  0.121766  1
  Al  Al13  1  0.121766  0.121766  0.121766  1
  Al  Al14  1  0.663017  0.663017  0.010950  1
  Al  Al15  1  0.663017  0.010950  0.663017  1
  Al  Al16  1  0.010950  0.663017  0.663017  1
  Al  Al17  1  0.663017  0.663017  0.663017  1
  Al  Al18  1  0.336983  0.336983  0.989050  1
  Al  Al19  1  0.336983  0.989050  0.336983  1
  Al  Al20  1  0.989050  0.336983  0.336983  1
  Al  Al21  1  0.336983  0.336983  0.336983  1
  Cu  Cu22  1  0.000000  0.000000  0.000000  1
  Os  Os23  1  0.000000  0.000000  0.500000  1
  Os  Os24  1  0.500000  0.000000  0.500000  1
  Os  Os25  1  0.000000  0.500000  0.500000  1
  Os  Os26  1  0.500000  0.500000  0.000000  1
  Os  Os27  1  0.000000  0.500000  0.000000  1
  Os  Os28  1  0.500000  0.000000  0.000000  1
