# generated using pymatgen
data_YbTmB4Ru5
_symmetry_space_group_name_H-M   'P 1'
_cell_length_a   3.02733700
_cell_length_b   8.68471752
_cell_length_c   10.20768648
_cell_angle_alpha   89.76820030
_cell_angle_beta   90.00000000
_cell_angle_gamma   90.00000000
_symmetry_Int_Tables_number   1
_chemical_formula_structural   YbTmB4Ru5
_chemical_formula_sum   'Yb2 Tm2 B8 Ru10'
_cell_volume   268.37387353
_cell_formula_units_Z   2
loop_
 _symmetry_equiv_pos_site_id
 _symmetry_equiv_pos_as_xyz
  1  'x, y, z'
loop_
 _atom_site_type_symbol
 _atom_site_label
 _atom_site_symmetry_multiplicity
 _atom_site_fract_x
 _atom_site_fract_y
 _atom_site_fract_z
 _atom_site_occupancy
  Yb  Yb0  1  0.500000  0.842373  0.181207  1
  Yb  Yb1  1  0.500000  0.157627  0.818793  1
  Tm  Tm2  1  0.500000  0.658373  0.683124  1
  Tm  Tm3  1  0.500000  0.341627  0.316876  1
  B  B4  1  0.500000  0.965348  0.589323  1
  B  B5  1  0.500000  0.034652  0.410677  1
  B  B6  1  0.500000  0.854027  0.900947  1
  B  B7  1  0.500000  0.145973  0.099053  1
  B  B8  1  0.500000  0.648019  0.398379  1
  B  B9  1  0.500000  0.351981  0.601621  1
  B  B10  1  0.500000  0.465277  0.911084  1
  B  B11  1  0.500000  0.534723  0.088916  1
  Ru  Ru12  1  0.000000  0.656404  0.953549  1
  Ru  Ru13  1  0.000000  0.343596  0.046451  1
  Ru  Ru14  1  0.000000  0.842586  0.454562  1
  Ru  Ru15  1  0.000000  0.157414  0.545438  1
  Ru  Ru16  1  0.000000  0.000000  0.000000  1
  Ru  Ru17  1  0.000000  0.404925  0.760601  1
  Ru  Ru18  1  0.000000  0.595075  0.239399  1
  Ru  Ru19  1  0.000000  0.500000  0.500000  1
  Ru  Ru20  1  0.000000  0.905326  0.739719  1
  Ru  Ru21  1  0.000000  0.094674  0.260281  1
