# generated using pymatgen
data_NdNpCdO6
_symmetry_space_group_name_H-M   'P 1'
_cell_length_a   5.44920800
_cell_length_b   9.36719000
_cell_length_c   10.81511100
_cell_angle_alpha   90.00000000
_cell_angle_beta   90.00000000
_cell_angle_gamma   90.00000000
_symmetry_Int_Tables_number   1
_chemical_formula_structural   NdNpCdO6
_chemical_formula_sum   'Nd4 Np4 Cd4 O24'
_cell_volume   552.04400256
_cell_formula_units_Z   4
loop_
 _symmetry_equiv_pos_site_id
 _symmetry_equiv_pos_as_xyz
  1  'x, y, z'
loop_
 _atom_site_type_symbol
 _atom_site_label
 _atom_site_symmetry_multiplicity
 _atom_site_fract_x
 _atom_site_fract_y
 _atom_site_fract_z
 _atom_site_occupancy
  Nd  Nd0  1  0.974181  0.784520  0.869120  1
  Nd  Nd1  1  0.474181  0.715480  0.130880  1
  Nd  Nd2  1  0.025819  0.284520  0.630880  1
  Nd  Nd3  1  0.525819  0.215480  0.369120  1
  Np  Np4  1  0.468489  0.990573  0.646231  1
  Np  Np5  1  0.968489  0.509427  0.353769  1
  Np  Np6  1  0.531511  0.490573  0.853769  1
  Np  Np7  1  0.031511  0.009427  0.146231  1
  Cd  Cd8  1  0.487328  0.617688  0.563415  1
  Cd  Cd9  1  0.987328  0.882312  0.436585  1
  Cd  Cd10  1  0.512672  0.117688  0.936585  1
  Cd  Cd11  1  0.012672  0.382312  0.063415  1
  O  O12  1  0.235883  0.062284  0.506505  1
  O  O13  1  0.735883  0.437716  0.493495  1
  O  O14  1  0.764117  0.562284  0.993495  1
  O  O15  1  0.264117  0.937716  0.006505  1
  O  O16  1  0.692434  0.138591  0.565710  1
  O  O17  1  0.192434  0.361409  0.434290  1
  O  O18  1  0.307566  0.638591  0.934290  1
  O  O19  1  0.807566  0.861409  0.065710  1
  O  O20  1  0.637382  0.842404  0.540421  1
  O  O21  1  0.137382  0.657596  0.459579  1
  O  O22  1  0.362618  0.342404  0.959579  1
  O  O23  1  0.862618  0.157596  0.040421  1
  O  O24  1  0.211883  0.864343  0.248119  1
  O  O25  1  0.711883  0.635657  0.751881  1
  O  O26  1  0.788117  0.364343  0.251881  1
  O  O27  1  0.288117  0.135657  0.748119  1
  O  O28  1  0.798587  0.035346  0.293443  1
  O  O29  1  0.298587  0.464654  0.706557  1
  O  O30  1  0.201413  0.535346  0.206557  1
  O  O31  1  0.701413  0.964654  0.793443  1
  O  O32  1  0.265878  0.158356  0.200682  1
  O  O33  1  0.765878  0.341644  0.799318  1
  O  O34  1  0.734122  0.658356  0.299318  1
  O  O35  1  0.234122  0.841644  0.700682  1
