# generated using pymatgen
data_Er3Lu17(Ir3Os)3
_symmetry_space_group_name_H-M   'P 1'
_cell_length_a   10.64159911
_cell_length_b   10.64465827
_cell_length_c   6.30404616
_cell_angle_alpha   89.97739450
_cell_angle_beta   90.01168096
_cell_angle_gamma   89.98807163
_symmetry_Int_Tables_number   1
_chemical_formula_structural   Er3Lu17(Ir3Os)3
_chemical_formula_sum   'Er3 Lu17 Ir9 Os3'
_cell_volume   714.09821862
_cell_formula_units_Z   1
loop_
 _symmetry_equiv_pos_site_id
 _symmetry_equiv_pos_as_xyz
  1  'x, y, z'
loop_
 _atom_site_type_symbol
 _atom_site_label
 _atom_site_symmetry_multiplicity
 _atom_site_fract_x
 _atom_site_fract_y
 _atom_site_fract_z
 _atom_site_occupancy
  Er  Er0  1  0.912921  0.291042  0.626697  1
  Er  Er1  1  0.086792  0.709253  0.626499  1
  Er  Er2  1  0.087394  0.291479  0.122208  1
  Lu  Lu3  1  0.294198  0.085354  0.376619  1
  Lu  Lu4  1  0.294231  0.914847  0.876899  1
  Lu  Lu5  1  0.705629  0.085111  0.876655  1
  Lu  Lu6  1  0.706022  0.914244  0.376326  1
  Lu  Lu7  1  0.585459  0.793946  0.876378  1
  Lu  Lu8  1  0.585661  0.206029  0.375994  1
  Lu  Lu9  1  0.414367  0.793911  0.376154  1
  Lu  Lu10  1  0.414663  0.206111  0.876341  1
  Lu  Lu11  1  0.208868  0.413688  0.625688  1
  Lu  Lu12  1  0.207958  0.586896  0.121371  1
  Lu  Lu13  1  0.791844  0.413828  0.121349  1
  Lu  Lu14  1  0.791271  0.586791  0.625629  1
  Lu  Lu15  1  0.912884  0.707614  0.121322  1
  Lu  Lu16  1  0.999879  0.999946  0.498662  1
  Lu  Lu17  1  0.999697  0.999473  0.999174  1
  Lu  Lu18  1  0.500009  0.500112  0.999411  1
  Lu  Lu19  1  0.500154  0.500088  0.499212  1
  Ir  Ir20  1  0.847511  0.152812  0.249407  1
  Ir  Ir21  1  0.847431  0.847183  0.749856  1
  Ir  Ir22  1  0.152712  0.152492  0.748738  1
  Ir  Ir23  1  0.152137  0.846967  0.249115  1
  Ir  Ir24  1  0.652516  0.347908  0.749892  1
  Ir  Ir25  1  0.653293  0.651913  0.250119  1
  Ir  Ir26  1  0.347253  0.348159  0.250563  1
  Ir  Ir27  1  0.347510  0.652125  0.749953  1
  Ir  Ir28  1  0.999856  0.500343  0.378483  1
  Os  Os29  1  0.499984  0.000023  0.123812  1
  Os  Os30  1  0.499989  0.000002  0.623584  1
  Os  Os31  1  0.999907  0.500308  0.877890  1
