# generated using pymatgen
data_Hf2Zr2Cu3Si4Ir
_symmetry_space_group_name_H-M   'P 1'
_cell_length_a   3.87886100
_cell_length_b   6.54612445
_cell_length_c   7.40329821
_cell_angle_alpha   88.80314494
_cell_angle_beta   90.00000000
_cell_angle_gamma   90.00000000
_symmetry_Int_Tables_number   1
_chemical_formula_structural   Hf2Zr2Cu3Si4Ir
_chemical_formula_sum   'Hf2 Zr2 Cu3 Si4 Ir1'
_cell_volume   187.93988578
_cell_formula_units_Z   1
loop_
 _symmetry_equiv_pos_site_id
 _symmetry_equiv_pos_as_xyz
  1  'x, y, z'
loop_
 _atom_site_type_symbol
 _atom_site_label
 _atom_site_symmetry_multiplicity
 _atom_site_fract_x
 _atom_site_fract_y
 _atom_site_fract_z
 _atom_site_occupancy
  Hf  Hf0  1  0.250000  0.012897  0.818363  1
  Hf  Hf1  1  0.750000  0.982951  0.185595  1
  Zr  Zr2  1  0.250000  0.521351  0.684871  1
  Zr  Zr3  1  0.750000  0.476797  0.313542  1
  Cu  Cu4  1  0.250000  0.150567  0.436806  1
  Cu  Cu5  1  0.750000  0.337090  0.928765  1
  Cu  Cu6  1  0.250000  0.664764  0.070410  1
  Si  Si7  1  0.250000  0.274468  0.110933  1
  Si  Si8  1  0.750000  0.724961  0.888710  1
  Si  Si9  1  0.250000  0.765282  0.382531  1
  Si  Si10  1  0.750000  0.228983  0.618778  1
  Ir  Ir11  1  0.750000  0.859887  0.560695  1
