# generated using pymatgen
data_Rb4Hf3Zr3BBr18
_symmetry_space_group_name_H-M   'P 1'
_cell_length_a   10.60933656
_cell_length_b   10.86231905
_cell_length_c   10.96585310
_cell_angle_alpha   118.53889011
_cell_angle_beta   100.35012657
_cell_angle_gamma   104.08638060
_symmetry_Int_Tables_number   1
_chemical_formula_structural   Rb4Hf3Zr3BBr18
_chemical_formula_sum   'Rb4 Hf3 Zr3 B1 Br18'
_cell_volume   1009.75924591
_cell_formula_units_Z   1
loop_
 _symmetry_equiv_pos_site_id
 _symmetry_equiv_pos_as_xyz
  1  'x, y, z'
loop_
 _atom_site_type_symbol
 _atom_site_label
 _atom_site_symmetry_multiplicity
 _atom_site_fract_x
 _atom_site_fract_y
 _atom_site_fract_z
 _atom_site_occupancy
  Rb  Rb0  1  0.188775  0.727624  0.563840  1
  Rb  Rb1  1  0.844541  0.964016  0.771335  1
  Rb  Rb2  1  0.155422  0.037599  0.228193  1
  Rb  Rb3  1  0.810003  0.275261  0.435900  1
  Hf  Hf4  1  0.354534  0.445883  0.776109  1
  Hf  Hf5  1  0.365782  0.621914  0.129853  1
  Hf  Hf6  1  0.641909  0.731250  0.042416  1
  Zr  Zr7  1  0.645392  0.550267  0.222719  1
  Zr  Zr8  1  0.361174  0.267808  0.958835  1
  Zr  Zr9  1  0.634343  0.375800  0.871508  1
  B  B10  1  0.498666  0.503325  0.999559  1
  Br  Br11  1  0.820275  0.425931  0.109883  1
  Br  Br12  1  0.514522  0.702473  0.399997  1
  Br  Br13  1  0.179906  0.986719  0.900901  1
  Br  Br14  1  0.185213  0.573129  0.892002  1
  Br  Br15  1  0.824314  0.826641  0.302059  1
  Br  Br16  1  0.503756  0.296512  0.208789  1
  Br  Br17  1  0.792262  0.232419  0.717267  1
  Br  Br18  1  0.175611  0.176354  0.695135  1
  Br  Br19  1  0.508849  0.898556  0.191546  1
  Br  Br20  1  0.813046  0.628925  0.908031  1
  Br  Br21  1  0.210501  0.766558  0.277354  1
  Br  Br22  1  0.173524  0.382964  0.511875  1
  Br  Br23  1  0.495443  0.700293  0.795706  1
  Br  Br24  1  0.812757  0.009031  0.097098  1
  Br  Br25  1  0.481595  0.300162  0.598613  1
  Br  Br26  1  0.187221  0.376877  0.094484  1
  Br  Br27  1  0.829886  0.621576  0.494645  1
  Br  Br28  1  0.490777  0.094134  0.804345  1
