# generated using pymatgen
data_Ta4Be3Mo2P
_symmetry_space_group_name_H-M   'P 1'
_cell_length_a   6.41638793
_cell_length_b   6.41638755
_cell_length_c   3.35893600
_cell_angle_alpha   90.00000000
_cell_angle_beta   90.00000000
_cell_angle_gamma   89.75689131
_symmetry_Int_Tables_number   1
_chemical_formula_structural   Ta4Be3Mo2P
_chemical_formula_sum   'Ta4 Be3 Mo2 P1'
_cell_volume   138.28625661
_cell_formula_units_Z   1
loop_
 _symmetry_equiv_pos_site_id
 _symmetry_equiv_pos_as_xyz
  1  'x, y, z'
loop_
 _atom_site_type_symbol
 _atom_site_label
 _atom_site_symmetry_multiplicity
 _atom_site_fract_x
 _atom_site_fract_y
 _atom_site_fract_z
 _atom_site_occupancy
  Ta  Ta0  1  0.678036  0.178036  0.500000  1
  Ta  Ta1  1  0.328162  0.828162  0.500000  1
  Ta  Ta2  1  0.177923  0.315019  0.500000  1
  Ta  Ta3  1  0.815019  0.677923  0.500000  1
  Be  Be4  1  0.878224  0.378224  0.000000  1
  Be  Be5  1  0.617809  0.884599  0.000000  1
  Be  Be6  1  0.384599  0.117809  0.000000  1
  Mo  Mo7  1  0.503163  0.499488  0.000000  1
  Mo  Mo8  1  0.999488  0.003163  0.000000  1
  P  P9  1  0.117578  0.617578  0.000000  1
