# generated using pymatgen
data_CaLaSm5FeBr12
_symmetry_space_group_name_H-M   'P 1'
_cell_length_a   9.22248942
_cell_length_b   9.56081358
_cell_length_c   9.54337495
_cell_angle_alpha   107.32735499
_cell_angle_beta   106.40712205
_cell_angle_gamma   107.00862838
_symmetry_Int_Tables_number   1
_chemical_formula_structural   CaLaSm5FeBr12
_chemical_formula_sum   'Ca1 La1 Sm5 Fe1 Br12'
_cell_volume   702.38896775
_cell_formula_units_Z   1
loop_
 _symmetry_equiv_pos_site_id
 _symmetry_equiv_pos_as_xyz
  1  'x, y, z'
loop_
 _atom_site_type_symbol
 _atom_site_label
 _atom_site_symmetry_multiplicity
 _atom_site_fract_x
 _atom_site_fract_y
 _atom_site_fract_z
 _atom_site_occupancy
  Ca  Ca0  1  0.500369  0.499954  0.499533  1
  La  La1  1  0.715450  0.904711  0.977605  1
  Sm  Sm2  1  0.289268  0.097763  0.023707  1
  Sm  Sm3  1  0.022557  0.315265  0.107603  1
  Sm  Sm4  1  0.109590  0.026358  0.315427  1
  Sm  Sm5  1  0.891907  0.973766  0.685422  1
  Sm  Sm6  1  0.976401  0.684920  0.891951  1
  Fe  Fe7  1  0.983328  0.994375  0.999723  1
  Br  Br8  1  0.681738  0.226275  0.073485  1
  Br  Br9  1  0.376319  0.451140  0.162160  1
  Br  Br10  1  0.072563  0.685004  0.215269  1
  Br  Br11  1  0.786175  0.930247  0.325194  1
  Br  Br12  1  0.460236  0.165057  0.373503  1
  Br  Br13  1  0.156356  0.373867  0.456064  1
  Br  Br14  1  0.845034  0.626115  0.544085  1
  Br  Br15  1  0.537611  0.832265  0.613748  1
  Br  Br16  1  0.221635  0.072659  0.688471  1
  Br  Br17  1  0.929409  0.315357  0.784729  1
  Br  Br18  1  0.623349  0.536875  0.830823  1
  Br  Br19  1  0.320705  0.788029  0.931495  1
