# generated using pymatgen
data_Pa4PdRh3Pb2
_symmetry_space_group_name_H-M   'P 1'
_cell_length_a   7.87537508
_cell_length_b   7.87537569
_cell_length_c   3.58372500
_cell_angle_alpha   90.00000000
_cell_angle_beta   90.00000000
_cell_angle_gamma   89.96106238
_symmetry_Int_Tables_number   1
_chemical_formula_structural   Pa4PdRh3Pb2
_chemical_formula_sum   'Pa4 Pd1 Rh3 Pb2'
_cell_volume   222.26808275
_cell_formula_units_Z   1
loop_
 _symmetry_equiv_pos_site_id
 _symmetry_equiv_pos_as_xyz
  1  'x, y, z'
loop_
 _atom_site_type_symbol
 _atom_site_label
 _atom_site_symmetry_multiplicity
 _atom_site_fract_x
 _atom_site_fract_y
 _atom_site_fract_z
 _atom_site_occupancy
  Pa  Pa0  1  0.660775  0.160775  0.500000  1
  Pa  Pa1  1  0.178667  0.332366  0.500000  1
  Pa  Pa2  1  0.832366  0.678667  0.500000  1
  Pa  Pa3  1  0.327203  0.827203  0.500000  1
  Pd  Pd4  1  0.870365  0.370365  0.000000  1
  Rh  Rh5  1  0.369132  0.129647  0.000000  1
  Rh  Rh6  1  0.128017  0.628017  0.000000  1
  Rh  Rh7  1  0.629647  0.869132  0.000000  1
  Pb  Pb8  1  0.001058  0.002770  0.000000  1
  Pb  Pb9  1  0.502770  0.501058  0.000000  1
