# generated using pymatgen
data_Sm2Th(As2Rh3)3
_symmetry_space_group_name_H-M   'P 1'
_cell_length_a   8.49047360
_cell_length_b   8.49047371
_cell_length_c   9.90434626
_cell_angle_alpha   72.86584601
_cell_angle_beta   72.86584518
_cell_angle_gamma   27.55187248
_symmetry_Int_Tables_number   1
_chemical_formula_structural   Sm2Th(As2Rh3)3
_chemical_formula_sum   'Sm2 Th1 As6 Rh9'
_cell_volume   314.69486152
_cell_formula_units_Z   1
loop_
 _symmetry_equiv_pos_site_id
 _symmetry_equiv_pos_as_xyz
  1  'x, y, z'
loop_
 _atom_site_type_symbol
 _atom_site_label
 _atom_site_symmetry_multiplicity
 _atom_site_fract_x
 _atom_site_fract_y
 _atom_site_fract_z
 _atom_site_occupancy
  Sm  Sm0  1  0.843147  0.843147  0.697227  1
  Sm  Sm1  1  0.156853  0.156853  0.302773  1
  Th  Th2  1  0.000000  0.000000  0.000000  1
  As  As3  1  0.801672  0.801672  0.130495  1
  As  As4  1  0.198328  0.198328  0.869505  1
  As  As5  1  0.540495  0.540495  0.221529  1
  As  As6  1  0.459505  0.459505  0.778471  1
  As  As7  1  0.638317  0.638317  0.544852  1
  As  As8  1  0.361683  0.361683  0.455148  1
  Rh  Rh9  1  0.957249  0.957249  0.328275  1
  Rh  Rh10  1  0.042751  0.042751  0.671725  1
  Rh  Rh11  1  0.780397  0.780397  0.391876  1
  Rh  Rh12  1  0.219603  0.219603  0.608124  1
  Rh  Rh13  1  0.379709  0.379709  0.202124  1
  Rh  Rh14  1  0.620291  0.620291  0.797876  1
  Rh  Rh15  1  0.500000  0.500000  0.500000  1
  Rh  Rh16  1  0.678647  0.678647  0.040151  1
  Rh  Rh17  1  0.321353  0.321353  0.959849  1
