# generated using pymatgen
data_LuTh2In3
_symmetry_space_group_name_H-M   'P 1'
_cell_length_a   10.63963300
_cell_length_b   9.86972500
_cell_length_c   6.53978400
_cell_angle_alpha   90.00000000
_cell_angle_beta   90.00000000
_cell_angle_gamma   90.00000000
_symmetry_Int_Tables_number   1
_chemical_formula_structural   LuTh2In3
_chemical_formula_sum   'Lu4 Th8 In12'
_cell_volume   686.74436463
_cell_formula_units_Z   4
loop_
 _symmetry_equiv_pos_site_id
 _symmetry_equiv_pos_as_xyz
  1  'x, y, z'
loop_
 _atom_site_type_symbol
 _atom_site_label
 _atom_site_symmetry_multiplicity
 _atom_site_fract_x
 _atom_site_fract_y
 _atom_site_fract_z
 _atom_site_occupancy
  Lu  Lu0  1  0.612575  0.250000  0.000000  1
  Lu  Lu1  1  0.387424  0.750000  0.000000  1
  Lu  Lu2  1  0.612575  0.250000  0.500001  1
  Lu  Lu3  1  0.387424  0.750000  0.500001  1
  Th  Th4  1  0.315038  0.366462  0.250001  1
  Th  Th5  1  0.882658  0.467577  0.250001  1
  Th  Th6  1  0.684962  0.866461  0.250001  1
  Th  Th7  1  0.117341  0.967576  0.250001  1
  Th  Th8  1  0.882658  0.032424  0.749999  1
  Th  Th9  1  0.315038  0.133539  0.749999  1
  Th  Th10  1  0.117341  0.532423  0.749999  1
  Th  Th11  1  0.684962  0.633538  0.749999  1
  In  In12  1  0.071176  0.250000  0.000000  1
  In  In13  1  0.928824  0.750000  0.000000  1
  In  In14  1  0.417878  0.047979  0.250001  1
  In  In15  1  0.849136  0.131394  0.250001  1
  In  In16  1  0.582121  0.547979  0.250001  1
  In  In17  1  0.150866  0.631393  0.250001  1
  In  In18  1  0.071176  0.250000  0.500001  1
  In  In19  1  0.928824  0.750000  0.500001  1
  In  In20  1  0.849136  0.368607  0.749999  1
  In  In21  1  0.417878  0.452021  0.749999  1
  In  In22  1  0.150866  0.868606  0.749999  1
  In  In23  1  0.582121  0.952021  0.749999  1
