# generated using pymatgen
data_Ti3Ga3Co2Au
_symmetry_space_group_name_H-M   'P 1'
_cell_length_a   7.00105300
_cell_length_b   7.00105397
_cell_length_c   3.12919500
_cell_angle_alpha   90.00000000
_cell_angle_beta   90.00000000
_cell_angle_gamma   120.00000961
_symmetry_Int_Tables_number   1
_chemical_formula_structural   Ti3Ga3Co2Au
_chemical_formula_sum   'Ti3 Ga3 Co2 Au1'
_cell_volume   132.82811453
_cell_formula_units_Z   1
loop_
 _symmetry_equiv_pos_site_id
 _symmetry_equiv_pos_as_xyz
  1  'x, y, z'
loop_
 _atom_site_type_symbol
 _atom_site_label
 _atom_site_symmetry_multiplicity
 _atom_site_fract_x
 _atom_site_fract_y
 _atom_site_fract_z
 _atom_site_occupancy
  Ti  Ti0  1  0.368196  0.402550  0.500000  1
  Ti  Ti1  1  0.597450  0.965646  0.500000  1
  Ti  Ti2  1  0.034354  0.631804  0.500000  1
  Ga  Ga3  1  0.732645  0.730633  0.000000  1
  Ga  Ga4  1  0.269367  0.002012  0.000000  1
  Ga  Ga5  1  0.997988  0.267355  0.000000  1
  Co  Co6  1  0.333333  0.666667  0.000000  1
  Co  Co7  1  0.000000  0.000000  0.500000  1
  Au  Au8  1  0.666667  0.333333  0.000000  1
