# generated using pymatgen
data_UMn4Sb11
_symmetry_space_group_name_H-M   'P 1'
_cell_length_a   8.04431084
_cell_length_b   8.04431060
_cell_length_c   8.12002460
_cell_angle_alpha   108.60602770
_cell_angle_beta   108.12659061
_cell_angle_gamma   111.33942470
_symmetry_Int_Tables_number   1
_chemical_formula_structural   UMn4Sb11
_chemical_formula_sum   'U1 Mn4 Sb11'
_cell_volume   405.91011275
_cell_formula_units_Z   1
loop_
 _symmetry_equiv_pos_site_id
 _symmetry_equiv_pos_as_xyz
  1  'x, y, z'
loop_
 _atom_site_type_symbol
 _atom_site_label
 _atom_site_symmetry_multiplicity
 _atom_site_fract_x
 _atom_site_fract_y
 _atom_site_fract_z
 _atom_site_occupancy
  U  U0  1  0.701445  0.807397  0.508842  1
  Mn  Mn1  1  0.517296  0.531822  0.500480  1
  Mn  Mn2  1  0.497275  0.004792  0.001757  1
  Mn  Mn3  1  0.968657  0.983184  0.500480  1
  Mn  Mn4  1  0.996966  0.504483  0.001757  1
  Sb  Sb5  1  0.834661  0.499142  0.657187  1
  Sb  Sb6  1  0.507859  0.668935  0.836314  1
  Sb  Sb7  1  0.661691  0.142413  0.804105  1
  Sb  Sb8  1  0.837328  0.176861  0.341845  1
  Sb  Sb9  1  0.158045  0.822527  0.657187  1
  Sb  Sb10  1  0.167376  0.328454  0.836314  1
  Sb  Sb11  1  0.164983  0.504518  0.341845  1
  Sb  Sb12  1  0.342683  0.163325  0.506008  1
  Sb  Sb13  1  0.477640  0.335550  0.151348  1
  Sb  Sb14  1  0.350297  0.852888  0.203184  1
  Sb  Sb15  1  0.815800  0.673708  0.151348  1
