# generated using pymatgen
data_YErCd4(Ni7B2)2
_symmetry_space_group_name_H-M   'P 1'
_cell_length_a   4.97958202
_cell_length_b   4.97840947
_cell_length_c   14.04589800
_cell_angle_alpha   90.00000000
_cell_angle_beta   90.00000000
_cell_angle_gamma   119.95542480
_symmetry_Int_Tables_number   1
_chemical_formula_structural   YErCd4(Ni7B2)2
_chemical_formula_sum   'Y1 Er1 Cd4 Ni14 B4'
_cell_volume   301.68835189
_cell_formula_units_Z   1
loop_
 _symmetry_equiv_pos_site_id
 _symmetry_equiv_pos_as_xyz
  1  'x, y, z'
loop_
 _atom_site_type_symbol
 _atom_site_label
 _atom_site_symmetry_multiplicity
 _atom_site_fract_x
 _atom_site_fract_y
 _atom_site_fract_z
 _atom_site_occupancy
  Y  Y0  1  0.666630  0.333368  0.750000  1
  Er  Er1  1  0.333389  0.666662  0.250000  1
  Cd  Cd2  1  0.333330  0.666644  0.470400  1
  Cd  Cd3  1  0.666665  0.333330  0.971504  1
  Cd  Cd4  1  0.666665  0.333330  0.528496  1
  Cd  Cd5  1  0.333330  0.666644  0.029600  1
  Ni  Ni6  1  0.833920  0.166068  0.352476  1
  Ni  Ni7  1  0.833916  0.667833  0.352475  1
  Ni  Ni8  1  0.999944  0.999970  0.000301  1
  Ni  Ni9  1  0.999944  0.999970  0.499699  1
  Ni  Ni10  1  0.833916  0.667833  0.147525  1
  Ni  Ni11  1  0.166145  0.833875  0.646642  1
  Ni  Ni12  1  0.667735  0.833882  0.646696  1
  Ni  Ni13  1  0.332204  0.166095  0.147511  1
  Ni  Ni14  1  0.833920  0.166068  0.147524  1
  Ni  Ni15  1  0.166137  0.332274  0.853324  1
  Ni  Ni16  1  0.166145  0.833875  0.853358  1
  Ni  Ni17  1  0.166137  0.332274  0.646676  1
  Ni  Ni18  1  0.667735  0.833882  0.853304  1
  Ni  Ni19  1  0.332204  0.166095  0.352489  1
  B  B20  1  0.666620  0.333303  0.250000  1
  B  B21  1  0.333324  0.666624  0.750000  1
  B  B22  1  0.999889  0.000086  0.750000  1
  B  B23  1  0.000157  0.000014  0.250000  1
