# generated using pymatgen
data_Nd2Al20ReRuRh2
_symmetry_space_group_name_H-M   'P 1'
_cell_length_a   6.88908514
_cell_length_b   6.90070223
_cell_length_c   9.21863409
_cell_angle_alpha   89.91331878
_cell_angle_beta   89.65341704
_cell_angle_gamma   96.84697635
_symmetry_Int_Tables_number   1
_chemical_formula_structural   Nd2Al20ReRuRh2
_chemical_formula_sum   'Nd2 Al20 Re1 Ru1 Rh2'
_cell_volume   435.11487157
_cell_formula_units_Z   1
loop_
 _symmetry_equiv_pos_site_id
 _symmetry_equiv_pos_as_xyz
  1  'x, y, z'
loop_
 _atom_site_type_symbol
 _atom_site_label
 _atom_site_symmetry_multiplicity
 _atom_site_fract_x
 _atom_site_fract_y
 _atom_site_fract_z
 _atom_site_occupancy
  Nd  Nd0  1  0.870619  0.122746  0.750306  1
  Nd  Nd1  1  0.129381  0.877254  0.249694  1
  Al  Al2  1  0.620309  0.376386  0.549981  1
  Al  Al3  1  0.379691  0.623614  0.450019  1
  Al  Al4  1  0.380219  0.624079  0.049450  1
  Al  Al5  1  0.619781  0.375921  0.950550  1
  Al  Al6  1  0.227397  0.225237  0.498520  1
  Al  Al7  1  0.772603  0.774763  0.501480  1
  Al  Al8  1  0.773975  0.774857  0.998919  1
  Al  Al9  1  0.226025  0.225143  0.001081  1
  Al  Al10  1  0.841316  0.158564  0.102047  1
  Al  Al11  1  0.158684  0.841436  0.897953  1
  Al  Al12  1  0.159557  0.841049  0.602738  1
  Al  Al13  1  0.840443  0.158951  0.397262  1
  Al  Al14  1  0.858412  0.589568  0.749805  1
  Al  Al15  1  0.141588  0.410432  0.250195  1
  Al  Al16  1  0.409577  0.140218  0.749292  1
  Al  Al17  1  0.590423  0.859782  0.250708  1
  Al  Al18  1  0.223320  0.482070  0.749301  1
  Al  Al19  1  0.776680  0.517930  0.250699  1
  Al  Al20  1  0.517014  0.779756  0.750575  1
  Al  Al21  1  0.482986  0.220244  0.249425  1
  Re  Re22  1  0.500000  0.000000  0.000000  1
  Ru  Ru23  1  0.500000  0.000000  0.500000  1
  Rh  Rh24  1  0.000000  0.500000  0.500000  1
  Rh  Rh25  1  0.000000  0.500000  0.000000  1
