# generated using pymatgen
data_MnCr20(RuC3)2
_symmetry_space_group_name_H-M   'P 1'
_cell_length_a   7.49193609
_cell_length_b   7.49193518
_cell_length_c   7.49193500
_cell_angle_alpha   59.99999640
_cell_angle_beta   60.00000038
_cell_angle_gamma   59.99999372
_symmetry_Int_Tables_number   1
_chemical_formula_structural   MnCr20(RuC3)2
_chemical_formula_sum   'Mn1 Cr20 Ru2 C6'
_cell_volume   297.34938668
_cell_formula_units_Z   1
loop_
 _symmetry_equiv_pos_site_id
 _symmetry_equiv_pos_as_xyz
  1  'x, y, z'
loop_
 _atom_site_type_symbol
 _atom_site_label
 _atom_site_symmetry_multiplicity
 _atom_site_fract_x
 _atom_site_fract_y
 _atom_site_fract_z
 _atom_site_occupancy
  Mn  Mn0  1  0.000000  0.000000  0.000000  1
  Cr  Cr1  1  0.616526  0.616526  0.150423  1
  Cr  Cr2  1  0.616526  0.150423  0.616526  1
  Cr  Cr3  1  0.150423  0.616526  0.616526  1
  Cr  Cr4  1  0.616526  0.616526  0.616526  1
  Cr  Cr5  1  0.383474  0.383474  0.849577  1
  Cr  Cr6  1  0.383474  0.849577  0.383474  1
  Cr  Cr7  1  0.849577  0.383474  0.383474  1
  Cr  Cr8  1  0.383474  0.383474  0.383474  1
  Cr  Cr9  1  0.000000  0.000000  0.335886  1
  Cr  Cr10  1  0.664114  0.000000  0.335886  1
  Cr  Cr11  1  0.000000  0.664114  0.335886  1
  Cr  Cr12  1  0.664114  0.335886  0.000000  1
  Cr  Cr13  1  0.000000  0.335886  0.000000  1
  Cr  Cr14  1  0.000000  0.335886  0.664114  1
  Cr  Cr15  1  0.335886  0.664114  0.000000  1
  Cr  Cr16  1  0.335886  0.000000  0.664114  1
  Cr  Cr17  1  0.335886  0.000000  0.000000  1
  Cr  Cr18  1  0.000000  0.000000  0.664114  1
  Cr  Cr19  1  0.000000  0.664114  0.000000  1
  Cr  Cr20  1  0.664114  0.000000  0.000000  1
  Ru  Ru21  1  0.750000  0.750000  0.750000  1
  Ru  Ru22  1  0.250000  0.250000  0.250000  1
  C  C23  1  0.723171  0.723171  0.276829  1
  C  C24  1  0.276829  0.723171  0.276829  1
  C  C25  1  0.723171  0.276829  0.276829  1
  C  C26  1  0.276829  0.276829  0.723171  1
  C  C27  1  0.723171  0.276829  0.723171  1
  C  C28  1  0.276829  0.723171  0.723171  1
