# generated using pymatgen
data_Rb20Si3GeP12
_symmetry_space_group_name_H-M   'P 1'
_cell_length_a   5.48668500
_cell_length_b   14.90223602
_cell_length_c   15.55173502
_cell_angle_alpha   90.00631441
_cell_angle_beta   90.00000000
_cell_angle_gamma   90.00000000
_symmetry_Int_Tables_number   1
_chemical_formula_structural   Rb20Si3GeP12
_chemical_formula_sum   'Rb20 Si3 Ge1 P12'
_cell_volume   1271.57010848
_cell_formula_units_Z   1
loop_
 _symmetry_equiv_pos_site_id
 _symmetry_equiv_pos_as_xyz
  1  'x, y, z'
loop_
 _atom_site_type_symbol
 _atom_site_label
 _atom_site_symmetry_multiplicity
 _atom_site_fract_x
 _atom_site_fract_y
 _atom_site_fract_z
 _atom_site_occupancy
  Rb  Rb0  1  0.250000  0.379733  0.015318  1
  Rb  Rb1  1  0.750000  0.619949  0.982940  1
  Rb  Rb2  1  0.250000  0.119765  0.516042  1
  Rb  Rb3  1  0.750000  0.880180  0.483943  1
  Rb  Rb4  1  0.750000  0.731159  0.233789  1
  Rb  Rb5  1  0.250000  0.270136  0.766326  1
  Rb  Rb6  1  0.750000  0.770280  0.733713  1
  Rb  Rb7  1  0.250000  0.228609  0.266130  1
  Rb  Rb8  1  0.750000  0.059505  0.695145  1
  Rb  Rb9  1  0.250000  0.941387  0.304862  1
  Rb  Rb10  1  0.750000  0.439277  0.194585  1
  Rb  Rb11  1  0.250000  0.559504  0.805037  1
  Rb  Rb12  1  0.750000  0.183724  0.915102  1
  Rb  Rb13  1  0.250000  0.816980  0.084136  1
  Rb  Rb14  1  0.750000  0.315301  0.415716  1
  Rb  Rb15  1  0.250000  0.683965  0.586009  1
  Rb  Rb16  1  0.750000  0.928050  0.932413  1
  Rb  Rb17  1  0.250000  0.072033  0.067412  1
  Rb  Rb18  1  0.750000  0.571944  0.433738  1
  Rb  Rb19  1  0.250000  0.427749  0.568407  1
  Si  Si20  1  0.750000  0.081400  0.219583  1
  Si  Si21  1  0.250000  0.918654  0.780370  1
  Si  Si22  1  0.750000  0.418527  0.719653  1
  Ge  Ge23  1  0.250000  0.581709  0.279976  1
  P  P24  1  0.750000  0.204479  0.139275  1
  P  P25  1  0.250000  0.795549  0.860589  1
  P  P26  1  0.750000  0.295376  0.639483  1
  P  P27  1  0.250000  0.709134  0.363779  1
  P  P28  1  0.750000  0.948490  0.156931  1
  P  P29  1  0.250000  0.051594  0.843073  1
  P  P30  1  0.750000  0.551520  0.657049  1
  P  P31  1  0.250000  0.444283  0.345005  1
  P  P32  1  0.750000  0.089168  0.362621  1
  P  P33  1  0.250000  0.910883  0.637370  1
  P  P34  1  0.750000  0.410717  0.862630  1
  P  P35  1  0.250000  0.589290  0.131850  1
