# generated using pymatgen
data_Ho2Tm4Al24Os5Pt3
_symmetry_space_group_name_H-M   'P 1'
_cell_length_a   8.79119615
_cell_length_b   8.80866144
_cell_length_c   9.52901089
_cell_angle_alpha   90.11084135
_cell_angle_beta   89.72647126
_cell_angle_gamma   119.53353417
_symmetry_Int_Tables_number   1
_chemical_formula_structural   Ho2Tm4Al24Os5Pt3
_chemical_formula_sum   'Ho2 Tm4 Al24 Os5 Pt3'
_cell_volume   642.02742361
_cell_formula_units_Z   1
loop_
 _symmetry_equiv_pos_site_id
 _symmetry_equiv_pos_as_xyz
  1  'x, y, z'
loop_
 _atom_site_type_symbol
 _atom_site_label
 _atom_site_symmetry_multiplicity
 _atom_site_fract_x
 _atom_site_fract_y
 _atom_site_fract_z
 _atom_site_occupancy
  Ho  Ho0  1  0.188389  0.384621  0.250788  1
  Ho  Ho1  1  0.811611  0.615379  0.749212  1
  Tm  Tm2  1  0.610890  0.813867  0.252290  1
  Tm  Tm3  1  0.389110  0.186133  0.747710  1
  Tm  Tm4  1  0.197414  0.808235  0.251819  1
  Tm  Tm5  1  0.802586  0.191765  0.748181  1
  Al  Al6  1  0.335274  0.671244  0.031875  1
  Al  Al7  1  0.664726  0.328756  0.968125  1
  Al  Al8  1  0.669198  0.331498  0.529311  1
  Al  Al9  1  0.330802  0.668502  0.470689  1
  Al  Al10  1  0.157985  0.325247  0.575854  1
  Al  Al11  1  0.842015  0.674753  0.424146  1
  Al  Al12  1  0.673413  0.840643  0.575842  1
  Al  Al13  1  0.836845  0.676361  0.078782  1
  Al  Al14  1  0.326587  0.159357  0.424158  1
  Al  Al15  1  0.163155  0.323639  0.921218  1
  Al  Al16  1  0.163756  0.834929  0.576300  1
  Al  Al17  1  0.325699  0.158921  0.076573  1
  Al  Al18  1  0.836244  0.165071  0.423700  1
  Al  Al19  1  0.674301  0.841079  0.923427  1
  Al  Al20  1  0.831618  0.159484  0.077739  1
  Al  Al21  1  0.168382  0.840516  0.922261  1
  Al  Al22  1  0.560958  0.125464  0.249842  1
  Al  Al23  1  0.439042  0.874536  0.750158  1
  Al  Al24  1  0.874099  0.438257  0.252572  1
  Al  Al25  1  0.125901  0.561743  0.747428  1
  Al  Al26  1  0.562715  0.437219  0.249674  1
  Al  Al27  1  0.437285  0.562781  0.750326  1
  Al  Al28  1  0.998336  0.001758  0.250202  1
  Al  Al29  1  0.001664  0.998242  0.749798  1
  Os  Os30  1  0.500000  0.000000  0.000000  1
  Os  Os31  1  0.500000  0.000000  0.500000  1
  Os  Os32  1  0.000000  0.500000  0.500000  1
  Os  Os33  1  0.000000  0.000000  0.000000  1
  Os  Os34  1  0.000000  0.000000  0.500000  1
  Pt  Pt35  1  0.000000  0.500000  0.000000  1
  Pt  Pt36  1  0.500000  0.500000  0.000000  1
  Pt  Pt37  1  0.500000  0.500000  0.500000  1
