# generated using pymatgen
data_PuCrB4
_symmetry_space_group_name_H-M   'P 1'
_cell_length_a   5.95013500
_cell_length_b   11.51675100
_cell_length_c   3.42925600
_cell_angle_alpha   89.99997297
_cell_angle_beta   90.00007193
_cell_angle_gamma   90.00167563
_symmetry_Int_Tables_number   1
_chemical_formula_structural   PuCrB4
_chemical_formula_sum   'Pu4 Cr4 B16'
_cell_volume   234.99396206
_cell_formula_units_Z   4
loop_
 _symmetry_equiv_pos_site_id
 _symmetry_equiv_pos_as_xyz
  1  'x, y, z'
loop_
 _atom_site_type_symbol
 _atom_site_label
 _atom_site_symmetry_multiplicity
 _atom_site_fract_x
 _atom_site_fract_y
 _atom_site_fract_z
 _atom_site_occupancy
  Pu  Pu0  1  0.124730  0.150866  0.999998  1
  Pu  Pu1  1  0.876133  0.848998  0.999997  1
  Pu  Pu2  1  0.624708  0.349194  0.000000  1
  Pu  Pu3  1  0.376145  0.650939  0.000000  1
  Cr  Cr4  1  0.125060  0.417732  0.000001  1
  Cr  Cr5  1  0.874778  0.582473  0.000000  1
  Cr  Cr6  1  0.625081  0.082288  0.000004  1
  Cr  Cr7  1  0.374747  0.917504  0.000001  1
  B  B8  1  0.474473  0.191197  0.499999  1
  B  B9  1  0.524932  0.808979  0.500000  1
  B  B10  1  0.974451  0.308846  0.500000  1
  B  B11  1  0.024967  0.690963  0.499999  1
  B  B12  1  0.281231  0.315282  0.499999  1
  B  B13  1  0.718928  0.684505  0.499999  1
  B  B14  1  0.781231  0.184776  0.500000  1
  B  B15  1  0.218944  0.815436  0.499999  1
  B  B16  1  0.362975  0.467179  0.499998  1
  B  B17  1  0.637456  0.533326  0.499998  1
  B  B18  1  0.863018  0.032836  0.500001  1
  B  B19  1  0.137449  0.966679  0.500001  1
  B  B20  1  0.385941  0.046126  0.500001  1
  B  B21  1  0.613346  0.953193  0.500001  1
  B  B22  1  0.885942  0.453892  0.499998  1
  B  B23  1  0.113338  0.546792  0.499999  1
