# generated using pymatgen
data_LaNb8VSe16
_symmetry_space_group_name_H-M   'P 1'
_cell_length_a   7.00445600
_cell_length_b   7.00445651
_cell_length_c   14.08053900
_cell_angle_alpha   90.00000000
_cell_angle_beta   90.00000000
_cell_angle_gamma   119.99998815
_symmetry_Int_Tables_number   1
_chemical_formula_structural   LaNb8VSe16
_chemical_formula_sum   'La1 Nb8 V1 Se16'
_cell_volume   598.27219315
_cell_formula_units_Z   1
loop_
 _symmetry_equiv_pos_site_id
 _symmetry_equiv_pos_as_xyz
  1  'x, y, z'
loop_
 _atom_site_type_symbol
 _atom_site_label
 _atom_site_symmetry_multiplicity
 _atom_site_fract_x
 _atom_site_fract_y
 _atom_site_fract_z
 _atom_site_occupancy
  La  La0  1  0.000000  0.000000  0.500000  1
  Nb  Nb1  1  0.000000  0.000000  0.231125  1
  Nb  Nb2  1  0.000000  0.000000  0.768875  1
  Nb  Nb3  1  0.506353  0.493647  0.228865  1
  Nb  Nb4  1  0.506353  0.012705  0.228865  1
  Nb  Nb5  1  0.987295  0.493647  0.228865  1
  Nb  Nb6  1  0.493647  0.506353  0.771135  1
  Nb  Nb7  1  0.493647  0.987295  0.771135  1
  Nb  Nb8  1  0.012705  0.506353  0.771135  1
  V  V9  1  0.000000  0.000000  0.000000  1
  Se  Se10  1  0.333333  0.666667  0.892578  1
  Se  Se11  1  0.666667  0.333333  0.107422  1
  Se  Se12  1  0.666667  0.333333  0.352312  1
  Se  Se13  1  0.333333  0.666667  0.647688  1
  Se  Se14  1  0.170385  0.829615  0.348076  1
  Se  Se15  1  0.170385  0.340771  0.348076  1
  Se  Se16  1  0.659229  0.829615  0.348076  1
  Se  Se17  1  0.829615  0.170385  0.651924  1
  Se  Se18  1  0.829615  0.659229  0.651924  1
  Se  Se19  1  0.340771  0.170385  0.651924  1
  Se  Se20  1  0.833408  0.166592  0.888267  1
  Se  Se21  1  0.833408  0.666815  0.888267  1
  Se  Se22  1  0.333185  0.166592  0.888267  1
  Se  Se23  1  0.166592  0.833408  0.111733  1
  Se  Se24  1  0.166592  0.333185  0.111733  1
  Se  Se25  1  0.666815  0.833408  0.111733  1
