# generated using pymatgen
data_La2Dy3Ga4
_symmetry_space_group_name_H-M   'P 1'
_cell_length_a   7.64920600
_cell_length_b   8.12337100
_cell_length_c   15.53547600
_cell_angle_alpha   90.00000000
_cell_angle_beta   90.00000000
_cell_angle_gamma   90.00000000
_symmetry_Int_Tables_number   1
_chemical_formula_structural   La2Dy3Ga4
_chemical_formula_sum   'La8 Dy12 Ga16'
_cell_volume   965.33312621
_cell_formula_units_Z   4
loop_
 _symmetry_equiv_pos_site_id
 _symmetry_equiv_pos_as_xyz
  1  'x, y, z'
loop_
 _atom_site_type_symbol
 _atom_site_label
 _atom_site_symmetry_multiplicity
 _atom_site_fract_x
 _atom_site_fract_y
 _atom_site_fract_z
 _atom_site_occupancy
  La  La0  1  0.989296  0.179774  0.093300  1
  La  La1  1  0.489296  0.320226  0.406700  1
  La  La2  1  0.510704  0.679774  0.906700  1
  La  La3  1  0.010704  0.820226  0.593300  1
  La  La4  1  0.010704  0.820226  0.906700  1
  La  La5  1  0.510704  0.679774  0.593300  1
  La  La6  1  0.489296  0.320226  0.093300  1
  La  La7  1  0.989296  0.179774  0.406700  1
  Dy  Dy8  1  0.832410  0.676733  0.123292  1
  Dy  Dy9  1  0.332410  0.823267  0.376708  1
  Dy  Dy10  1  0.667590  0.176733  0.876708  1
  Dy  Dy11  1  0.167590  0.323267  0.623292  1
  Dy  Dy12  1  0.167590  0.323267  0.876708  1
  Dy  Dy13  1  0.667590  0.176733  0.623292  1
  Dy  Dy14  1  0.332410  0.823267  0.123292  1
  Dy  Dy15  1  0.832410  0.676733  0.376708  1
  Dy  Dy16  1  0.673732  0.015834  0.250000  1
  Dy  Dy17  1  0.173732  0.484166  0.250000  1
  Dy  Dy18  1  0.826268  0.515834  0.750000  1
  Dy  Dy19  1  0.326268  0.984166  0.750000  1
  Ga  Ga20  1  0.040496  0.886842  0.250000  1
  Ga  Ga21  1  0.540496  0.613158  0.250000  1
  Ga  Ga22  1  0.459504  0.386842  0.750000  1
  Ga  Ga23  1  0.959504  0.113158  0.750000  1
  Ga  Ga24  1  0.782692  0.382045  0.250000  1
  Ga  Ga25  1  0.282692  0.117955  0.250000  1
  Ga  Ga26  1  0.717308  0.882045  0.750000  1
  Ga  Ga27  1  0.217308  0.617955  0.750000  1
  Ga  Ga28  1  0.842599  0.468204  0.961245  1
  Ga  Ga29  1  0.342599  0.031796  0.538755  1
  Ga  Ga30  1  0.657401  0.968204  0.038755  1
  Ga  Ga31  1  0.157401  0.531796  0.461245  1
  Ga  Ga32  1  0.157401  0.531796  0.038755  1
  Ga  Ga33  1  0.657401  0.968204  0.461245  1
  Ga  Ga34  1  0.342599  0.031796  0.961245  1
  Ga  Ga35  1  0.842599  0.468204  0.538755  1
