# generated using pymatgen
data_Zr10AlSi4AsO
_symmetry_space_group_name_H-M   'P 1'
_cell_length_a   8.04359894
_cell_length_b   8.02414268
_cell_length_c   5.58503247
_cell_angle_alpha   90.13945758
_cell_angle_beta   89.84311537
_cell_angle_gamma   119.97172524
_symmetry_Int_Tables_number   1
_chemical_formula_structural   Zr10AlSi4AsO
_chemical_formula_sum   'Zr10 Al1 Si4 As1 O1'
_cell_volume   312.26772088
_cell_formula_units_Z   1
loop_
 _symmetry_equiv_pos_site_id
 _symmetry_equiv_pos_as_xyz
  1  'x, y, z'
loop_
 _atom_site_type_symbol
 _atom_site_label
 _atom_site_symmetry_multiplicity
 _atom_site_fract_x
 _atom_site_fract_y
 _atom_site_fract_z
 _atom_site_occupancy
  Zr  Zr0  1  0.000920  0.757269  0.254340  1
  Zr  Zr1  1  0.248878  0.244792  0.253125  1
  Zr  Zr2  1  0.755834  0.996942  0.253625  1
  Zr  Zr3  1  0.002936  0.245862  0.745626  1
  Zr  Zr4  1  0.755385  0.752934  0.745778  1
  Zr  Zr5  1  0.241553  0.000197  0.748052  1
  Zr  Zr6  1  0.330642  0.662769  0.500496  1
  Zr  Zr7  1  0.665725  0.337376  0.500479  1
  Zr  Zr8  1  0.666081  0.337645  0.000283  1
  Zr  Zr9  1  0.330389  0.662815  0.000159  1
  Al  Al10  1  0.601952  0.000134  0.754227  1
  Si  Si11  1  0.605175  0.606537  0.245168  1
  Si  Si12  1  0.399254  0.999787  0.245318  1
  Si  Si13  1  0.000025  0.607040  0.754277  1
  Si  Si14  1  0.394842  0.394851  0.755382  1
  As  As15  1  0.998151  0.391779  0.245373  1
  O  O16  1  0.002257  0.001271  0.498294  1
