# generated using pymatgen
data_Li2Dy3Y2P12Ir17
_symmetry_space_group_name_H-M   'P 1'
_cell_length_a   12.66666700
_cell_length_b   12.76829347
_cell_length_c   3.96272300
_cell_angle_alpha   90.00000000
_cell_angle_beta   90.00000000
_cell_angle_gamma   119.73705902
_symmetry_Int_Tables_number   1
_chemical_formula_structural   Li2Dy3Y2P12Ir17
_chemical_formula_sum   'Li2 Dy3 Y2 P12 Ir17'
_cell_volume   556.49871049
_cell_formula_units_Z   1
loop_
 _symmetry_equiv_pos_site_id
 _symmetry_equiv_pos_as_xyz
  1  'x, y, z'
loop_
 _atom_site_type_symbol
 _atom_site_label
 _atom_site_symmetry_multiplicity
 _atom_site_fract_x
 _atom_site_fract_y
 _atom_site_fract_z
 _atom_site_occupancy
  Li  Li0  1  0.999712  0.442263  0.500000  1
  Li  Li1  1  0.557449  0.557737  0.500000  1
  Dy  Dy2  1  0.332457  0.662512  0.500000  1
  Dy  Dy3  1  0.669946  0.337488  0.500000  1
  Dy  Dy4  1  0.811210  0.000000  0.000000  1
  Y  Y5  1  0.001709  0.809141  0.000000  1
  Y  Y6  1  0.192568  0.190859  0.000000  1
  P  P7  1  0.999440  0.630431  0.500000  1
  P  P8  1  0.369009  0.369569  0.500000  1
  P  P9  1  0.639952  0.000000  0.500000  1
  P  P10  1  0.513432  0.683178  0.000000  1
  P  P11  1  0.307334  0.823312  0.000000  1
  P  P12  1  0.166906  0.479989  0.000000  1
  P  P13  1  0.484022  0.176688  0.000000  1
  P  P14  1  0.686916  0.520011  0.000000  1
  P  P15  1  0.830254  0.316822  0.000000  1
  P  P16  1  0.997610  0.178008  0.500000  1
  P  P17  1  0.819602  0.821992  0.500000  1
  P  P18  1  0.178403  0.000000  0.500000  1
  Ir  Ir19  1  0.503658  0.865385  0.000000  1
  Ir  Ir20  1  0.129572  0.638924  0.000000  1
  Ir  Ir21  1  0.356069  0.487724  0.000000  1
  Ir  Ir22  1  0.490649  0.361076  0.000000  1
  Ir  Ir23  1  0.868346  0.512276  0.000000  1
  Ir  Ir24  1  0.638274  0.134615  0.000000  1
  Ir  Ir25  1  0.459139  0.000000  0.500000  1
  Ir  Ir26  1  0.996276  0.277732  0.000000  1
  Ir  Ir27  1  0.718545  0.722268  0.000000  1
  Ir  Ir28  1  0.286927  0.000000  0.000000  1
  Ir  Ir29  1  0.621987  0.806968  0.500000  1
  Ir  Ir30  1  0.199629  0.823524  0.500000  1
  Ir  Ir31  1  0.177007  0.370610  0.500000  1
  Ir  Ir32  1  0.376106  0.176476  0.500000  1
  Ir  Ir33  1  0.806397  0.629390  0.500000  1
  Ir  Ir34  1  0.815020  0.193032  0.500000  1
  Ir  Ir35  1  0.998468  0.000000  0.500000  1
