# generated using pymatgen
data_HoTh13Au20
_symmetry_space_group_name_H-M   'P 1'
_cell_length_a   8.96680040
_cell_length_b   8.96680047
_cell_length_c   10.76505786
_cell_angle_alpha   89.95966992
_cell_angle_beta   89.95967433
_cell_angle_gamma   106.43656006
_symmetry_Int_Tables_number   1
_chemical_formula_structural   HoTh13Au20
_chemical_formula_sum   'Ho1 Th13 Au20'
_cell_volume   830.17603273
_cell_formula_units_Z   1
loop_
 _symmetry_equiv_pos_site_id
 _symmetry_equiv_pos_as_xyz
  1  'x, y, z'
loop_
 _atom_site_type_symbol
 _atom_site_label
 _atom_site_symmetry_multiplicity
 _atom_site_fract_x
 _atom_site_fract_y
 _atom_site_fract_z
 _atom_site_occupancy
  Ho  Ho0  1  0.000000  0.000000  0.000000  1
  Th  Th1  1  0.691873  0.308127  0.000000  1
  Th  Th2  1  0.308127  0.691873  0.000000  1
  Th  Th3  1  0.809820  0.190180  0.500000  1
  Th  Th4  1  0.190180  0.809820  0.500000  1
  Th  Th5  1  0.500000  0.500000  0.500000  1
  Th  Th6  1  0.001689  0.502099  0.249191  1
  Th  Th7  1  0.998311  0.497901  0.750809  1
  Th  Th8  1  0.497901  0.998311  0.750809  1
  Th  Th9  1  0.502099  0.001689  0.249191  1
  Th  Th10  1  0.304801  0.304801  0.191452  1
  Th  Th11  1  0.695199  0.695199  0.808548  1
  Th  Th12  1  0.192308  0.192308  0.695042  1
  Th  Th13  1  0.807692  0.807692  0.304958  1
  Au  Au14  1  0.859337  0.147990  0.205455  1
  Au  Au15  1  0.140663  0.852010  0.794545  1
  Au  Au16  1  0.643689  0.349977  0.708021  1
  Au  Au17  1  0.650023  0.356311  0.291979  1
  Au  Au18  1  0.356311  0.650023  0.291979  1
  Au  Au19  1  0.349977  0.643689  0.708021  1
  Au  Au20  1  0.852010  0.140663  0.794545  1
  Au  Au21  1  0.147990  0.859337  0.205455  1
  Au  Au22  1  0.939308  0.649865  0.002292  1
  Au  Au23  1  0.060692  0.350135  0.997708  1
  Au  Au24  1  0.560490  0.854965  0.501859  1
  Au  Au25  1  0.145035  0.439510  0.498141  1
  Au  Au26  1  0.439510  0.145035  0.498141  1
  Au  Au27  1  0.854965  0.560490  0.501859  1
  Au  Au28  1  0.350135  0.060692  0.997708  1
  Au  Au29  1  0.649865  0.939308  0.002292  1
  Au  Au30  1  0.099883  0.099883  0.399944  1
  Au  Au31  1  0.900117  0.900117  0.600056  1
  Au  Au32  1  0.401214  0.401214  0.899677  1
  Au  Au33  1  0.598786  0.598786  0.100323  1
