# generated using pymatgen
data_Nd3Sm3(Sn3Hg2)2
_symmetry_space_group_name_H-M   'P 1'
_cell_length_a   6.57949057
_cell_length_b   6.57948983
_cell_length_c   10.37883803
_cell_angle_alpha   89.94566746
_cell_angle_beta   89.94566782
_cell_angle_gamma   102.96257264
_symmetry_Int_Tables_number   1
_chemical_formula_structural   Nd3Sm3(Sn3Hg2)2
_chemical_formula_sum   'Nd3 Sm3 Sn6 Hg4'
_cell_volume   437.84667048
_cell_formula_units_Z   1
loop_
 _symmetry_equiv_pos_site_id
 _symmetry_equiv_pos_as_xyz
  1  'x, y, z'
loop_
 _atom_site_type_symbol
 _atom_site_label
 _atom_site_symmetry_multiplicity
 _atom_site_fract_x
 _atom_site_fract_y
 _atom_site_fract_z
 _atom_site_occupancy
  Nd  Nd0  1  0.796039  0.203961  0.000000  1
  Nd  Nd1  1  0.203986  0.796014  0.000000  1
  Nd  Nd2  1  0.204478  0.795522  0.500000  1
  Sm  Sm3  1  0.626105  0.625717  0.250098  1
  Sm  Sm4  1  0.374283  0.373895  0.749902  1
  Sm  Sm5  1  0.795673  0.204327  0.500000  1
  Sn  Sn6  1  0.065797  0.491834  0.250610  1
  Sn  Sn7  1  0.932668  0.505806  0.748888  1
  Sn  Sn8  1  0.494194  0.067332  0.251112  1
  Sn  Sn9  1  0.508166  0.934203  0.749390  1
  Sn  Sn10  1  0.014936  0.016047  0.250990  1
  Sn  Sn11  1  0.983953  0.985064  0.749010  1
  Hg  Hg12  1  0.313316  0.313435  0.041557  1
  Hg  Hg13  1  0.686565  0.686684  0.958443  1
  Hg  Hg14  1  0.686735  0.686894  0.541315  1
  Hg  Hg15  1  0.313106  0.313265  0.458685  1
