# generated using pymatgen
data_La6Nd3HoC4I15
_symmetry_space_group_name_H-M   'P 1'
_cell_length_a   9.86747118
_cell_length_b   10.75974598
_cell_length_c   11.87108519
_cell_angle_alpha   93.56256508
_cell_angle_beta   114.22569847
_cell_angle_gamma   109.55513659
_symmetry_Int_Tables_number   1
_chemical_formula_structural   La6Nd3HoC4I15
_chemical_formula_sum   'La6 Nd3 Ho1 C4 I15'
_cell_volume   1053.49531304
_cell_formula_units_Z   1
loop_
 _symmetry_equiv_pos_site_id
 _symmetry_equiv_pos_as_xyz
  1  'x, y, z'
loop_
 _atom_site_type_symbol
 _atom_site_label
 _atom_site_symmetry_multiplicity
 _atom_site_fract_x
 _atom_site_fract_y
 _atom_site_fract_z
 _atom_site_occupancy
  La  La0  1  0.220801  0.112753  0.743310  1
  La  La1  1  0.401617  0.458489  0.654772  1
  La  La2  1  0.472871  0.816042  0.897616  1
  La  La3  1  0.706454  0.568492  0.046180  1
  La  La4  1  0.294662  0.432929  0.957007  1
  La  La5  1  0.658559  0.254807  0.833800  1
  Nd  Nd6  1  0.347322  0.745469  0.164562  1
  Nd  Nd7  1  0.774754  0.881354  0.256874  1
  Nd  Nd8  1  0.528499  0.187889  0.101173  1
  Ho  Ho9  1  0.592715  0.545588  0.333130  1
  C  C10  1  0.482576  0.300985  0.937059  1
  C  C11  1  0.518735  0.699963  0.062886  1
  C  C12  1  0.452428  0.361378  0.832650  1
  C  C13  1  0.546591  0.636844  0.165722  1
  I  I14  1  0.209560  0.908113  0.944357  1
  I  I15  1  0.100331  0.183917  0.466451  1
  I  I16  1  0.149611  0.555259  0.703176  1
  I  I17  1  0.403786  0.966865  0.643573  1
  I  I18  1  0.717096  0.735489  0.821811  1
  I  I19  1  0.301059  0.273421  0.188958  1
  I  I20  1  0.835536  0.445156  0.303053  1
  I  I21  1  0.881916  0.798895  0.524212  1
  I  I22  1  0.368993  0.628632  0.409778  1
  I  I23  1  0.054107  0.834149  0.223888  1
  I  I24  1  0.795075  0.097599  0.068460  1
  I  I25  1  0.643654  0.375518  0.582366  1
  I  I26  1  0.941984  0.164087  0.779713  1
  I  I27  1  0.593785  0.027878  0.348440  1
  I  I28  1  0.004921  0.502038  0.005023  1
