# generated using pymatgen
data_TbYB4Ir5
_symmetry_space_group_name_H-M   'P 1'
_cell_length_a   7.52562518
_cell_length_b   6.34437049
_cell_length_c   5.61699027
_cell_angle_alpha   77.72949635
_cell_angle_beta   55.48200102
_cell_angle_gamma   46.81517475
_symmetry_Int_Tables_number   1
_chemical_formula_structural   TbYB4Ir5
_chemical_formula_sum   'Tb1 Y1 B4 Ir5'
_cell_volume   154.11163262
_cell_formula_units_Z   1
loop_
 _symmetry_equiv_pos_site_id
 _symmetry_equiv_pos_as_xyz
  1  'x, y, z'
loop_
 _atom_site_type_symbol
 _atom_site_label
 _atom_site_symmetry_multiplicity
 _atom_site_fract_x
 _atom_site_fract_y
 _atom_site_fract_z
 _atom_site_occupancy
  Tb  Tb0  1  0.859231  0.859207  0.140767  1
  Y  Y1  1  0.140907  0.140926  0.859100  1
  B  B2  1  0.478267  0.788466  0.211650  1
  B  B3  1  0.211504  0.521517  0.478460  1
  B  B4  1  0.788340  0.478419  0.521663  1
  B  B5  1  0.521673  0.211375  0.788441  1
  Ir  Ir6  1  0.500081  0.500073  0.999913  1
  Ir  Ir7  1  0.250122  0.249920  0.250047  1
  Ir  Ir8  1  0.000098  0.000081  0.499905  1
  Ir  Ir9  1  0.500122  0.500142  0.499877  1
  Ir  Ir10  1  0.749660  0.749870  0.750173  1
