# generated using pymatgen
data_Bi4IrRh3O14
_symmetry_space_group_name_H-M   'P 1'
_cell_length_a   7.37037440
_cell_length_b   7.37037526
_cell_length_c   7.35394519
_cell_angle_alpha   59.92606564
_cell_angle_beta   59.92606065
_cell_angle_gamma   59.99999649
_symmetry_Int_Tables_number   1
_chemical_formula_structural   Bi4IrRh3O14
_chemical_formula_sum   'Bi4 Ir1 Rh3 O14'
_cell_volume   282.16183820
_cell_formula_units_Z   1
loop_
 _symmetry_equiv_pos_site_id
 _symmetry_equiv_pos_as_xyz
  1  'x, y, z'
loop_
 _atom_site_type_symbol
 _atom_site_label
 _atom_site_symmetry_multiplicity
 _atom_site_fract_x
 _atom_site_fract_y
 _atom_site_fract_z
 _atom_site_occupancy
  Bi  Bi0  1  0.625000  0.125000  0.125000  1
  Bi  Bi1  1  0.125000  0.625000  0.125000  1
  Bi  Bi2  1  0.125000  0.125000  0.625000  1
  Bi  Bi3  1  0.125000  0.125000  0.125000  1
  Ir  Ir4  1  0.625000  0.625000  0.125000  1
  Rh  Rh5  1  0.125000  0.625000  0.625000  1
  Rh  Rh6  1  0.625000  0.125000  0.625000  1
  Rh  Rh7  1  0.625000  0.625000  0.625000  1
  O  O8  1  0.705704  0.705704  0.291058  1
  O  O9  1  0.291985  0.291985  0.709558  1
  O  O10  1  0.706472  0.291985  0.709558  1
  O  O11  1  0.297534  0.705704  0.291058  1
  O  O12  1  0.291985  0.706472  0.709558  1
  O  O13  1  0.705704  0.297534  0.291058  1
  O  O14  1  0.544296  0.544296  0.958942  1
  O  O15  1  0.958015  0.958015  0.540442  1
  O  O16  1  0.543528  0.958015  0.540442  1
  O  O17  1  0.952466  0.544296  0.958942  1
  O  O18  1  0.958015  0.543528  0.540442  1
  O  O19  1  0.544296  0.952466  0.958942  1
  O  O20  1  0.250828  0.250828  0.247517  1
  O  O21  1  0.999172  0.999172  0.002483  1
