# generated using pymatgen
data_Sc3BeP2Ir2Ru
_symmetry_space_group_name_H-M   'P 1'
_cell_length_a   6.50026579
_cell_length_b   6.50026644
_cell_length_c   3.63547400
_cell_angle_alpha   90.00000000
_cell_angle_beta   90.00000000
_cell_angle_gamma   119.73952315
_symmetry_Int_Tables_number   1
_chemical_formula_structural   Sc3BeP2Ir2Ru
_chemical_formula_sum   'Sc3 Be1 P2 Ir2 Ru1'
_cell_volume   133.37913110
_cell_formula_units_Z   1
loop_
 _symmetry_equiv_pos_site_id
 _symmetry_equiv_pos_as_xyz
  1  'x, y, z'
loop_
 _atom_site_type_symbol
 _atom_site_label
 _atom_site_symmetry_multiplicity
 _atom_site_fract_x
 _atom_site_fract_y
 _atom_site_fract_z
 _atom_site_occupancy
  Sc  Sc0  1  0.409328  0.409328  0.500000  1
  Sc  Sc1  1  0.592489  0.998846  0.500000  1
  Sc  Sc2  1  0.998846  0.592489  0.500000  1
  Be  Be3  1  0.003102  0.003102  0.500000  1
  P  P4  1  0.666496  0.333448  0.000000  1
  P  P5  1  0.333448  0.666496  0.000000  1
  Ir  Ir6  1  0.998450  0.241213  0.000000  1
  Ir  Ir7  1  0.241213  0.998450  0.000000  1
  Ru  Ru8  1  0.756626  0.756626  0.000000  1
