# generated using pymatgen
data_Tb3Y5Nb12Si15Ge
_symmetry_space_group_name_H-M   'P 1'
_cell_length_a   6.89995938
_cell_length_b   7.09836654
_cell_length_c   13.47897008
_cell_angle_alpha   90.03541485
_cell_angle_beta   89.91874030
_cell_angle_gamma   90.02510018
_symmetry_Int_Tables_number   1
_chemical_formula_structural   Tb3Y5Nb12Si15Ge
_chemical_formula_sum   'Tb3 Y5 Nb12 Si15 Ge1'
_cell_volume   660.17808479
_cell_formula_units_Z   1
loop_
 _symmetry_equiv_pos_site_id
 _symmetry_equiv_pos_as_xyz
  1  'x, y, z'
loop_
 _atom_site_type_symbol
 _atom_site_label
 _atom_site_symmetry_multiplicity
 _atom_site_fract_x
 _atom_site_fract_y
 _atom_site_fract_z
 _atom_site_occupancy
  Tb  Tb0  1  0.503505  0.328959  0.095924  1
  Tb  Tb1  1  0.002447  0.170681  0.403654  1
  Tb  Tb2  1  0.499671  0.673138  0.596694  1
  Y  Y3  1  0.996426  0.828639  0.904497  1
  Y  Y4  1  0.496386  0.671012  0.904319  1
  Y  Y5  1  0.996489  0.829620  0.596185  1
  Y  Y6  1  0.503935  0.327513  0.403132  1
  Y  Y7  1  0.003373  0.171536  0.095714  1
  Nb  Nb8  1  0.664167  0.008859  0.750201  1
  Nb  Nb9  1  0.164106  0.490253  0.751920  1
  Nb  Nb10  1  0.335510  0.991187  0.249704  1
  Nb  Nb11  1  0.835801  0.509176  0.249880  1
  Nb  Nb12  1  0.836071  0.324059  0.625905  1
  Nb  Nb13  1  0.337625  0.175376  0.874794  1
  Nb  Nb14  1  0.162288  0.675627  0.125265  1
  Nb  Nb15  1  0.661913  0.824934  0.374092  1
  Nb  Nb16  1  0.160578  0.678035  0.372904  1
  Nb  Nb17  1  0.661379  0.824239  0.125225  1
  Nb  Nb18  1  0.837697  0.324225  0.874795  1
  Nb  Nb19  1  0.340359  0.171823  0.626720  1
  Si  Si20  1  0.797098  0.624532  0.750312  1
  Si  Si21  1  0.295766  0.874349  0.750660  1
  Si  Si22  1  0.203397  0.375510  0.249710  1
  Si  Si23  1  0.703582  0.124540  0.249485  1
  Si  Si24  1  0.542659  0.375670  0.750426  1
  Si  Si25  1  0.042625  0.124552  0.750114  1
  Si  Si26  1  0.456947  0.624481  0.249897  1
  Si  Si27  1  0.956328  0.876065  0.248971  1
  Si  Si28  1  0.663128  0.037720  0.540143  1
  Si  Si29  1  0.162177  0.462948  0.959501  1
  Si  Si30  1  0.337233  0.963045  0.040575  1
  Si  Si31  1  0.833623  0.538013  0.458645  1
  Si  Si32  1  0.337122  0.962481  0.459552  1
  Si  Si33  1  0.837830  0.537093  0.040751  1
  Si  Si34  1  0.662338  0.036963  0.959461  1
  Ge  Ge35  1  0.168420  0.463148  0.540273  1
