# generated using pymatgen
data_Hf8Ta12Ga7Ge9
_symmetry_space_group_name_H-M   'P 1'
_cell_length_a   6.86341242
_cell_length_b   6.96251446
_cell_length_c   13.19084900
_cell_angle_alpha   90.00000000
_cell_angle_beta   90.00000000
_cell_angle_gamma   90.09626647
_symmetry_Int_Tables_number   1
_chemical_formula_structural   Hf8Ta12Ga7Ge9
_chemical_formula_sum   'Hf8 Ta12 Ga7 Ge9'
_cell_volume   630.34504341
_cell_formula_units_Z   1
loop_
 _symmetry_equiv_pos_site_id
 _symmetry_equiv_pos_as_xyz
  1  'x, y, z'
loop_
 _atom_site_type_symbol
 _atom_site_label
 _atom_site_symmetry_multiplicity
 _atom_site_fract_x
 _atom_site_fract_y
 _atom_site_fract_z
 _atom_site_occupancy
  Hf  Hf0  1  0.488324  0.677129  0.590429  1
  Hf  Hf1  1  0.988819  0.823129  0.909319  1
  Hf  Hf2  1  0.511742  0.323071  0.091290  1
  Hf  Hf3  1  0.011627  0.177215  0.408799  1
  Hf  Hf4  1  0.511742  0.323071  0.408710  1
  Hf  Hf5  1  0.011627  0.177215  0.091201  1
  Hf  Hf6  1  0.488324  0.677129  0.909571  1
  Hf  Hf7  1  0.988819  0.823129  0.590681  1
  Ta  Ta8  1  0.655859  0.168285  0.625635  1
  Ta  Ta9  1  0.155832  0.331467  0.874437  1
  Ta  Ta10  1  0.343735  0.832320  0.124919  1
  Ta  Ta11  1  0.843384  0.667493  0.374603  1
  Ta  Ta12  1  0.343735  0.832320  0.375081  1
  Ta  Ta13  1  0.843384  0.667493  0.125397  1
  Ta  Ta14  1  0.655859  0.168285  0.874365  1
  Ta  Ta15  1  0.155832  0.331467  0.625563  1
  Ta  Ta16  1  0.836659  0.485878  0.750000  1
  Ta  Ta17  1  0.336564  0.013605  0.750000  1
  Ta  Ta18  1  0.162765  0.511565  0.250000  1
  Ta  Ta19  1  0.664945  0.988045  0.250000  1
  Ga  Ga20  1  0.458063  0.396181  0.750000  1
  Ga  Ga21  1  0.958115  0.103766  0.750000  1
  Ga  Ga22  1  0.538964  0.606969  0.250000  1
  Ga  Ga23  1  0.042567  0.894031  0.250000  1
  Ga  Ga24  1  0.697802  0.848065  0.750000  1
  Ga  Ga25  1  0.197910  0.651472  0.750000  1
  Ga  Ga26  1  0.302591  0.150124  0.250000  1
  Ge  Ge27  1  0.685232  0.962573  0.460160  1
  Ge  Ge28  1  0.185088  0.536999  0.039908  1
  Ge  Ge29  1  0.315027  0.037155  0.959717  1
  Ge  Ge30  1  0.815451  0.463354  0.540536  1
  Ge  Ge31  1  0.315027  0.037155  0.540283  1
  Ge  Ge32  1  0.815451  0.463354  0.959464  1
  Ge  Ge33  1  0.685232  0.962573  0.039840  1
  Ge  Ge34  1  0.185088  0.536999  0.460092  1
  Ge  Ge35  1  0.802814  0.349916  0.250000  1
