# generated using pymatgen
data_Mn2NbClO4
_symmetry_space_group_name_H-M   'P 1'
_cell_length_a   7.03667600
_cell_length_b   5.30054875
_cell_length_c   7.45475000
_cell_angle_alpha   87.78910095
_cell_angle_beta   90.00000000
_cell_angle_gamma   90.00000000
_symmetry_Int_Tables_number   1
_chemical_formula_structural   Mn2NbClO4
_chemical_formula_sum   'Mn4 Nb2 Cl2 O8'
_cell_volume   277.84210490
_cell_formula_units_Z   2
loop_
 _symmetry_equiv_pos_site_id
 _symmetry_equiv_pos_as_xyz
  1  'x, y, z'
loop_
 _atom_site_type_symbol
 _atom_site_label
 _atom_site_symmetry_multiplicity
 _atom_site_fract_x
 _atom_site_fract_y
 _atom_site_fract_z
 _atom_site_occupancy
  Mn  Mn0  1  0.000000  0.000000  0.000000  1
  Mn  Mn1  1  0.250000  0.349469  0.731873  1
  Mn  Mn2  1  0.500000  0.000000  0.000000  1
  Mn  Mn3  1  0.750000  0.650531  0.268127  1
  Nb  Nb4  1  0.750000  0.509582  0.766949  1
  Nb  Nb5  1  0.250000  0.490418  0.233051  1
  Cl  Cl6  1  0.250000  0.827692  0.767493  1
  Cl  Cl7  1  0.750000  0.172308  0.232507  1
  O  O8  1  0.034185  0.696521  0.193155  1
  O  O9  1  0.250000  0.357834  0.461448  1
  O  O10  1  0.465815  0.696521  0.193155  1
  O  O11  1  0.965815  0.303479  0.806845  1
  O  O12  1  0.750000  0.642166  0.538552  1
  O  O13  1  0.250000  0.217418  0.071013  1
  O  O14  1  0.534185  0.303479  0.806845  1
  O  O15  1  0.750000  0.782582  0.928987  1
