# generated using pymatgen
data_Gd5MoWC7
_symmetry_space_group_name_H-M   'P 1'
_cell_length_a   8.51736838
_cell_length_b   8.51736660
_cell_length_c   3.45711600
_cell_angle_alpha   90.00000000
_cell_angle_beta   90.00000000
_cell_angle_gamma   123.41848802
_symmetry_Int_Tables_number   1
_chemical_formula_structural   Gd5MoWC7
_chemical_formula_sum   'Gd5 Mo1 W1 C7'
_cell_volume   209.33393034
_cell_formula_units_Z   1
loop_
 _symmetry_equiv_pos_site_id
 _symmetry_equiv_pos_as_xyz
  1  'x, y, z'
loop_
 _atom_site_type_symbol
 _atom_site_label
 _atom_site_symmetry_multiplicity
 _atom_site_fract_x
 _atom_site_fract_y
 _atom_site_fract_z
 _atom_site_occupancy
  Gd  Gd0  1  0.500154  0.499846  0.000000  1
  Gd  Gd1  1  0.070998  0.329031  0.500000  1
  Gd  Gd2  1  0.928492  0.670297  0.500000  1
  Gd  Gd3  1  0.670969  0.929002  0.500000  1
  Gd  Gd4  1  0.329703  0.071508  0.500000  1
  Mo  Mo5  1  0.712356  0.287644  0.000000  1
  W  W6  1  0.287670  0.712330  0.000000  1
  C  C7  1  0.627054  0.372946  0.500000  1
  C  C8  1  0.372691  0.627309  0.500000  1
  C  C9  1  0.999947  0.000053  0.000000  1
  C  C10  1  0.167639  0.167795  0.000000  1
  C  C11  1  0.832205  0.832361  0.000000  1
  C  C12  1  0.000849  0.500727  0.000000  1
  C  C13  1  0.499273  0.999151  0.000000  1
