# generated using pymatgen
data_PrU(P2O7)2
_symmetry_space_group_name_H-M   'P 1'
_cell_length_a   9.03668243
_cell_length_b   5.36204173
_cell_length_c   7.47466400
_cell_angle_alpha   71.42417893
_cell_angle_beta   90.57495536
_cell_angle_gamma   90.66569226
_symmetry_Int_Tables_number   1
_chemical_formula_structural   PrU(P2O7)2
_chemical_formula_sum   'Pr1 U1 P4 O14'
_cell_volume   343.28572153
_cell_formula_units_Z   1
loop_
 _symmetry_equiv_pos_site_id
 _symmetry_equiv_pos_as_xyz
  1  'x, y, z'
loop_
 _atom_site_type_symbol
 _atom_site_label
 _atom_site_symmetry_multiplicity
 _atom_site_fract_x
 _atom_site_fract_y
 _atom_site_fract_z
 _atom_site_occupancy
  Pr  Pr0  1  0.545406  0.801096  0.726378  1
  U  U1  1  0.048201  0.196427  0.285685  1
  P  P2  1  0.266749  0.765428  0.097566  1
  P  P3  1  0.785199  0.237928  0.903347  1
  P  P4  1  0.371350  0.411010  0.464830  1
  P  P5  1  0.868430  0.591198  0.531997  1
  O  O6  1  0.367916  0.580400  0.591301  1
  O  O7  1  0.657364  0.407586  0.920226  1
  O  O8  1  0.137429  0.567742  0.102149  1
  O  O9  1  0.216277  0.270449  0.463012  1
  O  O10  1  0.886427  0.165936  0.085170  1
  O  O11  1  0.206452  0.988405  0.166487  1
  O  O12  1  0.344339  0.863961  0.911814  1
  O  O13  1  0.988137  0.813743  0.484031  1
  O  O14  1  0.388036  0.605467  0.247639  1
  O  O15  1  0.898179  0.409657  0.410401  1
  O  O16  1  0.493613  0.212695  0.497815  1
  O  O17  1  0.745137  0.996415  0.850762  1
  O  O18  1  0.714073  0.697472  0.512906  1
  O  O19  1  0.903011  0.416988  0.746484  1
