# generated using pymatgen
data_TbLu7Al4
_symmetry_space_group_name_H-M   'P 1'
_cell_length_a   5.00937600
_cell_length_b   6.46297699
_cell_length_c   9.22138768
_cell_angle_alpha   90.34245522
_cell_angle_beta   90.00000000
_cell_angle_gamma   90.00000000
_symmetry_Int_Tables_number   1
_chemical_formula_structural   TbLu7Al4
_chemical_formula_sum   'Tb1 Lu7 Al4'
_cell_volume   298.54153658
_cell_formula_units_Z   1
loop_
 _symmetry_equiv_pos_site_id
 _symmetry_equiv_pos_as_xyz
  1  'x, y, z'
loop_
 _atom_site_type_symbol
 _atom_site_label
 _atom_site_symmetry_multiplicity
 _atom_site_fract_x
 _atom_site_fract_y
 _atom_site_fract_z
 _atom_site_occupancy
  Tb  Tb0  1  0.250000  0.812119  0.927691  1
  Lu  Lu1  1  0.250000  0.312758  0.572068  1
  Lu  Lu2  1  0.750000  0.190578  0.071956  1
  Lu  Lu3  1  0.750000  0.686525  0.428685  1
  Lu  Lu4  1  0.250000  0.973392  0.288223  1
  Lu  Lu5  1  0.250000  0.471560  0.214140  1
  Lu  Lu6  1  0.750000  0.027625  0.711501  1
  Lu  Lu7  1  0.750000  0.524172  0.786162  1
  Al  Al8  1  0.250000  0.292881  0.897551  1
  Al  Al9  1  0.250000  0.790928  0.598858  1
  Al  Al10  1  0.750000  0.708253  0.105554  1
  Al  Al11  1  0.750000  0.209208  0.397610  1
