# generated using pymatgen
data_SmZr2Al6Cu2Ag
_symmetry_space_group_name_H-M   'P 1'
_cell_length_a   8.84485187
_cell_length_b   8.84485289
_cell_length_c   8.84485301
_cell_angle_alpha   35.57769644
_cell_angle_beta   35.57767319
_cell_angle_gamma   35.57768601
_symmetry_Int_Tables_number   1
_chemical_formula_structural   SmZr2Al6Cu2Ag
_chemical_formula_sum   'Sm1 Zr2 Al6 Cu2 Ag1'
_cell_volume   209.34078025
_cell_formula_units_Z   1
loop_
 _symmetry_equiv_pos_site_id
 _symmetry_equiv_pos_as_xyz
  1  'x, y, z'
loop_
 _atom_site_type_symbol
 _atom_site_label
 _atom_site_symmetry_multiplicity
 _atom_site_fract_x
 _atom_site_fract_y
 _atom_site_fract_z
 _atom_site_occupancy
  Sm  Sm0  1  0.000000  0.000000  0.000000  1
  Zr  Zr1  1  0.857723  0.857723  0.857723  1
  Zr  Zr2  1  0.142277  0.142277  0.142277  1
  Al  Al3  1  0.413347  0.413347  0.924630  1
  Al  Al4  1  0.924630  0.413347  0.413347  1
  Al  Al5  1  0.413347  0.924630  0.413347  1
  Al  Al6  1  0.586653  0.075370  0.586653  1
  Al  Al7  1  0.075370  0.586653  0.586653  1
  Al  Al8  1  0.586653  0.586653  0.075370  1
  Cu  Cu9  1  0.665017  0.665017  0.665017  1
  Cu  Cu10  1  0.334983  0.334983  0.334983  1
  Ag  Ag11  1  0.500000  0.500000  0.500000  1
