# generated using pymatgen
data_Sr3NdSi10NiPt5
_symmetry_space_group_name_H-M   'P 1'
_cell_length_a   8.34206061
_cell_length_b   8.33886495
_cell_length_c   8.33875012
_cell_angle_alpha   138.08456056
_cell_angle_beta   105.17492410
_cell_angle_gamma   89.66005436
_symmetry_Int_Tables_number   1
_chemical_formula_structural   Sr3NdSi10NiPt5
_chemical_formula_sum   'Sr3 Nd1 Si10 Ni1 Pt5'
_cell_volume   357.59047411
_cell_formula_units_Z   1
loop_
 _symmetry_equiv_pos_site_id
 _symmetry_equiv_pos_as_xyz
  1  'x, y, z'
loop_
 _atom_site_type_symbol
 _atom_site_label
 _atom_site_symmetry_multiplicity
 _atom_site_fract_x
 _atom_site_fract_y
 _atom_site_fract_z
 _atom_site_occupancy
  Sr  Sr0  1  0.634013  0.866938  0.761068  1
  Sr  Sr1  1  0.365511  0.126539  0.233444  1
  Sr  Sr2  1  0.107569  0.374326  0.738681  1
  Nd  Nd3  1  0.894373  0.630832  0.266918  1
  Si  Si4  1  0.271055  0.021954  0.750038  1
  Si  Si5  1  0.726427  0.974712  0.248773  1
  Si  Si6  1  0.727141  0.478848  0.751473  1
  Si  Si7  1  0.271478  0.522729  0.249563  1
  Si  Si8  1  0.463447  0.598066  0.843235  1
  Si  Si9  1  0.538583  0.381065  0.134549  1
  Si  Si10  1  0.753094  0.121071  0.657451  1
  Si  Si11  1  0.245656  0.900545  0.366072  1
  Si  Si12  1  0.000537  0.751812  0.750473  1
  Si  Si13  1  0.000223  0.249854  0.248465  1
  Ni  Ni14  1  0.501600  0.251980  0.753037  1
  Pt  Pt15  1  0.245952  0.633380  0.608853  1
  Pt  Pt16  1  0.753517  0.363231  0.386751  1
  Pt  Pt17  1  0.021217  0.137546  0.886674  1
  Pt  Pt18  1  0.976438  0.865580  0.114316  1
  Pt  Pt19  1  0.502171  0.748992  0.250164  1
