# generated using pymatgen
data_RbAg5Te8
_symmetry_space_group_name_H-M   'P 1'
_cell_length_a   12.42720423
_cell_length_b   12.42720514
_cell_length_c   10.64333118
_cell_angle_alpha   92.67404513
_cell_angle_beta   92.67404489
_cell_angle_gamma   14.31258425
_symmetry_Int_Tables_number   1
_chemical_formula_structural   RbAg5Te8
_chemical_formula_sum   'Rb1 Ag5 Te8'
_cell_volume   405.89445604
_cell_formula_units_Z   1
loop_
 _symmetry_equiv_pos_site_id
 _symmetry_equiv_pos_as_xyz
  1  'x, y, z'
loop_
 _atom_site_type_symbol
 _atom_site_label
 _atom_site_symmetry_multiplicity
 _atom_site_fract_x
 _atom_site_fract_y
 _atom_site_fract_z
 _atom_site_occupancy
  Rb  Rb0  1  0.534260  0.534260  0.437537  1
  Ag  Ag1  1  0.294090  0.294090  0.428502  1
  Ag  Ag2  1  0.656733  0.656733  0.985605  1
  Ag  Ag3  1  0.333271  0.333271  0.035686  1
  Ag  Ag4  1  0.659025  0.659025  0.694730  1
  Ag  Ag5  1  0.991964  0.991964  0.972080  1
  Te  Te6  1  0.757988  0.757988  0.192780  1
  Te  Te7  1  0.241660  0.241660  0.855065  1
  Te  Te8  1  0.432519  0.432519  0.170859  1
  Te  Te9  1  0.551818  0.551818  0.771642  1
  Te  Te10  1  0.892863  0.892863  0.817253  1
  Te  Te11  1  0.084026  0.084026  0.142456  1
  Te  Te12  1  0.890469  0.890469  0.526578  1
  Te  Te13  1  0.179314  0.179314  0.469227  1
