# generated using pymatgen
data_Tc2Os5Rh
_symmetry_space_group_name_H-M   'P 1'
_cell_length_a   5.51628517
_cell_length_b   5.51628547
_cell_length_c   4.35895700
_cell_angle_alpha   90.00000000
_cell_angle_beta   90.00000000
_cell_angle_gamma   120.02838065
_symmetry_Int_Tables_number   1
_chemical_formula_structural   Tc2Os5Rh
_chemical_formula_sum   'Tc2 Os5 Rh1'
_cell_volume   114.83714516
_cell_formula_units_Z   1
loop_
 _symmetry_equiv_pos_site_id
 _symmetry_equiv_pos_as_xyz
  1  'x, y, z'
loop_
 _atom_site_type_symbol
 _atom_site_label
 _atom_site_symmetry_multiplicity
 _atom_site_fract_x
 _atom_site_fract_y
 _atom_site_fract_z
 _atom_site_occupancy
  Tc  Tc0  1  0.337058  0.662942  0.750000  1
  Tc  Tc1  1  0.665687  0.334313  0.250000  1
  Os  Os2  1  0.168368  0.332762  0.250000  1
  Os  Os3  1  0.667238  0.831632  0.250000  1
  Os  Os4  1  0.166749  0.833251  0.250000  1
  Os  Os5  1  0.825000  0.663077  0.750000  1
  Os  Os6  1  0.336923  0.175000  0.750000  1
  Rh  Rh7  1  0.832977  0.167023  0.750000  1
