# generated using pymatgen
data_Ta8TiCdS16
_symmetry_space_group_name_H-M   'P 1'
_cell_length_a   6.68570600
_cell_length_b   6.68570629
_cell_length_c   12.95015300
_cell_angle_alpha   90.00000000
_cell_angle_beta   90.00000000
_cell_angle_gamma   120.00000844
_symmetry_Int_Tables_number   1
_chemical_formula_structural   Ta8TiCdS16
_chemical_formula_sum   'Ta8 Ti1 Cd1 S16'
_cell_volume   501.30272217
_cell_formula_units_Z   1
loop_
 _symmetry_equiv_pos_site_id
 _symmetry_equiv_pos_as_xyz
  1  'x, y, z'
loop_
 _atom_site_type_symbol
 _atom_site_label
 _atom_site_symmetry_multiplicity
 _atom_site_fract_x
 _atom_site_fract_y
 _atom_site_fract_z
 _atom_site_occupancy
  Ta  Ta0  1  0.505217  0.494783  0.762895  1
  Ta  Ta1  1  0.010435  0.505217  0.237105  1
  Ta  Ta2  1  0.494783  0.989565  0.237105  1
  Ta  Ta3  1  0.505217  0.010435  0.762895  1
  Ta  Ta4  1  0.989565  0.494783  0.762895  1
  Ta  Ta5  1  0.494783  0.505217  0.237105  1
  Ta  Ta6  1  0.000000  0.000000  0.762361  1
  Ta  Ta7  1  0.000000  0.000000  0.237639  1
  Ti  Ti8  1  0.000000  0.000000  0.000000  1
  Cd  Cd9  1  0.000000  0.000000  0.500000  1
  S  S10  1  0.830313  0.169687  0.357682  1
  S  S11  1  0.830313  0.660627  0.357682  1
  S  S12  1  0.339373  0.169687  0.357682  1
  S  S13  1  0.666214  0.833107  0.883448  1
  S  S14  1  0.169687  0.339373  0.642318  1
  S  S15  1  0.166893  0.833107  0.883448  1
  S  S16  1  0.166893  0.333786  0.883448  1
  S  S17  1  0.833107  0.166893  0.116552  1
  S  S18  1  0.333786  0.166893  0.116552  1
  S  S19  1  0.660627  0.830313  0.642318  1
  S  S20  1  0.333333  0.666667  0.113928  1
  S  S21  1  0.666667  0.333333  0.639444  1
  S  S22  1  0.666667  0.333333  0.886072  1
  S  S23  1  0.333333  0.666667  0.360556  1
  S  S24  1  0.833107  0.666214  0.116552  1
  S  S25  1  0.169687  0.830313  0.642318  1
