# generated using pymatgen
data_PrFe3CoB4
_symmetry_space_group_name_H-M   'P 1'
_cell_length_a   7.09155800
_cell_length_b   7.07549871
_cell_length_c   3.80352300
_cell_angle_alpha   90.00000000
_cell_angle_beta   90.00000000
_cell_angle_gamma   89.72636320
_symmetry_Int_Tables_number   1
_chemical_formula_structural   PrFe3CoB4
_chemical_formula_sum   'Pr2 Fe6 Co2 B8'
_cell_volume   190.84457076
_cell_formula_units_Z   2
loop_
 _symmetry_equiv_pos_site_id
 _symmetry_equiv_pos_as_xyz
  1  'x, y, z'
loop_
 _atom_site_type_symbol
 _atom_site_label
 _atom_site_symmetry_multiplicity
 _atom_site_fract_x
 _atom_site_fract_y
 _atom_site_fract_z
 _atom_site_occupancy
  Pr  Pr0  1  0.000000  0.000000  0.998646  1
  Pr  Pr1  1  0.500000  0.500000  0.498680  1
  Fe  Fe2  1  0.887385  0.367642  0.394347  1
  Fe  Fe3  1  0.112615  0.632358  0.394347  1
  Fe  Fe4  1  0.367123  0.112785  0.605411  1
  Fe  Fe5  1  0.632877  0.887215  0.605411  1
  Fe  Fe6  1  0.612091  0.131902  0.105183  1
  Fe  Fe7  1  0.387909  0.868098  0.105183  1
  Co  Co8  1  0.136528  0.387812  0.893957  1
  Co  Co9  1  0.863472  0.612188  0.893957  1
  B  B10  1  0.664917  0.801697  0.106089  1
  B  B11  1  0.335083  0.198303  0.106089  1
  B  B12  1  0.298130  0.835120  0.604143  1
  B  B13  1  0.701870  0.164880  0.604143  1
  B  B14  1  0.837021  0.703364  0.396320  1
  B  B15  1  0.162979  0.296636  0.396320  1
  B  B16  1  0.204753  0.666981  0.895889  1
  B  B17  1  0.795247  0.333019  0.895889  1
