# generated using pymatgen
data_LaHfZr2(Al3Ir)6
_symmetry_space_group_name_H-M   'P 1'
_cell_length_a   7.52196500
_cell_length_b   7.50636188
_cell_length_c   9.35895400
_cell_angle_alpha   90.00000000
_cell_angle_beta   90.00000000
_cell_angle_gamma   119.74135625
_symmetry_Int_Tables_number   1
_chemical_formula_structural   LaHfZr2(Al3Ir)6
_chemical_formula_sum   'La1 Hf1 Zr2 Al18 Ir6'
_cell_volume   458.82254301
_cell_formula_units_Z   1
loop_
 _symmetry_equiv_pos_site_id
 _symmetry_equiv_pos_as_xyz
  1  'x, y, z'
loop_
 _atom_site_type_symbol
 _atom_site_label
 _atom_site_symmetry_multiplicity
 _atom_site_fract_x
 _atom_site_fract_y
 _atom_site_fract_z
 _atom_site_occupancy
  La  La0  1  0.329979  0.006039  0.750000  1
  Hf  Hf1  1  0.993942  0.671765  0.250000  1
  Zr  Zr2  1  0.005332  0.330028  0.750000  1
  Zr  Zr3  1  0.672209  0.994861  0.250000  1
  Al  Al4  1  0.121999  0.124380  0.250000  1
  Al  Al5  1  0.867627  0.874875  0.750000  1
  Al  Al6  1  0.997312  0.334666  0.077453  1
  Al  Al7  1  0.997560  0.660820  0.929711  1
  Al  Al8  1  0.997560  0.660820  0.570289  1
  Al  Al9  1  0.334965  0.997838  0.416350  1
  Al  Al10  1  0.997312  0.334666  0.422547  1
  Al  Al11  1  0.670100  0.001693  0.570227  1
  Al  Al12  1  0.670100  0.001693  0.929773  1
  Al  Al13  1  0.334965  0.997838  0.083650  1
  Al  Al14  1  0.331445  0.335513  0.549208  1
  Al  Al15  1  0.668386  0.668374  0.438711  1
  Al  Al16  1  0.668386  0.668374  0.061289  1
  Al  Al17  1  0.331445  0.335513  0.950792  1
  Al  Al18  1  0.337865  0.553062  0.250000  1
  Al  Al19  1  0.671065  0.457269  0.750000  1
  Al  Al20  1  0.554634  0.340831  0.250000  1
  Al  Al21  1  0.446920  0.650984  0.750000  1
  Ir  Ir22  1  0.673436  0.329334  0.003023  1
  Ir  Ir23  1  0.328095  0.672709  0.003062  1
  Ir  Ir24  1  0.328095  0.672709  0.496938  1
  Ir  Ir25  1  0.673436  0.329334  0.496977  1
  Ir  Ir26  1  0.997917  0.997005  0.003493  1
  Ir  Ir27  1  0.997917  0.997005  0.496507  1
