# generated using pymatgen
data_Tm10IrRu2Rh
_symmetry_space_group_name_H-M   'P 1'
_cell_length_a   6.33065197
_cell_length_b   7.21243173
_cell_length_c   8.36052185
_cell_angle_alpha   96.70315405
_cell_angle_beta   112.27587332
_cell_angle_gamma   89.92844799
_symmetry_Int_Tables_number   1
_chemical_formula_structural   Tm10IrRu2Rh
_chemical_formula_sum   'Tm10 Ir1 Ru2 Rh1'
_cell_volume   350.44827152
_cell_formula_units_Z   1
loop_
 _symmetry_equiv_pos_site_id
 _symmetry_equiv_pos_as_xyz
  1  'x, y, z'
loop_
 _atom_site_type_symbol
 _atom_site_label
 _atom_site_symmetry_multiplicity
 _atom_site_fract_x
 _atom_site_fract_y
 _atom_site_fract_z
 _atom_site_occupancy
  Tm  Tm0  1  0.792926  0.081821  0.815055  1
  Tm  Tm1  1  0.978773  0.417878  0.186415  1
  Tm  Tm2  1  0.209086  0.915449  0.183461  1
  Tm  Tm3  1  0.025855  0.585089  0.816503  1
  Tm  Tm4  1  0.206681  0.181777  0.562531  1
  Tm  Tm5  1  0.645613  0.317369  0.435564  1
  Tm  Tm6  1  0.789945  0.814930  0.438202  1
  Tm  Tm7  1  0.352084  0.685479  0.561759  1
  Tm  Tm8  1  0.422728  0.249398  0.000480  1
  Tm  Tm9  1  0.576795  0.750768  0.000319  1
  Ir  Ir10  1  0.825406  0.076747  0.220934  1
  Ru  Ru11  1  0.394348  0.574796  0.219269  1
  Ru  Ru12  1  0.174972  0.924922  0.780615  1
  Rh  Rh13  1  0.604788  0.423576  0.778894  1
