# generated using pymatgen
data_Nd11Zr(GePd)12
_symmetry_space_group_name_H-M   'P 1'
_cell_length_a   4.50536800
_cell_length_b   7.67411863
_cell_length_c   21.77367893
_cell_angle_alpha   89.85118977
_cell_angle_beta   90.00000000
_cell_angle_gamma   90.00000000
_symmetry_Int_Tables_number   1
_chemical_formula_structural   Nd11Zr(GePd)12
_chemical_formula_sum   'Nd11 Zr1 Ge12 Pd12'
_cell_volume   752.81649784
_cell_formula_units_Z   1
loop_
 _symmetry_equiv_pos_site_id
 _symmetry_equiv_pos_as_xyz
  1  'x, y, z'
loop_
 _atom_site_type_symbol
 _atom_site_label
 _atom_site_symmetry_multiplicity
 _atom_site_fract_x
 _atom_site_fract_y
 _atom_site_fract_z
 _atom_site_occupancy
  Nd  Nd0  1  0.250000  0.711983  0.334809  1
  Nd  Nd1  1  0.750000  0.291538  0.666139  1
  Nd  Nd2  1  0.750000  0.207574  0.167309  1
  Nd  Nd3  1  0.250000  0.792089  0.832675  1
  Nd  Nd4  1  0.250000  0.790297  0.166989  1
  Nd  Nd5  1  0.750000  0.209560  0.833232  1
  Nd  Nd6  1  0.750000  0.291576  0.335232  1
  Nd  Nd7  1  0.250000  0.711738  0.664553  1
  Nd  Nd8  1  0.250000  0.713442  0.001886  1
  Nd  Nd9  1  0.750000  0.286179  0.998385  1
  Nd  Nd10  1  0.750000  0.211576  0.498869  1
  Zr  Zr11  1  0.250000  0.769564  0.502447  1
  Ge  Ge12  1  0.250000  0.088675  0.071636  1
  Ge  Ge13  1  0.750000  0.911321  0.927949  1
  Ge  Ge14  1  0.750000  0.597102  0.433615  1
  Ge  Ge15  1  0.250000  0.415691  0.571559  1
  Ge  Ge16  1  0.250000  0.084194  0.269835  1
  Ge  Ge17  1  0.750000  0.915077  0.729517  1
  Ge  Ge18  1  0.750000  0.584040  0.231685  1
  Ge  Ge19  1  0.250000  0.416019  0.768258  1
  Ge  Ge20  1  0.250000  0.083464  0.401450  1
  Ge  Ge21  1  0.750000  0.911188  0.598023  1
  Ge  Ge22  1  0.750000  0.585609  0.103581  1
  Ge  Ge23  1  0.250000  0.413960  0.896411  1
  Pd  Pd24  1  0.250000  0.417420  0.238556  1
  Pd  Pd25  1  0.750000  0.582479  0.762131  1
  Pd  Pd26  1  0.750000  0.916933  0.264372  1
  Pd  Pd27  1  0.250000  0.082300  0.735608  1
  Pd  Pd28  1  0.250000  0.422470  0.437839  1
  Pd  Pd29  1  0.750000  0.593608  0.557339  1
  Pd  Pd30  1  0.750000  0.916586  0.064032  1
  Pd  Pd31  1  0.250000  0.082533  0.936675  1
  Pd  Pd32  1  0.250000  0.420215  0.094644  1
  Pd  Pd33  1  0.750000  0.579874  0.905553  1
  Pd  Pd34  1  0.750000  0.921233  0.409763  1
  Pd  Pd35  1  0.250000  0.070889  0.587447  1
