# generated using pymatgen
data_Ti8Mn3Os4Pd
_symmetry_space_group_name_H-M   'P 1'
_cell_length_a   6.14423000
_cell_length_b   4.33400300
_cell_length_c   8.65549300
_cell_angle_alpha   90.00000000
_cell_angle_beta   90.00007702
_cell_angle_gamma   90.00000000
_symmetry_Int_Tables_number   1
_chemical_formula_structural   Ti8Mn3Os4Pd
_chemical_formula_sum   'Ti8 Mn3 Os4 Pd1'
_cell_volume   230.48808604
_cell_formula_units_Z   1
loop_
 _symmetry_equiv_pos_site_id
 _symmetry_equiv_pos_as_xyz
  1  'x, y, z'
loop_
 _atom_site_type_symbol
 _atom_site_label
 _atom_site_symmetry_multiplicity
 _atom_site_fract_x
 _atom_site_fract_y
 _atom_site_fract_z
 _atom_site_occupancy
  Ti  Ti0  1  0.013286  0.749999  0.125004  1
  Ti  Ti1  1  0.486736  0.749999  0.125011  1
  Ti  Ti2  1  0.004522  0.250000  0.382065  1
  Ti  Ti3  1  0.495504  0.250000  0.382068  1
  Ti  Ti4  1  0.501870  0.749999  0.624998  1
  Ti  Ti5  1  0.998109  0.749999  0.625002  1
  Ti  Ti6  1  0.495485  0.250000  0.867934  1
  Ti  Ti7  1  0.004506  0.250000  0.867932  1
  Mn  Mn8  1  0.250021  0.749999  0.373668  1
  Mn  Mn9  1  0.749957  0.250000  0.624977  1
  Mn  Mn10  1  0.249990  0.749999  0.876340  1
  Os  Os11  1  0.250013  0.250000  0.124995  1
  Os  Os12  1  0.750009  0.749999  0.374764  1
  Os  Os13  1  0.249987  0.250000  0.625014  1
  Os  Os14  1  0.749998  0.749999  0.875227  1
  Pd  Pd15  1  0.750010  0.250000  0.125002  1
