# generated using pymatgen
data_Dy2Mg(B3Ir4)2
_symmetry_space_group_name_H-M   'P 1'
_cell_length_a   9.96621820
_cell_length_b   9.12655967
_cell_length_c   5.60436300
_cell_angle_alpha   81.35444248
_cell_angle_beta   64.86966953
_cell_angle_gamma   33.77591612
_symmetry_Int_Tables_number   1
_chemical_formula_structural   Dy2Mg(B3Ir4)2
_chemical_formula_sum   'Dy2 Mg1 B6 Ir8'
_cell_volume   234.85107948
_cell_formula_units_Z   1
loop_
 _symmetry_equiv_pos_site_id
 _symmetry_equiv_pos_as_xyz
  1  'x, y, z'
loop_
 _atom_site_type_symbol
 _atom_site_label
 _atom_site_symmetry_multiplicity
 _atom_site_fract_x
 _atom_site_fract_y
 _atom_site_fract_z
 _atom_site_occupancy
  Dy  Dy0  1  0.320400  0.320400  0.679600  1
  Dy  Dy1  1  0.504540  0.504540  0.495460  1
  Mg  Mg2  1  0.683535  0.683535  0.316465  1
  B  B3  1  0.672588  0.976935  0.023065  1
  B  B4  1  0.976935  0.672588  0.327412  1
  B  B5  1  0.324946  0.021443  0.978557  1
  B  B6  1  0.021443  0.324946  0.675054  1
  B  B7  1  0.168925  0.830158  0.169842  1
  B  B8  1  0.830158  0.168925  0.831075  1
  Ir  Ir9  1  0.586040  0.586040  0.913960  1
  Ir  Ir10  1  0.913474  0.913474  0.086526  1
  Ir  Ir11  1  0.413962  0.413962  0.086038  1
  Ir  Ir12  1  0.086040  0.086040  0.413960  1
  Ir  Ir13  1  0.913962  0.913962  0.586038  1
  Ir  Ir14  1  0.248164  0.248164  0.251836  1
  Ir  Ir15  1  0.086719  0.086719  0.913281  1
  Ir  Ir16  1  0.748164  0.748164  0.751836  1
