# generated using pymatgen
data_TmLu2CrB7
_symmetry_space_group_name_H-M   'P 1'
_cell_length_a   7.90425240
_cell_length_b   7.90425204
_cell_length_c   9.23413200
_cell_angle_alpha   90.00000000
_cell_angle_beta   90.00000000
_cell_angle_gamma   155.28229878
_symmetry_Int_Tables_number   1
_chemical_formula_structural   TmLu2CrB7
_chemical_formula_sum   'Tm2 Lu4 Cr2 B14'
_cell_volume   241.23893603
_cell_formula_units_Z   2
loop_
 _symmetry_equiv_pos_site_id
 _symmetry_equiv_pos_as_xyz
  1  'x, y, z'
loop_
 _atom_site_type_symbol
 _atom_site_label
 _atom_site_symmetry_multiplicity
 _atom_site_fract_x
 _atom_site_fract_y
 _atom_site_fract_z
 _atom_site_occupancy
  Tm  Tm0  1  0.242939  0.757061  0.250000  1
  Tm  Tm1  1  0.757061  0.242939  0.750000  1
  Lu  Lu2  1  0.895136  0.104864  0.057522  1
  Lu  Lu3  1  0.104864  0.895136  0.557522  1
  Lu  Lu4  1  0.104864  0.895136  0.942478  1
  Lu  Lu5  1  0.895136  0.104864  0.442478  1
  Cr  Cr6  1  0.051701  0.948299  0.250000  1
  Cr  Cr7  1  0.948299  0.051701  0.750000  1
  B  B8  1  0.454201  0.545799  0.250000  1
  B  B9  1  0.545799  0.454201  0.750000  1
  B  B10  1  0.727295  0.272705  0.031920  1
  B  B11  1  0.272705  0.727295  0.531920  1
  B  B12  1  0.272705  0.727295  0.968080  1
  B  B13  1  0.727295  0.272705  0.468080  1
  B  B14  1  0.631093  0.368907  0.348730  1
  B  B15  1  0.368907  0.631093  0.848730  1
  B  B16  1  0.368907  0.631093  0.651270  1
  B  B17  1  0.631093  0.368907  0.151270  1
  B  B18  1  0.519690  0.480310  0.404141  1
  B  B19  1  0.480310  0.519690  0.904141  1
  B  B20  1  0.480310  0.519690  0.595859  1
  B  B21  1  0.519690  0.480310  0.095859  1
