# generated using pymatgen
data_ErTmInNi2
_symmetry_space_group_name_H-M   'P 1'
_cell_length_a   7.29300816
_cell_length_b   7.29300769
_cell_length_c   3.62401700
_cell_angle_alpha   90.00000000
_cell_angle_beta   90.00000000
_cell_angle_gamma   149.07302160
_symmetry_Int_Tables_number   1
_chemical_formula_structural   ErTmInNi2
_chemical_formula_sum   'Er1 Tm1 In1 Ni2'
_cell_volume   99.06504306
_cell_formula_units_Z   1
loop_
 _symmetry_equiv_pos_site_id
 _symmetry_equiv_pos_as_xyz
  1  'x, y, z'
loop_
 _atom_site_type_symbol
 _atom_site_label
 _atom_site_symmetry_multiplicity
 _atom_site_fract_x
 _atom_site_fract_y
 _atom_site_fract_z
 _atom_site_occupancy
  Er  Er0  1  0.637234  0.362766  0.500000  1
  Tm  Tm1  1  0.362492  0.637508  0.500000  1
  In  In2  1  0.999511  0.000489  0.000000  1
  Ni  Ni3  1  0.199086  0.800914  0.000000  1
  Ni  Ni4  1  0.801678  0.198322  0.000000  1
