# generated using pymatgen
data_Tb3Ga3GeIr2
_symmetry_space_group_name_H-M   'P 1'
_cell_length_a   7.17569400
_cell_length_b   7.17569461
_cell_length_c   4.02149800
_cell_angle_alpha   90.00000000
_cell_angle_beta   90.00000000
_cell_angle_gamma   119.99999718
_symmetry_Int_Tables_number   1
_chemical_formula_structural   Tb3Ga3GeIr2
_chemical_formula_sum   'Tb3 Ga3 Ge1 Ir2'
_cell_volume   179.32727903
_cell_formula_units_Z   1
loop_
 _symmetry_equiv_pos_site_id
 _symmetry_equiv_pos_as_xyz
  1  'x, y, z'
loop_
 _atom_site_type_symbol
 _atom_site_label
 _atom_site_symmetry_multiplicity
 _atom_site_fract_x
 _atom_site_fract_y
 _atom_site_fract_z
 _atom_site_occupancy
  Tb  Tb0  1  0.591787  0.006152  0.000000  1
  Tb  Tb1  1  0.993848  0.585635  0.000000  1
  Tb  Tb2  1  0.414365  0.408213  0.000000  1
  Ga  Ga3  1  0.253413  0.019309  0.500000  1
  Ga  Ga4  1  0.980691  0.234104  0.500000  1
  Ga  Ga5  1  0.765896  0.746587  0.500000  1
  Ge  Ge6  1  0.333333  0.666667  0.500000  1
  Ir  Ir7  1  0.666667  0.333333  0.500000  1
  Ir  Ir8  1  0.000000  0.000000  0.000000  1
