# generated using pymatgen
data_Hf4TiZnBi2
_symmetry_space_group_name_H-M   'P 1'
_cell_length_a   5.46707402
_cell_length_b   8.32132499
_cell_length_c   8.32132541
_cell_angle_alpha   83.80510505
_cell_angle_beta   70.82238228
_cell_angle_gamma   70.82237959
_symmetry_Int_Tables_number   1
_chemical_formula_structural   Hf4TiZnBi2
_chemical_formula_sum   'Hf8 Ti2 Zn2 Bi4'
_cell_volume   337.71336305
_cell_formula_units_Z   2
loop_
 _symmetry_equiv_pos_site_id
 _symmetry_equiv_pos_as_xyz
  1  'x, y, z'
loop_
 _atom_site_type_symbol
 _atom_site_label
 _atom_site_symmetry_multiplicity
 _atom_site_fract_x
 _atom_site_fract_y
 _atom_site_fract_z
 _atom_site_occupancy
  Hf  Hf0  1  0.076215  0.134436  0.713133  1
  Hf  Hf1  1  0.923785  0.865564  0.286867  1
  Hf  Hf2  1  0.789349  0.286867  0.134436  1
  Hf  Hf3  1  0.423785  0.286867  0.865564  1
  Hf  Hf4  1  0.210651  0.713133  0.865564  1
  Hf  Hf5  1  0.576215  0.713133  0.134436  1
  Hf  Hf6  1  0.710651  0.865564  0.713133  1
  Hf  Hf7  1  0.289349  0.134436  0.286867  1
  Ti  Ti8  1  0.250000  0.500000  0.500000  1
  Ti  Ti9  1  0.750000  0.500000  0.500000  1
  Zn  Zn10  1  0.250000  0.000000  0.000000  1
  Zn  Zn11  1  0.750000  0.000000  0.000000  1
  Bi  Bi12  1  0.159198  0.500000  0.181606  1
  Bi  Bi13  1  0.840802  0.500000  0.818394  1
  Bi  Bi14  1  0.340802  0.818394  0.500000  1
  Bi  Bi15  1  0.659198  0.181606  0.500000  1
