# generated using pymatgen
data_Tm2Lu2Sc6Ga7Si
_symmetry_space_group_name_H-M   'P 1'
_cell_length_a   7.19931010
_cell_length_b   7.43453727
_cell_length_c   14.39789402
_cell_angle_alpha   89.99525685
_cell_angle_beta   89.99676916
_cell_angle_gamma   90.23044720
_symmetry_Int_Tables_number   1
_chemical_formula_structural   Tm2Lu2Sc6Ga7Si
_chemical_formula_sum   'Tm4 Lu4 Sc12 Ga14 Si2'
_cell_volume   770.62000903
_cell_formula_units_Z   2
loop_
 _symmetry_equiv_pos_site_id
 _symmetry_equiv_pos_as_xyz
  1  'x, y, z'
loop_
 _atom_site_type_symbol
 _atom_site_label
 _atom_site_symmetry_multiplicity
 _atom_site_fract_x
 _atom_site_fract_y
 _atom_site_fract_z
 _atom_site_occupancy
  Tm  Tm0  1  0.510738  0.322053  0.095497  1
  Tm  Tm1  1  0.012990  0.179001  0.403768  1
  Tm  Tm2  1  0.510741  0.322061  0.404431  1
  Tm  Tm3  1  0.489282  0.678045  0.595549  1
  Lu  Lu4  1  0.012995  0.179118  0.096311  1
  Lu  Lu5  1  0.987027  0.820798  0.903720  1
  Lu  Lu6  1  0.489268  0.678156  0.904368  1
  Lu  Lu7  1  0.987080  0.820752  0.596363  1
  Sc  Sc8  1  0.160837  0.504620  0.750071  1
  Sc  Sc9  1  0.839206  0.495645  0.249948  1
  Sc  Sc10  1  0.336707  0.006416  0.249921  1
  Sc  Sc11  1  0.663353  0.993351  0.750050  1
  Sc  Sc12  1  0.331116  0.174379  0.622991  1
  Sc  Sc13  1  0.668828  0.825535  0.377056  1
  Sc  Sc14  1  0.170574  0.671611  0.376222  1
  Sc  Sc15  1  0.668814  0.825543  0.122857  1
  Sc  Sc16  1  0.829380  0.328409  0.623882  1
  Sc  Sc17  1  0.331070  0.174434  0.877020  1
  Sc  Sc18  1  0.829354  0.328421  0.876199  1
  Sc  Sc19  1  0.170569  0.671664  0.123734  1
  Ga  Ga20  1  0.032443  0.116986  0.750024  1
  Ga  Ga21  1  0.967563  0.882849  0.249959  1
  Ga  Ga22  1  0.467379  0.611942  0.249977  1
  Ga  Ga23  1  0.532634  0.388204  0.750067  1
  Ga  Ga24  1  0.285394  0.870313  0.750088  1
  Ga  Ga25  1  0.714561  0.129522  0.249929  1
  Ga  Ga26  1  0.159925  0.465929  0.540551  1
  Ga  Ga27  1  0.840012  0.534361  0.459562  1
  Ga  Ga28  1  0.338294  0.965088  0.459245  1
  Ga  Ga29  1  0.840025  0.534170  0.040454  1
  Ga  Ga30  1  0.661821  0.034809  0.540875  1
  Ga  Ga31  1  0.160121  0.465967  0.959453  1
  Ga  Ga32  1  0.661813  0.034530  0.959116  1
  Ga  Ga33  1  0.338108  0.965144  0.040790  1
  Si  Si34  1  0.214953  0.372723  0.249887  1
  Si  Si35  1  0.785023  0.627450  0.750066  1
