# generated using pymatgen
data_AcIn2Ni9
_symmetry_space_group_name_H-M   'P 1'
_cell_length_a   4.88203200
_cell_length_b   8.38174400
_cell_length_c   8.38174400
_cell_angle_alpha   90.00000000
_cell_angle_beta   90.00000000
_cell_angle_gamma   90.00000000
_symmetry_Int_Tables_number   1
_chemical_formula_structural   AcIn2Ni9
_chemical_formula_sum   'Ac2 In4 Ni18'
_cell_volume   342.98048189
_cell_formula_units_Z   2
loop_
 _symmetry_equiv_pos_site_id
 _symmetry_equiv_pos_as_xyz
  1  'x, y, z'
loop_
 _atom_site_type_symbol
 _atom_site_label
 _atom_site_symmetry_multiplicity
 _atom_site_fract_x
 _atom_site_fract_y
 _atom_site_fract_z
 _atom_site_occupancy
  Ac  Ac0  1  0.000000  0.500000  0.500000  1
  Ac  Ac1  1  0.000000  0.000000  0.000000  1
  In  In2  1  0.000000  0.622296  0.122296  1
  In  In3  1  0.000000  0.377704  0.877704  1
  In  In4  1  0.000000  0.877704  0.622296  1
  In  In5  1  0.000000  0.122296  0.377704  1
  Ni  Ni6  1  0.748601  0.176266  0.676266  1
  Ni  Ni7  1  0.748601  0.823734  0.323734  1
  Ni  Ni8  1  0.748601  0.323734  0.176266  1
  Ni  Ni9  1  0.748601  0.676266  0.823734  1
  Ni  Ni10  1  0.251399  0.823734  0.323734  1
  Ni  Ni11  1  0.251399  0.176266  0.676266  1
  Ni  Ni12  1  0.251399  0.676266  0.823734  1
  Ni  Ni13  1  0.251399  0.323734  0.176266  1
  Ni  Ni14  1  0.500000  0.712662  0.567062  1
  Ni  Ni15  1  0.500000  0.287338  0.432938  1
  Ni  Ni16  1  0.500000  0.787338  0.067062  1
  Ni  Ni17  1  0.500000  0.212662  0.932938  1
  Ni  Ni18  1  0.500000  0.567062  0.287338  1
  Ni  Ni19  1  0.500000  0.432938  0.712662  1
  Ni  Ni20  1  0.500000  0.067062  0.212662  1
  Ni  Ni21  1  0.500000  0.932938  0.787338  1
  Ni  Ni22  1  0.500000  0.000000  0.500000  1
  Ni  Ni23  1  0.500000  0.500000  0.000000  1
