# generated using pymatgen
data_SrCa2Ga8Ag3
_symmetry_space_group_name_H-M   'P 1'
_cell_length_a   4.47624785
_cell_length_b   8.50641986
_cell_length_c   8.50642090
_cell_angle_alpha   70.19560039
_cell_angle_beta   74.74532180
_cell_angle_gamma   74.74532530
_symmetry_Int_Tables_number   1
_chemical_formula_structural   SrCa2Ga8Ag3
_chemical_formula_sum   'Sr1 Ca2 Ga8 Ag3'
_cell_volume   288.55327601
_cell_formula_units_Z   1
loop_
 _symmetry_equiv_pos_site_id
 _symmetry_equiv_pos_as_xyz
  1  'x, y, z'
loop_
 _atom_site_type_symbol
 _atom_site_label
 _atom_site_symmetry_multiplicity
 _atom_site_fract_x
 _atom_site_fract_y
 _atom_site_fract_z
 _atom_site_occupancy
  Sr  Sr0  1  0.000000  0.000000  0.000000  1
  Ca  Ca1  1  0.299853  0.700147  0.700147  1
  Ca  Ca2  1  0.700147  0.299853  0.299853  1
  Ga  Ga3  1  0.337431  0.296716  0.028422  1
  Ga  Ga4  1  0.662569  0.703284  0.971578  1
  Ga  Ga5  1  0.337431  0.028422  0.296716  1
  Ga  Ga6  1  0.662569  0.971578  0.703284  1
  Ga  Ga7  1  0.144455  0.574427  0.136665  1
  Ga  Ga8  1  0.855545  0.425573  0.863335  1
  Ga  Ga9  1  0.144455  0.136665  0.574427  1
  Ga  Ga10  1  0.855545  0.863335  0.425573  1
  Ag  Ag11  1  0.500000  0.305081  0.694919  1
  Ag  Ag12  1  0.500000  0.694919  0.305081  1
  Ag  Ag13  1  0.000000  0.500000  0.500000  1
