# generated using pymatgen
data_Tb8Ti11NbSi15Sn
_symmetry_space_group_name_H-M   'P 1'
_cell_length_a   7.12965324
_cell_length_b   7.09604004
_cell_length_c   13.07921839
_cell_angle_alpha   89.95253948
_cell_angle_beta   89.77558983
_cell_angle_gamma   89.97253891
_symmetry_Int_Tables_number   1
_chemical_formula_structural   Tb8Ti11NbSi15Sn
_chemical_formula_sum   'Tb8 Ti11 Nb1 Si15 Sn1'
_cell_volume   661.70242604
_cell_formula_units_Z   1
loop_
 _symmetry_equiv_pos_site_id
 _symmetry_equiv_pos_as_xyz
  1  'x, y, z'
loop_
 _atom_site_type_symbol
 _atom_site_label
 _atom_site_symmetry_multiplicity
 _atom_site_fract_x
 _atom_site_fract_y
 _atom_site_fract_z
 _atom_site_occupancy
  Tb  Tb0  1  0.342430  0.999492  0.461700  1
  Tb  Tb1  1  0.505371  0.834396  0.718177  1
  Tb  Tb2  1  0.501977  0.160122  0.216530  1
  Tb  Tb3  1  0.839859  0.497128  0.282119  1
  Tb  Tb4  1  0.159894  0.509174  0.786239  1
  Tb  Tb5  1  0.661253  0.996989  0.968731  1
  Tb  Tb6  1  0.993624  0.347532  0.527525  1
  Tb  Tb7  1  0.999129  0.659354  0.034086  1
  Ti  Ti8  1  0.174050  0.826060  0.249762  1
  Ti  Ti9  1  0.816597  0.175697  0.751879  1
  Ti  Ti10  1  0.672388  0.672502  0.499510  1
  Ti  Ti11  1  0.154815  0.009419  0.883983  1
  Ti  Ti12  1  0.491405  0.650684  0.126066  1
  Ti  Ti13  1  0.515167  0.352669  0.626208  1
  Ti  Ti14  1  0.654072  0.492522  0.876234  1
  Ti  Ti15  1  0.346835  0.509393  0.372883  1
  Ti  Ti16  1  0.845964  0.991841  0.375985  1
  Ti  Ti17  1  0.010892  0.153863  0.122802  1
  Ti  Ti18  1  0.979487  0.834246  0.618522  1
  Nb  Nb19  1  0.326570  0.326655  0.001194  1
  Si  Si20  1  0.372358  0.703122  0.936401  1
  Si  Si21  1  0.626798  0.297637  0.433446  1
  Si  Si22  1  0.703600  0.370926  0.065943  1
  Si  Si23  1  0.297283  0.629204  0.564882  1
  Si  Si24  1  0.798338  0.871554  0.185168  1
  Si  Si25  1  0.128230  0.202272  0.314393  1
  Si  Si26  1  0.872108  0.800694  0.815403  1
  Si  Si27  1  0.292275  0.951373  0.067292  1
  Si  Si28  1  0.549271  0.789087  0.313824  1
  Si  Si29  1  0.460649  0.209916  0.818662  1
  Si  Si30  1  0.793291  0.544420  0.686501  1
  Si  Si31  1  0.208856  0.453592  0.186488  1
  Si  Si32  1  0.707257  0.048264  0.564599  1
  Si  Si33  1  0.951744  0.291361  0.934902  1
  Si  Si34  1  0.047801  0.711283  0.432536  1
  Sn  Sn35  1  0.198363  0.125559  0.679422  1
