# generated using pymatgen
data_Dy4As6Ir6Rh
_symmetry_space_group_name_H-M   'P 1'
_cell_length_a   7.31027266
_cell_length_b   7.31027202
_cell_length_c   7.31027300
_cell_angle_alpha   109.47122612
_cell_angle_beta   109.47122435
_cell_angle_gamma   109.47121477
_symmetry_Int_Tables_number   1
_chemical_formula_structural   Dy4As6Ir6Rh
_chemical_formula_sum   'Dy4 As6 Ir6 Rh1'
_cell_volume   300.73141678
_cell_formula_units_Z   1
loop_
 _symmetry_equiv_pos_site_id
 _symmetry_equiv_pos_as_xyz
  1  'x, y, z'
loop_
 _atom_site_type_symbol
 _atom_site_label
 _atom_site_symmetry_multiplicity
 _atom_site_fract_x
 _atom_site_fract_y
 _atom_site_fract_z
 _atom_site_occupancy
  Dy  Dy0  1  0.000000  0.000000  0.500000  1
  Dy  Dy1  1  0.500000  0.000000  0.000000  1
  Dy  Dy2  1  0.000000  0.500000  0.000000  1
  Dy  Dy3  1  0.500000  0.500000  0.500000  1
  As  As4  1  0.680501  0.680501  0.000000  1
  As  As5  1  0.319499  0.319499  0.000000  1
  As  As6  1  0.000000  0.680501  0.680501  1
  As  As7  1  0.000000  0.319499  0.319499  1
  As  As8  1  0.680501  0.000000  0.680501  1
  As  As9  1  0.319499  0.000000  0.319499  1
  Ir  Ir10  1  0.250000  0.500000  0.750000  1
  Ir  Ir11  1  0.750000  0.250000  0.500000  1
  Ir  Ir12  1  0.500000  0.250000  0.750000  1
  Ir  Ir13  1  0.500000  0.750000  0.250000  1
  Ir  Ir14  1  0.750000  0.500000  0.250000  1
  Ir  Ir15  1  0.250000  0.750000  0.500000  1
  Rh  Rh16  1  0.000000  0.000000  0.000000  1
