# generated using pymatgen
data_Dy8Y2Si6C
_symmetry_space_group_name_H-M   'P 1'
_cell_length_a   8.46499706
_cell_length_b   8.46355963
_cell_length_c   6.38455007
_cell_angle_alpha   90.01734975
_cell_angle_beta   89.99132539
_cell_angle_gamma   119.99436964
_symmetry_Int_Tables_number   1
_chemical_formula_structural   Dy8Y2Si6C
_chemical_formula_sum   'Dy8 Y2 Si6 C1'
_cell_volume   396.15525047
_cell_formula_units_Z   1
loop_
 _symmetry_equiv_pos_site_id
 _symmetry_equiv_pos_as_xyz
  1  'x, y, z'
loop_
 _atom_site_type_symbol
 _atom_site_label
 _atom_site_symmetry_multiplicity
 _atom_site_fract_x
 _atom_site_fract_y
 _atom_site_fract_z
 _atom_site_occupancy
  Dy  Dy0  1  0.333305  0.666644  0.499976  1
  Dy  Dy1  1  0.666695  0.333338  0.499976  1
  Dy  Dy2  1  0.666684  0.333347  0.000037  1
  Dy  Dy3  1  0.333316  0.666664  0.000037  1
  Dy  Dy4  1  0.000000  0.764468  0.271221  1
  Dy  Dy5  1  0.235452  0.235493  0.271290  1
  Dy  Dy6  1  0.764548  0.000041  0.271290  1
  Dy  Dy7  1  0.000000  0.235593  0.728687  1
  Y  Y8  1  0.764192  0.764202  0.728996  1
  Y  Y9  1  0.235808  0.000010  0.728996  1
  Si  Si10  1  0.000000  0.398821  0.253505  1
  Si  Si11  1  0.601115  0.601098  0.253425  1
  Si  Si12  1  0.398885  0.999982  0.253425  1
  Si  Si13  1  0.000000  0.601083  0.746529  1
  Si  Si14  1  0.398819  0.398844  0.746520  1
  Si  Si15  1  0.601181  0.000025  0.746520  1
  C  C16  1  0.000000  0.000347  0.499570  1
