# generated using pymatgen
data_CaEu3(Re2Si)8
_symmetry_space_group_name_H-M   'P 1'
_cell_length_a   4.18276300
_cell_length_b   7.38175542
_cell_length_c   15.57268100
_cell_angle_alpha   89.72275484
_cell_angle_beta   90.00000000
_cell_angle_gamma   90.00000000
_symmetry_Int_Tables_number   1
_chemical_formula_structural   CaEu3(Re2Si)8
_chemical_formula_sum   'Ca1 Eu3 Re16 Si8'
_cell_volume   480.81854754
_cell_formula_units_Z   1
loop_
 _symmetry_equiv_pos_site_id
 _symmetry_equiv_pos_as_xyz
  1  'x, y, z'
loop_
 _atom_site_type_symbol
 _atom_site_label
 _atom_site_symmetry_multiplicity
 _atom_site_fract_x
 _atom_site_fract_y
 _atom_site_fract_z
 _atom_site_occupancy
  Ca  Ca0  1  0.500000  0.922417  0.618829  1
  Eu  Eu1  1  0.000000  0.577234  0.118581  1
  Eu  Eu2  1  0.000000  0.424607  0.880401  1
  Eu  Eu3  1  0.500000  0.075462  0.383380  1
  Re  Re4  1  0.000000  0.134817  0.051858  1
  Re  Re5  1  0.000000  0.866371  0.947240  1
  Re  Re6  1  0.500000  0.632641  0.448289  1
  Re  Re7  1  0.500000  0.362639  0.553019  1
  Re  Re8  1  0.000000  0.730577  0.320893  1
  Re  Re9  1  0.000000  0.267883  0.679213  1
  Re  Re10  1  0.500000  0.230617  0.179965  1
  Re  Re11  1  0.500000  0.770654  0.819477  1
  Re  Re12  1  0.000000  0.432517  0.418834  1
  Re  Re13  1  0.000000  0.564210  0.582611  1
  Re  Re14  1  0.500000  0.934551  0.081570  1
  Re  Re15  1  0.500000  0.066816  0.917419  1
  Re  Re16  1  0.000000  0.990829  0.207069  1
  Re  Re17  1  0.000000  0.011274  0.792493  1
  Re  Re18  1  0.500000  0.489148  0.293763  1
  Re  Re19  1  0.500000  0.513055  0.706393  1
  Si  Si20  1  0.000000  0.825704  0.476135  1
  Si  Si21  1  0.000000  0.169736  0.524872  1
  Si  Si22  1  0.500000  0.326703  0.024195  1
  Si  Si23  1  0.500000  0.674344  0.974975  1
  Si  Si24  1  0.000000  0.289879  0.275091  1
  Si  Si25  1  0.000000  0.713509  0.724359  1
  Si  Si26  1  0.500000  0.791329  0.226231  1
  Si  Si27  1  0.500000  0.210471  0.772847  1
