# generated using pymatgen
data_Ce2SiNi2AsH4
_symmetry_space_group_name_H-M   'P 1'
_cell_length_a   4.11009400
_cell_length_b   4.11009416
_cell_length_c   8.19167600
_cell_angle_alpha   90.00000000
_cell_angle_beta   90.00000000
_cell_angle_gamma   119.99999872
_symmetry_Int_Tables_number   1
_chemical_formula_structural   Ce2SiNi2AsH4
_chemical_formula_sum   'Ce2 Si1 Ni2 As1 H4'
_cell_volume   119.84141544
_cell_formula_units_Z   1
loop_
 _symmetry_equiv_pos_site_id
 _symmetry_equiv_pos_as_xyz
  1  'x, y, z'
loop_
 _atom_site_type_symbol
 _atom_site_label
 _atom_site_symmetry_multiplicity
 _atom_site_fract_x
 _atom_site_fract_y
 _atom_site_fract_z
 _atom_site_occupancy
  Ce  Ce0  1  0.000000  0.000000  0.501822  1
  Ce  Ce1  1  0.000000  0.000000  0.998178  1
  Si  Si2  1  0.333333  0.666667  0.750000  1
  Ni  Ni3  1  0.666667  0.333333  0.750000  1
  Ni  Ni4  1  0.333333  0.666667  0.250000  1
  As  As5  1  0.666667  0.333333  0.250000  1
  H  H6  1  0.333333  0.666667  0.457467  1
  H  H7  1  0.666667  0.333333  0.557348  1
  H  H8  1  0.333333  0.666667  0.042533  1
  H  H9  1  0.666667  0.333333  0.942652  1
