# generated using pymatgen
data_Th4Ni2GeAs3
_symmetry_space_group_name_H-M   'P 1'
_cell_length_a   4.19613200
_cell_length_b   4.19613158
_cell_length_c   14.88699800
_cell_angle_alpha   90.00000000
_cell_angle_beta   90.00000000
_cell_angle_gamma   119.99998756
_symmetry_Int_Tables_number   1
_chemical_formula_structural   Th4Ni2GeAs3
_chemical_formula_sum   'Th4 Ni2 Ge1 As3'
_cell_volume   227.00533067
_cell_formula_units_Z   1
loop_
 _symmetry_equiv_pos_site_id
 _symmetry_equiv_pos_as_xyz
  1  'x, y, z'
loop_
 _atom_site_type_symbol
 _atom_site_label
 _atom_site_symmetry_multiplicity
 _atom_site_fract_x
 _atom_site_fract_y
 _atom_site_fract_z
 _atom_site_occupancy
  Th  Th0  1  0.333333  0.666667  0.382168  1
  Th  Th1  1  0.666667  0.333333  0.619562  1
  Th  Th2  1  0.666667  0.333333  0.880438  1
  Th  Th3  1  0.333333  0.666667  0.117832  1
  Ni  Ni4  1  0.000000  0.000000  0.250000  1
  Ni  Ni5  1  0.000000  0.000000  0.750000  1
  Ge  Ge6  1  0.333333  0.666667  0.750000  1
  As  As7  1  0.000000  0.000000  0.499563  1
  As  As8  1  0.000000  0.000000  0.000437  1
  As  As9  1  0.666667  0.333333  0.250000  1
