# generated using pymatgen
data_HoHf(NbSe2)8
_symmetry_space_group_name_H-M   'P 1'
_cell_length_a   7.01416000
_cell_length_b   7.01416022
_cell_length_c   13.84803100
_cell_angle_alpha   90.00000000
_cell_angle_beta   90.00000000
_cell_angle_gamma   119.99999896
_symmetry_Int_Tables_number   1
_chemical_formula_structural   HoHf(NbSe2)8
_chemical_formula_sum   'Ho1 Hf1 Nb8 Se16'
_cell_volume   590.02445664
_cell_formula_units_Z   1
loop_
 _symmetry_equiv_pos_site_id
 _symmetry_equiv_pos_as_xyz
  1  'x, y, z'
loop_
 _atom_site_type_symbol
 _atom_site_label
 _atom_site_symmetry_multiplicity
 _atom_site_fract_x
 _atom_site_fract_y
 _atom_site_fract_z
 _atom_site_occupancy
  Ho  Ho0  1  0.000000  0.000000  0.500000  1
  Hf  Hf1  1  0.000000  0.000000  0.000000  1
  Nb  Nb2  1  0.000000  0.000000  0.240851  1
  Nb  Nb3  1  0.000000  0.000000  0.759149  1
  Nb  Nb4  1  0.506528  0.013055  0.241023  1
  Nb  Nb5  1  0.986945  0.493472  0.241023  1
  Nb  Nb6  1  0.506528  0.493472  0.241023  1
  Nb  Nb7  1  0.493472  0.986945  0.758977  1
  Nb  Nb8  1  0.013055  0.506528  0.758977  1
  Nb  Nb9  1  0.493472  0.506528  0.758977  1
  Se  Se10  1  0.333333  0.666667  0.882587  1
  Se  Se11  1  0.666667  0.333333  0.117413  1
  Se  Se12  1  0.666667  0.333333  0.365855  1
  Se  Se13  1  0.333333  0.666667  0.634145  1
  Se  Se14  1  0.169821  0.830179  0.361319  1
  Se  Se15  1  0.169821  0.339642  0.361319  1
  Se  Se16  1  0.660358  0.830179  0.361319  1
  Se  Se17  1  0.830179  0.169821  0.638681  1
  Se  Se18  1  0.830179  0.660358  0.638681  1
  Se  Se19  1  0.339642  0.169821  0.638681  1
  Se  Se20  1  0.830118  0.169882  0.880078  1
  Se  Se21  1  0.830118  0.660236  0.880078  1
  Se  Se22  1  0.339764  0.169882  0.880078  1
  Se  Se23  1  0.169882  0.830118  0.119922  1
  Se  Se24  1  0.169882  0.339764  0.119922  1
  Se  Se25  1  0.660236  0.830118  0.119922  1
