# generated using pymatgen
data_KPuSe2
_symmetry_space_group_name_H-M   'P 1'
_cell_length_a   8.01806031
_cell_length_b   8.01806035
_cell_length_c   8.01806034
_cell_angle_alpha   31.07268804
_cell_angle_beta   31.07268643
_cell_angle_gamma   31.07269407
_symmetry_Int_Tables_number   1
_chemical_formula_structural   KPuSe2
_chemical_formula_sum   'K1 Pu1 Se2'
_cell_volume   121.82794780
_cell_formula_units_Z   1
loop_
 _symmetry_equiv_pos_site_id
 _symmetry_equiv_pos_as_xyz
  1  'x, y, z'
loop_
 _atom_site_type_symbol
 _atom_site_label
 _atom_site_symmetry_multiplicity
 _atom_site_fract_x
 _atom_site_fract_y
 _atom_site_fract_z
 _atom_site_occupancy
  K  K0  1  0.500000  0.500000  0.500000  1
  Pu  Pu1  1  0.000000  0.000000  0.000000  1
  Se  Se2  1  0.734339  0.734339  0.734339  1
  Se  Se3  1  0.265661  0.265661  0.265661  1
