# generated using pymatgen
data_Dy3Lu(TcB4)4
_symmetry_space_group_name_H-M   'P 1'
_cell_length_a   3.58952200
_cell_length_b   5.95291525
_cell_length_c   11.52756140
_cell_angle_alpha   89.92595088
_cell_angle_beta   90.00000000
_cell_angle_gamma   90.00000000
_symmetry_Int_Tables_number   1
_chemical_formula_structural   Dy3Lu(TcB4)4
_chemical_formula_sum   'Dy3 Lu1 Tc4 B16'
_cell_volume   246.32211237
_cell_formula_units_Z   1
loop_
 _symmetry_equiv_pos_site_id
 _symmetry_equiv_pos_as_xyz
  1  'x, y, z'
loop_
 _atom_site_type_symbol
 _atom_site_label
 _atom_site_symmetry_multiplicity
 _atom_site_fract_x
 _atom_site_fract_y
 _atom_site_fract_z
 _atom_site_occupancy
  Dy  Dy0  1  0.500000  0.372430  0.150274  1
  Dy  Dy1  1  0.500000  0.627639  0.850019  1
  Dy  Dy2  1  0.500000  0.127647  0.649722  1
  Lu  Lu3  1  0.500000  0.872262  0.350448  1
  Tc  Tc4  1  0.500000  0.365432  0.411816  1
  Tc  Tc5  1  0.500000  0.634732  0.586717  1
  Tc  Tc6  1  0.500000  0.133867  0.912595  1
  Tc  Tc7  1  0.500000  0.865947  0.088943  1
  B  B8  1  0.000000  0.112839  0.047859  1
  B  B9  1  0.000000  0.886732  0.953037  1
  B  B10  1  0.000000  0.387321  0.546550  1
  B  B11  1  0.000000  0.614934  0.451626  1
  B  B12  1  0.000000  0.135230  0.468076  1
  B  B13  1  0.000000  0.864691  0.530247  1
  B  B14  1  0.000000  0.364063  0.968935  1
  B  B15  1  0.000000  0.636017  0.031711  1
  B  B16  1  0.000000  0.021616  0.193783  1
  B  B17  1  0.000000  0.977320  0.807560  1
  B  B18  1  0.000000  0.477421  0.692013  1
  B  B19  1  0.000000  0.523546  0.307393  1
  B  B20  1  0.000000  0.210231  0.315222  1
  B  B21  1  0.000000  0.787948  0.684526  1
  B  B22  1  0.000000  0.287976  0.815022  1
  B  B23  1  0.000000  0.712159  0.185908  1
