# generated using pymatgen
data_Dy4Y6(TlSb)3
_symmetry_space_group_name_H-M   'P 1'
_cell_length_a   9.00286200
_cell_length_b   9.00334867
_cell_length_c   6.66226300
_cell_angle_alpha   90.00000000
_cell_angle_beta   90.00000000
_cell_angle_gamma   119.99822660
_symmetry_Int_Tables_number   1
_chemical_formula_structural   Dy4Y6(TlSb)3
_chemical_formula_sum   'Dy4 Y6 Tl3 Sb3'
_cell_volume   467.67572448
_cell_formula_units_Z   1
loop_
 _symmetry_equiv_pos_site_id
 _symmetry_equiv_pos_as_xyz
  1  'x, y, z'
loop_
 _atom_site_type_symbol
 _atom_site_label
 _atom_site_symmetry_multiplicity
 _atom_site_fract_x
 _atom_site_fract_y
 _atom_site_fract_z
 _atom_site_occupancy
  Dy  Dy0  1  0.331006  0.666083  0.000043  1
  Dy  Dy1  1  0.664924  0.333917  0.499957  1
  Dy  Dy2  1  0.664924  0.333917  0.000043  1
  Dy  Dy3  1  0.331006  0.666083  0.499957  1
  Y  Y4  1  0.238183  0.000000  0.250000  1
  Y  Y5  1  0.240134  0.238362  0.750000  1
  Y  Y6  1  0.001772  0.761638  0.750000  1
  Y  Y7  1  0.003398  0.241841  0.250000  1
  Y  Y8  1  0.761555  0.758159  0.250000  1
  Y  Y9  1  0.760370  0.000000  0.750000  1
  Tl  Tl10  1  0.998703  0.603672  0.250000  1
  Tl  Tl11  1  0.395032  0.396328  0.250000  1
  Tl  Tl12  1  0.396662  0.000000  0.750000  1
  Sb  Sb13  1  0.608618  0.000000  0.250000  1
  Sb  Sb14  1  0.605624  0.607531  0.750000  1
  Sb  Sb15  1  0.998093  0.392469  0.750000  1
