# generated using pymatgen
data_KMn3CrO8
_symmetry_space_group_name_H-M   'P 1'
_cell_length_a   5.87503591
_cell_length_b   5.87493397
_cell_length_c   13.50094838
_cell_angle_alpha   77.48303319
_cell_angle_beta   89.95935816
_cell_angle_gamma   120.00055300
_symmetry_Int_Tables_number   1
_chemical_formula_structural   KMn3CrO8
_chemical_formula_sum   'K2 Mn6 Cr2 O16'
_cell_volume   390.67361459
_cell_formula_units_Z   2
loop_
 _symmetry_equiv_pos_site_id
 _symmetry_equiv_pos_as_xyz
  1  'x, y, z'
loop_
 _atom_site_type_symbol
 _atom_site_label
 _atom_site_symmetry_multiplicity
 _atom_site_fract_x
 _atom_site_fract_y
 _atom_site_fract_z
 _atom_site_occupancy
  K  K0  1  0.249906  0.500269  0.249877  1
  K  K1  1  0.750102  0.499797  0.750131  1
  Mn  Mn2  1  0.499647  0.499979  0.000041  1
  Mn  Mn3  1  0.999910  0.500134  0.500026  1
  Mn  Mn4  1  0.500307  0.000027  0.000004  1
  Mn  Mn5  1  0.999710  0.999668  0.500024  1
  Mn  Mn6  1  0.999967  0.499595  0.000004  1
  Mn  Mn7  1  0.500338  0.500332  0.500008  1
  Cr  Cr8  1  0.500643  0.999882  0.499993  1
  Cr  Cr9  1  0.999825  0.000343  0.999970  1
  O  O10  1  0.641255  0.282934  0.075776  1
  O  O11  1  0.141404  0.283010  0.575703  1
  O  O12  1  0.858715  0.717091  0.424208  1
  O  O13  1  0.358574  0.717073  0.924262  1
  O  O14  1  0.146756  0.777616  0.075544  1
  O  O15  1  0.646906  0.777665  0.575514  1
  O  O16  1  0.869443  0.222367  0.424438  1
  O  O17  1  0.369342  0.222262  0.924501  1
  O  O18  1  0.353170  0.706111  0.424427  1
  O  O19  1  0.853083  0.705984  0.924484  1
  O  O20  1  0.146806  0.293918  0.075547  1
  O  O21  1  0.646893  0.293977  0.575523  1
  O  O22  1  0.630476  0.777596  0.075541  1
  O  O23  1  0.130595  0.777715  0.575509  1
  O  O24  1  0.353186  0.222393  0.424438  1
  O  O25  1  0.853042  0.222263  0.924507  1
