# generated using pymatgen
data_Pr8Si12Pt3Au
_symmetry_space_group_name_H-M   'P 1'
_cell_length_a   8.27246700
_cell_length_b   8.27246898
_cell_length_c   8.71709300
_cell_angle_alpha   90.00000000
_cell_angle_beta   90.00000000
_cell_angle_gamma   120.00000406
_symmetry_Int_Tables_number   1
_chemical_formula_structural   Pr8Si12Pt3Au
_chemical_formula_sum   'Pr8 Si12 Pt3 Au1'
_cell_volume   516.62150977
_cell_formula_units_Z   1
loop_
 _symmetry_equiv_pos_site_id
 _symmetry_equiv_pos_as_xyz
  1  'x, y, z'
loop_
 _atom_site_type_symbol
 _atom_site_label
 _atom_site_symmetry_multiplicity
 _atom_site_fract_x
 _atom_site_fract_y
 _atom_site_fract_z
 _atom_site_occupancy
  Pr  Pr0  1  0.498814  0.501186  0.747463  1
  Pr  Pr1  1  0.499133  0.500867  0.252435  1
  Pr  Pr2  1  0.002372  0.501186  0.747463  1
  Pr  Pr3  1  0.001734  0.500867  0.252435  1
  Pr  Pr4  1  0.498814  0.997628  0.747463  1
  Pr  Pr5  1  0.499133  0.998266  0.252435  1
  Pr  Pr6  1  0.000000  0.000000  0.748660  1
  Pr  Pr7  1  0.000000  0.000000  0.251488  1
  Si  Si8  1  0.837825  0.162175  0.999920  1
  Si  Si9  1  0.167209  0.832791  0.000161  1
  Si  Si10  1  0.324350  0.162175  0.999920  1
  Si  Si11  1  0.165986  0.834014  0.499408  1
  Si  Si12  1  0.665581  0.832791  0.000161  1
  Si  Si13  1  0.833787  0.166213  0.500588  1
  Si  Si14  1  0.837825  0.675650  0.999920  1
  Si  Si15  1  0.668028  0.834014  0.499408  1
  Si  Si16  1  0.167209  0.334419  0.000161  1
  Si  Si17  1  0.332427  0.166213  0.500588  1
  Si  Si18  1  0.165986  0.331972  0.499408  1
  Si  Si19  1  0.833787  0.667573  0.500588  1
  Pt  Pt20  1  0.333333  0.666667  0.000601  1
  Pt  Pt21  1  0.333333  0.666667  0.499218  1
  Pt  Pt22  1  0.666667  0.333333  0.500556  1
  Au  Au23  1  0.666667  0.333333  0.999553  1
