# generated using pymatgen
data_Y3PaPt4
_symmetry_space_group_name_H-M   'P 1'
_cell_length_a   4.56137200
_cell_length_b   5.61712074
_cell_length_c   7.01489810
_cell_angle_alpha   88.70288995
_cell_angle_beta   90.00000000
_cell_angle_gamma   90.00000000
_symmetry_Int_Tables_number   1
_chemical_formula_structural   Y3PaPt4
_chemical_formula_sum   'Y3 Pa1 Pt4'
_cell_volume   179.68810030
_cell_formula_units_Z   1
loop_
 _symmetry_equiv_pos_site_id
 _symmetry_equiv_pos_as_xyz
  1  'x, y, z'
loop_
 _atom_site_type_symbol
 _atom_site_label
 _atom_site_symmetry_multiplicity
 _atom_site_fract_x
 _atom_site_fract_y
 _atom_site_fract_z
 _atom_site_occupancy
  Y  Y0  1  0.750000  0.356302  0.815343  1
  Y  Y1  1  0.750000  0.144141  0.320331  1
  Y  Y2  1  0.250000  0.858493  0.684426  1
  Pa  Pa3  1  0.250000  0.642941  0.182576  1
  Pt  Pt4  1  0.250000  0.160114  0.051089  1
  Pt  Pt5  1  0.750000  0.832319  0.966100  1
  Pt  Pt6  1  0.750000  0.655393  0.443995  1
  Pt  Pt7  1  0.250000  0.350298  0.536139  1
