# generated using pymatgen
data_EuHfSiO5
_symmetry_space_group_name_H-M   'P 1'
_cell_length_a   9.16502300
_cell_length_b   6.94941840
_cell_length_c   7.51248626
_cell_angle_alpha   65.87250096
_cell_angle_beta   90.00000000
_cell_angle_gamma   90.00000000
_symmetry_Int_Tables_number   1
_chemical_formula_structural   EuHfSiO5
_chemical_formula_sum   'Eu4 Hf4 Si4 O20'
_cell_volume   436.68100596
_cell_formula_units_Z   4
loop_
 _symmetry_equiv_pos_site_id
 _symmetry_equiv_pos_as_xyz
  1  'x, y, z'
loop_
 _atom_site_type_symbol
 _atom_site_label
 _atom_site_symmetry_multiplicity
 _atom_site_fract_x
 _atom_site_fract_y
 _atom_site_fract_z
 _atom_site_occupancy
  Eu  Eu0  1  0.918027  0.250583  0.252503  1
  Eu  Eu1  1  0.581973  0.250583  0.752503  1
  Eu  Eu2  1  0.418027  0.749417  0.247497  1
  Eu  Eu3  1  0.081973  0.749417  0.747497  1
  Hf  Hf4  1  0.250340  0.250148  0.500901  1
  Hf  Hf5  1  0.749660  0.749852  0.499099  1
  Hf  Hf6  1  0.249660  0.250148  0.000901  1
  Hf  Hf7  1  0.750340  0.749852  0.999099  1
  Si  Si8  1  0.069024  0.750286  0.249475  1
  Si  Si9  1  0.569024  0.249714  0.250525  1
  Si  Si10  1  0.930976  0.249714  0.750525  1
  Si  Si11  1  0.430976  0.750286  0.749475  1
  O  O12  1  0.464665  0.156695  0.121935  1
  O  O13  1  0.964665  0.843305  0.378065  1
  O  O14  1  0.535335  0.843305  0.878065  1
  O  O15  1  0.035335  0.156695  0.621935  1
  O  O16  1  0.034767  0.342855  0.879523  1
  O  O17  1  0.534767  0.657145  0.620477  1
  O  O18  1  0.965233  0.657145  0.120477  1
  O  O19  1  0.465233  0.342855  0.379523  1
  O  O20  1  0.319831  0.932353  0.600094  1
  O  O21  1  0.819831  0.067647  0.899906  1
  O  O22  1  0.680169  0.067647  0.399906  1
  O  O23  1  0.180169  0.932353  0.100094  1
  O  O24  1  0.325557  0.250074  0.750981  1
  O  O25  1  0.825557  0.749926  0.749019  1
  O  O26  1  0.674443  0.749926  0.249019  1
  O  O27  1  0.174443  0.250074  0.250981  1
  O  O28  1  0.320077  0.568347  0.900010  1
  O  O29  1  0.820077  0.431653  0.599990  1
  O  O30  1  0.679923  0.431653  0.099990  1
  O  O31  1  0.179923  0.568347  0.400010  1
