# generated using pymatgen
data_U8Ta12Si15Sb
_symmetry_space_group_name_H-M   'P 1'
_cell_length_a   6.87608568
_cell_length_b   7.08742893
_cell_length_c   13.28318900
_cell_angle_alpha   90.00000000
_cell_angle_beta   90.00000000
_cell_angle_gamma   90.22484263
_symmetry_Int_Tables_number   1
_chemical_formula_structural   U8Ta12Si15Sb
_chemical_formula_sum   'U8 Ta12 Si15 Sb1'
_cell_volume   647.33487351
_cell_formula_units_Z   1
loop_
 _symmetry_equiv_pos_site_id
 _symmetry_equiv_pos_as_xyz
  1  'x, y, z'
loop_
 _atom_site_type_symbol
 _atom_site_label
 _atom_site_symmetry_multiplicity
 _atom_site_fract_x
 _atom_site_fract_y
 _atom_site_fract_z
 _atom_site_occupancy
  U  U0  1  0.499857  0.667728  0.593187  1
  U  U1  1  0.997828  0.831268  0.906681  1
  U  U2  1  0.492635  0.333822  0.087609  1
  U  U3  1  0.010636  0.157703  0.416080  1
  U  U4  1  0.492635  0.333822  0.412391  1
  U  U5  1  0.010636  0.157703  0.083920  1
  U  U6  1  0.499857  0.667728  0.906813  1
  U  U7  1  0.997828  0.831268  0.593319  1
  Ta  Ta8  1  0.663249  0.173866  0.624744  1
  Ta  Ta9  1  0.163547  0.327095  0.875417  1
  Ta  Ta10  1  0.335785  0.829072  0.122627  1
  Ta  Ta11  1  0.836300  0.680875  0.378718  1
  Ta  Ta12  1  0.335785  0.829072  0.377373  1
  Ta  Ta13  1  0.836300  0.680875  0.121282  1
  Ta  Ta14  1  0.663249  0.173866  0.875256  1
  Ta  Ta15  1  0.163547  0.327095  0.624583  1
  Ta  Ta16  1  0.833255  0.499422  0.750000  1
  Ta  Ta17  1  0.333352  0.000240  0.750000  1
  Ta  Ta18  1  0.177203  0.505428  0.250000  1
  Ta  Ta19  1  0.663049  0.989096  0.250000  1
  Si  Si20  1  0.662115  0.964076  0.459771  1
  Si  Si21  1  0.160523  0.540915  0.040590  1
  Si  Si22  1  0.337711  0.036522  0.955390  1
  Si  Si23  1  0.835706  0.460675  0.541640  1
  Si  Si24  1  0.337711  0.036522  0.544610  1
  Si  Si25  1  0.835706  0.460675  0.958360  1
  Si  Si26  1  0.662115  0.964076  0.040229  1
  Si  Si27  1  0.160523  0.540915  0.459410  1
  Si  Si28  1  0.457859  0.377765  0.750000  1
  Si  Si29  1  0.958029  0.122089  0.750000  1
  Si  Si30  1  0.537171  0.630840  0.250000  1
  Si  Si31  1  0.042230  0.878895  0.250000  1
  Si  Si32  1  0.700638  0.870943  0.750000  1
  Si  Si33  1  0.200546  0.629446  0.750000  1
  Si  Si34  1  0.300055  0.130882  0.250000  1
  Sb  Sb35  1  0.804829  0.357719  0.250000  1
