# generated using pymatgen
data_TbCeDy14(CdRu)4
_symmetry_space_group_name_H-M   'P 1'
_cell_length_a   9.67797683
_cell_length_b   9.67797547
_cell_length_c   9.67713336
_cell_angle_alpha   59.39876899
_cell_angle_beta   59.39877462
_cell_angle_gamma   59.40066200
_symmetry_Int_Tables_number   1
_chemical_formula_structural   TbCeDy14(CdRu)4
_chemical_formula_sum   'Tb1 Ce1 Dy14 Cd4 Ru4'
_cell_volume   632.15584487
_cell_formula_units_Z   1
loop_
 _symmetry_equiv_pos_site_id
 _symmetry_equiv_pos_as_xyz
  1  'x, y, z'
loop_
 _atom_site_type_symbol
 _atom_site_label
 _atom_site_symmetry_multiplicity
 _atom_site_fract_x
 _atom_site_fract_y
 _atom_site_fract_z
 _atom_site_occupancy
  Tb  Tb0  1  0.562322  0.562322  0.938137  1
  Ce  Ce1  1  0.342070  0.342070  0.342122  1
  Dy  Dy2  1  0.938810  0.561215  0.938696  1
  Dy  Dy3  1  0.561215  0.938810  0.938696  1
  Dy  Dy4  1  0.938708  0.938708  0.561221  1
  Dy  Dy5  1  0.562274  0.938211  0.562224  1
  Dy  Dy6  1  0.938211  0.562274  0.562224  1
  Dy  Dy7  1  0.189164  0.189164  0.812068  1
  Dy  Dy8  1  0.810937  0.188203  0.810896  1
  Dy  Dy9  1  0.188202  0.810938  0.810896  1
  Dy  Dy10  1  0.810895  0.810896  0.188259  1
  Dy  Dy11  1  0.189092  0.812117  0.189181  1
  Dy  Dy12  1  0.812117  0.189093  0.189182  1
  Dy  Dy13  1  0.346344  0.346344  0.957575  1
  Dy  Dy14  1  0.346388  0.957550  0.346405  1
  Dy  Dy15  1  0.957550  0.346388  0.346405  1
  Cd  Cd16  1  0.580083  0.580083  0.258258  1
  Cd  Cd17  1  0.580078  0.258180  0.580083  1
  Cd  Cd18  1  0.258180  0.580078  0.580083  1
  Cd  Cd19  1  0.579927  0.579927  0.579842  1
  Ru  Ru20  1  0.146347  0.146347  0.575441  1
  Ru  Ru21  1  0.146248  0.575478  0.146374  1
  Ru  Ru22  1  0.575478  0.146248  0.146374  1
  Ru  Ru23  1  0.139360  0.139360  0.139358  1
