# generated using pymatgen
data_DyAl10ReRh
_symmetry_space_group_name_H-M   'P 1'
_cell_length_a   6.88602369
_cell_length_b   6.88602401
_cell_length_c   9.18433641
_cell_angle_alpha   90.84032697
_cell_angle_beta   90.84032746
_cell_angle_gamma   96.71556932
_symmetry_Int_Tables_number   1
_chemical_formula_structural   DyAl10ReRh
_chemical_formula_sum   'Dy2 Al20 Re2 Rh2'
_cell_volume   432.40331629
_cell_formula_units_Z   2
loop_
 _symmetry_equiv_pos_site_id
 _symmetry_equiv_pos_as_xyz
  1  'x, y, z'
loop_
 _atom_site_type_symbol
 _atom_site_label
 _atom_site_symmetry_multiplicity
 _atom_site_fract_x
 _atom_site_fract_y
 _atom_site_fract_z
 _atom_site_occupancy
  Dy  Dy0  1  0.871400  0.128600  0.750000  1
  Dy  Dy1  1  0.128600  0.871400  0.250000  1
  Al  Al2  1  0.620155  0.376527  0.548393  1
  Al  Al3  1  0.379845  0.623473  0.451607  1
  Al  Al4  1  0.376527  0.620155  0.048393  1
  Al  Al5  1  0.623473  0.379845  0.951607  1
  Al  Al6  1  0.223864  0.224507  0.500760  1
  Al  Al7  1  0.776136  0.775493  0.499240  1
  Al  Al8  1  0.775493  0.776136  0.999240  1
  Al  Al9  1  0.224507  0.223864  0.000760  1
  Al  Al10  1  0.845925  0.157232  0.099871  1
  Al  Al11  1  0.154075  0.842768  0.900129  1
  Al  Al12  1  0.157232  0.845925  0.599871  1
  Al  Al13  1  0.842768  0.154075  0.400129  1
  Al  Al14  1  0.857587  0.589946  0.749672  1
  Al  Al15  1  0.142413  0.410054  0.250328  1
  Al  Al16  1  0.410054  0.142413  0.750328  1
  Al  Al17  1  0.589946  0.857587  0.249672  1
  Al  Al18  1  0.220528  0.478896  0.755100  1
  Al  Al19  1  0.779472  0.521104  0.244900  1
  Al  Al20  1  0.521104  0.779472  0.744900  1
  Al  Al21  1  0.478896  0.220528  0.255100  1
  Re  Re22  1  0.000000  0.500000  0.000000  1
  Re  Re23  1  0.500000  0.000000  0.500000  1
  Rh  Rh24  1  0.000000  0.500000  0.500000  1
  Rh  Rh25  1  0.500000  0.000000  0.000000  1
