# generated using pymatgen
data_CaPr2(DySi2)2
_symmetry_space_group_name_H-M   'P 1'
_cell_length_a   7.50362500
_cell_length_b   7.89503800
_cell_length_c   14.96486600
_cell_angle_alpha   90.00000000
_cell_angle_beta   90.00000000
_cell_angle_gamma   90.00000000
_symmetry_Int_Tables_number   1
_chemical_formula_structural   CaPr2(DySi2)2
_chemical_formula_sum   'Ca4 Pr8 Dy8 Si16'
_cell_volume   886.53968019
_cell_formula_units_Z   4
loop_
 _symmetry_equiv_pos_site_id
 _symmetry_equiv_pos_as_xyz
  1  'x, y, z'
loop_
 _atom_site_type_symbol
 _atom_site_label
 _atom_site_symmetry_multiplicity
 _atom_site_fract_x
 _atom_site_fract_y
 _atom_site_fract_z
 _atom_site_occupancy
  Ca  Ca0  1  0.654072  0.988131  0.750000  1
  Ca  Ca1  1  0.845928  0.488131  0.250000  1
  Ca  Ca2  1  0.345928  0.011869  0.250000  1
  Ca  Ca3  1  0.154072  0.511869  0.750000  1
  Pr  Pr4  1  0.022931  0.180533  0.401799  1
  Pr  Pr5  1  0.522931  0.319467  0.401799  1
  Pr  Pr6  1  0.477069  0.680533  0.901799  1
  Pr  Pr7  1  0.477069  0.680533  0.598201  1
  Pr  Pr8  1  0.977069  0.819467  0.598201  1
  Pr  Pr9  1  0.977069  0.819467  0.901799  1
  Pr  Pr10  1  0.522931  0.319467  0.098201  1
  Pr  Pr11  1  0.022931  0.180533  0.098201  1
  Dy  Dy12  1  0.323413  0.181477  0.623107  1
  Dy  Dy13  1  0.676587  0.818523  0.376893  1
  Dy  Dy14  1  0.176587  0.681477  0.376893  1
  Dy  Dy15  1  0.823413  0.318523  0.876893  1
  Dy  Dy16  1  0.823413  0.318523  0.623107  1
  Dy  Dy17  1  0.323413  0.181477  0.876893  1
  Dy  Dy18  1  0.176587  0.681477  0.123107  1
  Dy  Dy19  1  0.676587  0.818523  0.123107  1
  Si  Si20  1  0.267745  0.888334  0.750000  1
  Si  Si21  1  0.467211  0.606866  0.250000  1
  Si  Si22  1  0.032789  0.106866  0.750000  1
  Si  Si23  1  0.532789  0.393134  0.750000  1
  Si  Si24  1  0.148696  0.467033  0.535057  1
  Si  Si25  1  0.967211  0.893134  0.250000  1
  Si  Si26  1  0.732255  0.111666  0.250000  1
  Si  Si27  1  0.851304  0.532967  0.035057  1
  Si  Si28  1  0.351304  0.967033  0.035057  1
  Si  Si29  1  0.148696  0.467033  0.964943  1
  Si  Si30  1  0.648696  0.032967  0.535057  1
  Si  Si31  1  0.351304  0.967033  0.464943  1
  Si  Si32  1  0.851304  0.532967  0.464943  1
  Si  Si33  1  0.767745  0.611666  0.750000  1
  Si  Si34  1  0.232255  0.388334  0.250000  1
  Si  Si35  1  0.648696  0.032967  0.964943  1
