# generated using pymatgen
data_TbYRe7Si4Mo
_symmetry_space_group_name_H-M   'P 1'
_cell_length_a   7.14481731
_cell_length_b   7.68915917
_cell_length_c   4.17420000
_cell_angle_alpha   90.00000000
_cell_angle_beta   90.00000000
_cell_angle_gamma   90.13442277
_symmetry_Int_Tables_number   1
_chemical_formula_structural   TbYRe7Si4Mo
_chemical_formula_sum   'Tb1 Y1 Re7 Si4 Mo1'
_cell_volume   229.32005558
_cell_formula_units_Z   1
loop_
 _symmetry_equiv_pos_site_id
 _symmetry_equiv_pos_as_xyz
  1  'x, y, z'
loop_
 _atom_site_type_symbol
 _atom_site_label
 _atom_site_symmetry_multiplicity
 _atom_site_fract_x
 _atom_site_fract_y
 _atom_site_fract_z
 _atom_site_occupancy
  Tb  Tb0  1  0.999108  0.999950  0.500000  1
  Y  Y1  1  0.500767  0.498856  0.000000  1
  Re  Re2  1  0.155692  0.604892  0.500000  1
  Re  Re3  1  0.083290  0.340562  0.000000  1
  Re  Re4  1  0.918854  0.657456  0.000000  1
  Re  Re5  1  0.417063  0.840474  0.500000  1
  Re  Re6  1  0.581564  0.163600  0.500000  1
  Re  Re7  1  0.343898  0.107190  0.000000  1
  Re  Re8  1  0.846148  0.393869  0.500000  1
  Si  Si9  1  0.223652  0.806134  0.000000  1
  Si  Si10  1  0.777994  0.195572  0.000000  1
  Si  Si11  1  0.723750  0.693012  0.500000  1
  Si  Si12  1  0.276873  0.305520  0.500000  1
  Mo  Mo13  1  0.651348  0.892915  0.000000  1
