# generated using pymatgen
data_HfZr3(Al3Ir)6
_symmetry_space_group_name_H-M   'P 1'
_cell_length_a   7.48251212
_cell_length_b   7.48207900
_cell_length_c   9.24144600
_cell_angle_alpha   90.00000000
_cell_angle_beta   90.00000000
_cell_angle_gamma   119.80547775
_symmetry_Int_Tables_number   1
_chemical_formula_structural   HfZr3(Al3Ir)6
_chemical_formula_sum   'Hf1 Zr3 Al18 Ir6'
_cell_volume   448.93991811
_cell_formula_units_Z   1
loop_
 _symmetry_equiv_pos_site_id
 _symmetry_equiv_pos_as_xyz
  1  'x, y, z'
loop_
 _atom_site_type_symbol
 _atom_site_label
 _atom_site_symmetry_multiplicity
 _atom_site_fract_x
 _atom_site_fract_y
 _atom_site_fract_z
 _atom_site_occupancy
  Hf  Hf0  1  0.994036  0.672203  0.250000  1
  Zr  Zr1  1  0.006356  0.328573  0.750000  1
  Zr  Zr2  1  0.671361  0.993713  0.250000  1
  Zr  Zr3  1  0.328279  0.006357  0.750000  1
  Al  Al4  1  0.124470  0.124458  0.250000  1
  Al  Al5  1  0.875345  0.875264  0.750000  1
  Al  Al6  1  0.997847  0.334659  0.077037  1
  Al  Al7  1  0.001654  0.665249  0.924136  1
  Al  Al8  1  0.001654  0.665249  0.575864  1
  Al  Al9  1  0.334916  0.998105  0.422912  1
  Al  Al10  1  0.997847  0.334659  0.422963  1
  Al  Al11  1  0.665350  0.001759  0.575879  1
  Al  Al12  1  0.665350  0.001759  0.924121  1
  Al  Al13  1  0.334916  0.998105  0.077088  1
  Al  Al14  1  0.332019  0.332067  0.555706  1
  Al  Al15  1  0.668286  0.668222  0.441501  1
  Al  Al16  1  0.668286  0.668222  0.058499  1
  Al  Al17  1  0.332019  0.332067  0.944294  1
  Al  Al18  1  0.338498  0.553538  0.250000  1
  Al  Al19  1  0.660574  0.446441  0.750000  1
  Al  Al20  1  0.554147  0.339500  0.250000  1
  Al  Al21  1  0.446460  0.660368  0.750000  1
  Ir  Ir22  1  0.673115  0.327984  0.000245  1
  Ir  Ir23  1  0.327070  0.672597  0.000132  1
  Ir  Ir24  1  0.327070  0.672597  0.499868  1
  Ir  Ir25  1  0.673115  0.327984  0.499755  1
  Ir  Ir26  1  0.999981  0.999149  0.000429  1
  Ir  Ir27  1  0.999981  0.999149  0.499571  1
