# generated using pymatgen
data_La8Tb2Ir3Rh
_symmetry_space_group_name_H-M   'P 1'
_cell_length_a   6.70734002
_cell_length_b   7.30167850
_cell_length_c   9.14347000
_cell_angle_alpha   95.82439920
_cell_angle_beta   111.25534207
_cell_angle_gamma   90.00856686
_symmetry_Int_Tables_number   1
_chemical_formula_structural   La8Tb2Ir3Rh
_chemical_formula_sum   'La8 Tb2 Ir3 Rh1'
_cell_volume   414.85387047
_cell_formula_units_Z   1
loop_
 _symmetry_equiv_pos_site_id
 _symmetry_equiv_pos_as_xyz
  1  'x, y, z'
loop_
 _atom_site_type_symbol
 _atom_site_label
 _atom_site_symmetry_multiplicity
 _atom_site_fract_x
 _atom_site_fract_y
 _atom_site_fract_z
 _atom_site_occupancy
  La  La0  1  0.799369  0.082607  0.818049  1
  La  La1  1  0.982290  0.416432  0.182206  1
  La  La2  1  0.200723  0.917196  0.182178  1
  La  La3  1  0.019049  0.584346  0.818651  1
  La  La4  1  0.215278  0.183562  0.573113  1
  La  La5  1  0.642710  0.315669  0.425267  1
  La  La6  1  0.783433  0.815674  0.427257  1
  La  La7  1  0.357986  0.684290  0.573821  1
  Tb  Tb8  1  0.432343  0.249666  0.000695  1
  Tb  Tb9  1  0.566961  0.751631  0.000756  1
  Ir  Ir10  1  0.807971  0.075079  0.214239  1
  Ir  Ir11  1  0.402282  0.574050  0.211690  1
  Ir  Ir12  1  0.190928  0.924497  0.784971  1
  Rh  Rh13  1  0.598678  0.425301  0.787108  1
