# generated using pymatgen
data_Dy3Ga4Co4Ni5B2
_symmetry_space_group_name_H-M   'P 1'
_cell_length_a   5.15186075
_cell_length_b   5.15186165
_cell_length_c   10.49055900
_cell_angle_alpha   90.00000000
_cell_angle_beta   90.00000000
_cell_angle_gamma   119.20252466
_symmetry_Int_Tables_number   1
_chemical_formula_structural   Dy3Ga4Co4Ni5B2
_chemical_formula_sum   'Dy3 Ga4 Co4 Ni5 B2'
_cell_volume   243.04781446
_cell_formula_units_Z   1
loop_
 _symmetry_equiv_pos_site_id
 _symmetry_equiv_pos_as_xyz
  1  'x, y, z'
loop_
 _atom_site_type_symbol
 _atom_site_label
 _atom_site_symmetry_multiplicity
 _atom_site_fract_x
 _atom_site_fract_y
 _atom_site_fract_z
 _atom_site_occupancy
  Dy  Dy0  1  0.000000  0.000000  0.000000  1
  Dy  Dy1  1  0.000000  0.000000  0.327236  1
  Dy  Dy2  1  0.000000  0.000000  0.672764  1
  Ga  Ga3  1  0.332741  0.667259  0.314371  1
  Ga  Ga4  1  0.667259  0.332741  0.314371  1
  Ga  Ga5  1  0.667259  0.332741  0.685629  1
  Ga  Ga6  1  0.332741  0.667259  0.685629  1
  Co  Co7  1  0.500000  0.000000  0.129349  1
  Co  Co8  1  0.000000  0.500000  0.129349  1
  Co  Co9  1  0.500000  0.000000  0.870651  1
  Co  Co10  1  0.000000  0.500000  0.870651  1
  Ni  Ni11  1  0.500000  0.000000  0.500000  1
  Ni  Ni12  1  0.500000  0.500000  0.500000  1
  Ni  Ni13  1  0.000000  0.500000  0.500000  1
  Ni  Ni14  1  0.500000  0.500000  0.128504  1
  Ni  Ni15  1  0.500000  0.500000  0.871496  1
  B  B16  1  0.326430  0.673570  0.000000  1
  B  B17  1  0.673570  0.326430  0.000000  1
