# generated using pymatgen
data_TiBe9VW
_symmetry_space_group_name_H-M   'P 1'
_cell_length_a   7.39515824
_cell_length_b   7.39515854
_cell_length_c   7.39515832
_cell_angle_alpha   34.63764548
_cell_angle_beta   34.63764565
_cell_angle_gamma   34.63763409
_symmetry_Int_Tables_number   1
_chemical_formula_structural   TiBe9VW
_chemical_formula_sum   'Ti1 Be9 V1 W1'
_cell_volume   116.58764749
_cell_formula_units_Z   1
loop_
 _symmetry_equiv_pos_site_id
 _symmetry_equiv_pos_as_xyz
  1  'x, y, z'
loop_
 _atom_site_type_symbol
 _atom_site_label
 _atom_site_symmetry_multiplicity
 _atom_site_fract_x
 _atom_site_fract_y
 _atom_site_fract_z
 _atom_site_occupancy
  Ti  Ti0  1  0.001279  0.001279  0.001279  1
  Be  Be1  1  0.413804  0.921993  0.413804  1
  Be  Be2  1  0.413804  0.413804  0.921993  1
  Be  Be3  1  0.921993  0.413804  0.413804  1
  Be  Be4  1  0.585872  0.078481  0.585872  1
  Be  Be5  1  0.585872  0.585872  0.078481  1
  Be  Be6  1  0.078481  0.585872  0.585872  1
  Be  Be7  1  0.664559  0.664559  0.664559  1
  Be  Be8  1  0.333983  0.333983  0.333983  1
  Be  Be9  1  0.500200  0.500200  0.500200  1
  V  V10  1  0.855575  0.855575  0.855575  1
  W  W11  1  0.144577  0.144577  0.144577  1
