# generated using pymatgen
data_K3Yb(PO4)2
_symmetry_space_group_name_H-M   'P 1'
_cell_length_a   5.76657259
_cell_length_b   5.76657315
_cell_length_c   7.49602405
_cell_angle_alpha   86.54651790
_cell_angle_beta   86.54651701
_cell_angle_gamma   59.54595534
_symmetry_Int_Tables_number   1
_chemical_formula_structural   K3Yb(PO4)2
_chemical_formula_sum   'K3 Yb1 P2 O8'
_cell_volume   214.35991443
_cell_formula_units_Z   1
loop_
 _symmetry_equiv_pos_site_id
 _symmetry_equiv_pos_as_xyz
  1  'x, y, z'
loop_
 _atom_site_type_symbol
 _atom_site_label
 _atom_site_symmetry_multiplicity
 _atom_site_fract_x
 _atom_site_fract_y
 _atom_site_fract_z
 _atom_site_occupancy
  K  K0  1  0.000000  0.000000  0.000000  1
  K  K1  1  0.332165  0.332165  0.698657  1
  K  K2  1  0.667835  0.667835  0.301343  1
  Yb  Yb3  1  0.000000  0.000000  0.500000  1
  P  P4  1  0.341345  0.341345  0.249662  1
  P  P5  1  0.658655  0.658655  0.750338  1
  O  O6  1  0.362389  0.362389  0.041843  1
  O  O7  1  0.637611  0.637611  0.958157  1
  O  O8  1  0.187041  0.187041  0.295138  1
  O  O9  1  0.812959  0.812959  0.704863  1
  O  O10  1  0.182841  0.626300  0.327914  1
  O  O11  1  0.626300  0.182841  0.327914  1
  O  O12  1  0.817159  0.373700  0.672086  1
  O  O13  1  0.373700  0.817159  0.672086  1
