# generated using pymatgen
data_Er3Hg(Ir2O7)2
_symmetry_space_group_name_H-M   'P 1'
_cell_length_a   7.17076305
_cell_length_b   7.31888819
_cell_length_c   7.31888900
_cell_angle_alpha   60.00000087
_cell_angle_beta   59.31429355
_cell_angle_gamma   59.31428498
_symmetry_Int_Tables_number   1
_chemical_formula_structural   Er3Hg(Ir2O7)2
_chemical_formula_sum   'Er3 Hg1 Ir4 O14'
_cell_volume   268.75760876
_cell_formula_units_Z   1
loop_
 _symmetry_equiv_pos_site_id
 _symmetry_equiv_pos_as_xyz
  1  'x, y, z'
loop_
 _atom_site_type_symbol
 _atom_site_label
 _atom_site_symmetry_multiplicity
 _atom_site_fract_x
 _atom_site_fract_y
 _atom_site_fract_z
 _atom_site_occupancy
  Er  Er0  1  0.125000  0.125000  0.625000  1
  Er  Er1  1  0.125000  0.125000  0.125000  1
  Er  Er2  1  0.125000  0.625000  0.125000  1
  Hg  Hg3  1  0.625000  0.125000  0.125000  1
  Ir  Ir4  1  0.625000  0.625000  0.625000  1
  Ir  Ir5  1  0.125000  0.625000  0.625000  1
  Ir  Ir6  1  0.625000  0.125000  0.625000  1
  Ir  Ir7  1  0.625000  0.625000  0.125000  1
  O  O8  1  0.965851  0.536866  0.536866  1
  O  O9  1  0.284149  0.289583  0.713134  1
  O  O10  1  0.965851  0.536866  0.960417  1
  O  O11  1  0.716845  0.296371  0.296371  1
  O  O12  1  0.533155  0.559588  0.953629  1
  O  O13  1  0.533155  0.953629  0.559588  1
  O  O14  1  0.533155  0.953629  0.953629  1
  O  O15  1  0.242662  0.252446  0.252446  1
  O  O16  1  0.284149  0.713134  0.713134  1
  O  O17  1  0.716845  0.296371  0.690412  1
  O  O18  1  0.007338  0.997554  0.997554  1
  O  O19  1  0.965851  0.960417  0.536866  1
  O  O20  1  0.284149  0.713134  0.289583  1
  O  O21  1  0.716845  0.690412  0.296371  1
