# generated using pymatgen
data_ErFeCo4P3
_symmetry_space_group_name_H-M   'P 1'
_cell_length_a   3.64788500
_cell_length_b   10.22775200
_cell_length_c   11.74291500
_cell_angle_alpha   90.00000000
_cell_angle_beta   90.00000000
_cell_angle_gamma   90.00000000
_symmetry_Int_Tables_number   1
_chemical_formula_structural   ErFeCo4P3
_chemical_formula_sum   'Er4 Fe4 Co16 P12'
_cell_volume   438.12420252
_cell_formula_units_Z   4
loop_
 _symmetry_equiv_pos_site_id
 _symmetry_equiv_pos_as_xyz
  1  'x, y, z'
loop_
 _atom_site_type_symbol
 _atom_site_label
 _atom_site_symmetry_multiplicity
 _atom_site_fract_x
 _atom_site_fract_y
 _atom_site_fract_z
 _atom_site_occupancy
  Er  Er0  1  0.250000  0.580735  0.703217  1
  Er  Er1  1  0.250000  0.919265  0.203217  1
  Er  Er2  1  0.750000  0.419265  0.296783  1
  Er  Er3  1  0.750000  0.080735  0.796783  1
  Fe  Fe4  1  0.250000  0.710244  0.987664  1
  Fe  Fe5  1  0.250000  0.789756  0.487664  1
  Fe  Fe6  1  0.750000  0.289756  0.012336  1
  Fe  Fe7  1  0.750000  0.210244  0.512336  1
  Co  Co8  1  0.250000  0.406204  0.486926  1
  Co  Co9  1  0.250000  0.093796  0.986926  1
  Co  Co10  1  0.750000  0.593796  0.513074  1
  Co  Co11  1  0.750000  0.906204  0.013074  1
  Co  Co12  1  0.250000  0.221840  0.176548  1
  Co  Co13  1  0.250000  0.278160  0.676548  1
  Co  Co14  1  0.750000  0.778160  0.823452  1
  Co  Co15  1  0.750000  0.721840  0.323452  1
  Co  Co16  1  0.250000  0.881837  0.698709  1
  Co  Co17  1  0.250000  0.618163  0.198709  1
  Co  Co18  1  0.750000  0.118163  0.301291  1
  Co  Co19  1  0.750000  0.381837  0.801291  1
  Co  Co20  1  0.250000  0.466171  0.932752  1
  Co  Co21  1  0.250000  0.033829  0.432752  1
  Co  Co22  1  0.750000  0.533829  0.067248  1
  Co  Co23  1  0.750000  0.966171  0.567248  1
  P  P24  1  0.250000  0.419450  0.113627  1
  P  P25  1  0.250000  0.080550  0.613627  1
  P  P26  1  0.750000  0.580550  0.886373  1
  P  P27  1  0.750000  0.919450  0.386373  1
  P  P28  1  0.250000  0.268523  0.868090  1
  P  P29  1  0.250000  0.231477  0.368090  1
  P  P30  1  0.750000  0.731477  0.131910  1
  P  P31  1  0.750000  0.768523  0.631910  1
  P  P32  1  0.250000  0.601938  0.392125  1
  P  P33  1  0.250000  0.898062  0.892125  1
  P  P34  1  0.750000  0.398062  0.607875  1
  P  P35  1  0.750000  0.101938  0.107875  1
