# generated using pymatgen
data_LuZn2InPt2
_symmetry_space_group_name_H-M   'P 1'
_cell_length_a   4.13684800
_cell_length_b   6.60319327
_cell_length_c   8.16510326
_cell_angle_alpha   91.99585646
_cell_angle_beta   90.00000000
_cell_angle_gamma   90.00000000
_symmetry_Int_Tables_number   1
_chemical_formula_structural   LuZn2InPt2
_chemical_formula_sum   'Lu2 Zn4 In2 Pt4'
_cell_volume   222.90597443
_cell_formula_units_Z   2
loop_
 _symmetry_equiv_pos_site_id
 _symmetry_equiv_pos_as_xyz
  1  'x, y, z'
loop_
 _atom_site_type_symbol
 _atom_site_label
 _atom_site_symmetry_multiplicity
 _atom_site_fract_x
 _atom_site_fract_y
 _atom_site_fract_z
 _atom_site_occupancy
  Lu  Lu0  1  0.750000  0.963553  0.682447  1
  Lu  Lu1  1  0.250000  0.036447  0.317553  1
  Zn  Zn2  1  0.250000  0.645259  0.558579  1
  Zn  Zn3  1  0.750000  0.354741  0.441421  1
  Zn  Zn4  1  0.750000  0.859239  0.059696  1
  Zn  Zn5  1  0.250000  0.140761  0.940304  1
  In  In6  1  0.250000  0.538095  0.178335  1
  In  In7  1  0.750000  0.461905  0.821665  1
  Pt  Pt8  1  0.250000  0.748338  0.874051  1
  Pt  Pt9  1  0.750000  0.251662  0.125949  1
  Pt  Pt10  1  0.750000  0.743007  0.371751  1
  Pt  Pt11  1  0.250000  0.256993  0.628249  1
