# generated using pymatgen
data_CaHo4Tl5
_symmetry_space_group_name_H-M   'P 1'
_cell_length_a   3.70592900
_cell_length_b   3.70592900
_cell_length_c   20.20505100
_cell_angle_alpha   90.00000000
_cell_angle_beta   90.00000000
_cell_angle_gamma   90.00000000
_symmetry_Int_Tables_number   1
_chemical_formula_structural   CaHo4Tl5
_chemical_formula_sum   'Ca1 Ho4 Tl5'
_cell_volume   277.49434699
_cell_formula_units_Z   1
loop_
 _symmetry_equiv_pos_site_id
 _symmetry_equiv_pos_as_xyz
  1  'x, y, z'
loop_
 _atom_site_type_symbol
 _atom_site_label
 _atom_site_symmetry_multiplicity
 _atom_site_fract_x
 _atom_site_fract_y
 _atom_site_fract_z
 _atom_site_occupancy
  Ca  Ca0  1  0.000000  0.000000  0.000000  1
  Ho  Ho1  1  0.000000  0.000000  0.204008  1
  Ho  Ho2  1  0.000000  0.000000  0.401838  1
  Ho  Ho3  1  0.000000  0.000000  0.598162  1
  Ho  Ho4  1  0.000000  0.000000  0.795992  1
  Tl  Tl5  1  0.500000  0.500000  0.104520  1
  Tl  Tl6  1  0.500000  0.500000  0.302689  1
  Tl  Tl7  1  0.500000  0.500000  0.500000  1
  Tl  Tl8  1  0.500000  0.500000  0.697311  1
  Tl  Tl9  1  0.500000  0.500000  0.895480  1
