# generated using pymatgen
data_Er3(Sn2Ru)2
_symmetry_space_group_name_H-M   'P 1'
_cell_length_a   7.55759100
_cell_length_b   7.55759106
_cell_length_c   4.09440200
_cell_angle_alpha   90.00000000
_cell_angle_beta   90.00000000
_cell_angle_gamma   120.00001287
_symmetry_Int_Tables_number   1
_chemical_formula_structural   Er3(Sn2Ru)2
_chemical_formula_sum   'Er3 Sn4 Ru2'
_cell_volume   202.52928514
_cell_formula_units_Z   1
loop_
 _symmetry_equiv_pos_site_id
 _symmetry_equiv_pos_as_xyz
  1  'x, y, z'
loop_
 _atom_site_type_symbol
 _atom_site_label
 _atom_site_symmetry_multiplicity
 _atom_site_fract_x
 _atom_site_fract_y
 _atom_site_fract_z
 _atom_site_occupancy
  Er  Er0  1  0.975432  0.392109  0.500000  1
  Er  Er1  1  0.607891  0.583324  0.500000  1
  Er  Er2  1  0.416676  0.024568  0.500000  1
  Sn  Sn3  1  0.980509  0.742392  0.000000  1
  Sn  Sn4  1  0.257608  0.238117  0.000000  1
  Sn  Sn5  1  0.761883  0.019491  0.000000  1
  Sn  Sn6  1  0.333333  0.666667  0.000000  1
  Ru  Ru7  1  0.666667  0.333333  0.000000  1
  Ru  Ru8  1  0.000000  0.000000  0.500000  1
