# generated using pymatgen
data_LaB4(OsRh)2
_symmetry_space_group_name_H-M   'P 1'
_cell_length_a   4.01804500
_cell_length_b   7.64060400
_cell_length_c   7.64060400
_cell_angle_alpha   90.00000000
_cell_angle_beta   90.00000000
_cell_angle_gamma   90.00000000
_symmetry_Int_Tables_number   1
_chemical_formula_structural   LaB4(OsRh)2
_chemical_formula_sum   'La2 B8 Os4 Rh4'
_cell_volume   234.56876392
_cell_formula_units_Z   2
loop_
 _symmetry_equiv_pos_site_id
 _symmetry_equiv_pos_as_xyz
  1  'x, y, z'
loop_
 _atom_site_type_symbol
 _atom_site_label
 _atom_site_symmetry_multiplicity
 _atom_site_fract_x
 _atom_site_fract_y
 _atom_site_fract_z
 _atom_site_occupancy
  La  La0  1  0.255142  0.250000  0.250000  1
  La  La1  1  0.755142  0.750000  0.750000  1
  B  B2  1  0.359429  0.912929  0.035265  1
  B  B3  1  0.359429  0.587071  0.464735  1
  B  B4  1  0.859429  0.535265  0.087071  1
  B  B5  1  0.859429  0.964735  0.412929  1
  B  B6  1  0.643011  0.086357  0.966656  1
  B  B7  1  0.643011  0.413643  0.533344  1
  B  B8  1  0.143011  0.466656  0.913643  1
  B  B9  1  0.143011  0.033344  0.586357  1
  Os  Os10  1  0.856045  0.603431  0.358236  1
  Os  Os11  1  0.856045  0.896569  0.141764  1
  Os  Os12  1  0.356045  0.858236  0.396569  1
  Os  Os13  1  0.356045  0.641764  0.103431  1
  Rh  Rh14  1  0.138944  0.400953  0.638769  1
  Rh  Rh15  1  0.138944  0.099047  0.861231  1
  Rh  Rh16  1  0.638944  0.138769  0.599047  1
  Rh  Rh17  1  0.638944  0.361231  0.900953  1
