# generated using pymatgen
data_Ho4Tm4Sc12Si15Hg
_symmetry_space_group_name_H-M   'P 1'
_cell_length_a   7.09636751
_cell_length_b   7.36547522
_cell_length_c   14.02293772
_cell_angle_alpha   89.95192991
_cell_angle_beta   89.57144274
_cell_angle_gamma   90.16431894
_symmetry_Int_Tables_number   1
_chemical_formula_structural   Ho4Tm4Sc12Si15Hg
_chemical_formula_sum   'Ho4 Tm4 Sc12 Si15 Hg1'
_cell_volume   732.92879015
_cell_formula_units_Z   1
loop_
 _symmetry_equiv_pos_site_id
 _symmetry_equiv_pos_as_xyz
  1  'x, y, z'
loop_
 _atom_site_type_symbol
 _atom_site_label
 _atom_site_symmetry_multiplicity
 _atom_site_fract_x
 _atom_site_fract_y
 _atom_site_fract_z
 _atom_site_occupancy
  Ho  Ho0  1  0.012223  0.176171  0.097108  1
  Ho  Ho1  1  0.987467  0.824674  0.904609  1
  Ho  Ho2  1  0.487487  0.677227  0.904378  1
  Ho  Ho3  1  0.988384  0.830539  0.597742  1
  Tm  Tm4  1  0.512063  0.322809  0.096659  1
  Tm  Tm5  1  0.007915  0.172220  0.398317  1
  Tm  Tm6  1  0.511259  0.321761  0.399296  1
  Tm  Tm7  1  0.496268  0.681952  0.599765  1
  Sc  Sc8  1  0.162318  0.501809  0.753980  1
  Sc  Sc9  1  0.837077  0.497712  0.250250  1
  Sc  Sc10  1  0.337847  0.002030  0.249015  1
  Sc  Sc11  1  0.664353  0.995924  0.751384  1
  Sc  Sc12  1  0.341490  0.168332  0.628722  1
  Sc  Sc13  1  0.664666  0.824656  0.372782  1
  Sc  Sc14  1  0.167021  0.677841  0.370693  1
  Sc  Sc15  1  0.669553  0.823701  0.124704  1
  Sc  Sc16  1  0.825736  0.324937  0.625990  1
  Sc  Sc17  1  0.329240  0.175295  0.876114  1
  Sc  Sc18  1  0.829797  0.322770  0.876206  1
  Sc  Sc19  1  0.169280  0.676607  0.125192  1
  Si  Si20  1  0.034776  0.118905  0.751454  1
  Si  Si21  1  0.965350  0.885741  0.248156  1
  Si  Si22  1  0.466856  0.613334  0.248017  1
  Si  Si23  1  0.533176  0.387363  0.751852  1
  Si  Si24  1  0.284631  0.870635  0.751394  1
  Si  Si25  1  0.712935  0.129861  0.248178  1
  Si  Si26  1  0.213927  0.369597  0.248310  1
  Si  Si27  1  0.787885  0.629188  0.752337  1
  Si  Si28  1  0.831167  0.537252  0.458898  1
  Si  Si29  1  0.338254  0.963543  0.459606  1
  Si  Si30  1  0.842186  0.534862  0.039060  1
  Si  Si31  1  0.660083  0.036862  0.537409  1
  Si  Si32  1  0.157293  0.464109  0.962401  1
  Si  Si33  1  0.656744  0.035086  0.961011  1
  Si  Si34  1  0.342785  0.965711  0.040061  1
  Hg  Hg35  1  0.170509  0.458984  0.538954  1
