# generated using pymatgen
data_Zr4Ti3NbAs4
_symmetry_space_group_name_H-M   'P 1'
_cell_length_a   3.67108500
_cell_length_b   6.96454865
_cell_length_c   8.48375212
_cell_angle_alpha   90.08129223
_cell_angle_beta   90.00000000
_cell_angle_gamma   90.00000000
_symmetry_Int_Tables_number   1
_chemical_formula_structural   Zr4Ti3NbAs4
_chemical_formula_sum   'Zr4 Ti3 Nb1 As4'
_cell_volume   216.90769065
_cell_formula_units_Z   1
loop_
 _symmetry_equiv_pos_site_id
 _symmetry_equiv_pos_as_xyz
  1  'x, y, z'
loop_
 _atom_site_type_symbol
 _atom_site_label
 _atom_site_symmetry_multiplicity
 _atom_site_fract_x
 _atom_site_fract_y
 _atom_site_fract_z
 _atom_site_occupancy
  Zr  Zr0  1  0.250000  0.040247  0.665592  1
  Zr  Zr1  1  0.250000  0.542684  0.831873  1
  Zr  Zr2  1  0.750000  0.453933  0.169164  1
  Zr  Zr3  1  0.750000  0.957129  0.332398  1
  Ti  Ti4  1  0.750000  0.869467  0.941123  1
  Ti  Ti5  1  0.250000  0.633613  0.440353  1
  Ti  Ti6  1  0.750000  0.369343  0.560674  1
  Nb  Nb7  1  0.250000  0.135048  0.059328  1
  As  As8  1  0.250000  0.259296  0.366292  1
  As  As9  1  0.250000  0.754711  0.139837  1
  As  As10  1  0.750000  0.741695  0.639339  1
  As  As11  1  0.750000  0.242835  0.854026  1
