# generated using pymatgen
data_Pr4SmSi2Pb
_symmetry_space_group_name_H-M   'P 1'
_cell_length_a   7.93146611
_cell_length_b   7.93146758
_cell_length_c   9.33880008
_cell_angle_alpha   115.12859652
_cell_angle_beta   115.12859226
_cell_angle_gamma   89.99999682
_symmetry_Int_Tables_number   1
_chemical_formula_structural   Pr4SmSi2Pb
_chemical_formula_sum   'Pr8 Sm2 Si4 Pb2'
_cell_volume   469.74796762
_cell_formula_units_Z   2
loop_
 _symmetry_equiv_pos_site_id
 _symmetry_equiv_pos_as_xyz
  1  'x, y, z'
loop_
 _atom_site_type_symbol
 _atom_site_label
 _atom_site_symmetry_multiplicity
 _atom_site_fract_x
 _atom_site_fract_y
 _atom_site_fract_z
 _atom_site_occupancy
  Pr  Pr0  1  0.962751  0.812151  0.274901  1
  Pr  Pr1  1  0.312151  0.462751  0.274901  1
  Pr  Pr2  1  0.812151  0.312151  0.274901  1
  Pr  Pr3  1  0.462751  0.962751  0.274901  1
  Pr  Pr4  1  0.037249  0.187849  0.725099  1
  Pr  Pr5  1  0.687849  0.537249  0.725099  1
  Pr  Pr6  1  0.187849  0.687849  0.725099  1
  Pr  Pr7  1  0.537249  0.037249  0.725099  1
  Sm  Sm8  1  0.500000  0.500000  0.000000  1
  Sm  Sm9  1  0.000000  0.000000  0.000000  1
  Si  Si10  1  0.619260  0.880740  0.000000  1
  Si  Si11  1  0.380740  0.119260  0.000000  1
  Si  Si12  1  0.880740  0.380740  0.000000  1
  Si  Si13  1  0.119260  0.619260  0.000000  1
  Pb  Pb14  1  0.750000  0.750000  0.500000  1
  Pb  Pb15  1  0.250000  0.250000  0.500000  1
