# generated using pymatgen
data_CoSn(ClO)2
_symmetry_space_group_name_H-M   'P 1'
_cell_length_a   5.26802903
_cell_length_b   5.27516106
_cell_length_c   9.29059556
_cell_angle_alpha   75.93479522
_cell_angle_beta   75.95931074
_cell_angle_gamma   98.21266217
_symmetry_Int_Tables_number   1
_chemical_formula_structural   CoSn(ClO)2
_chemical_formula_sum   'Co2 Sn2 Cl4 O4'
_cell_volume   237.30757598
_cell_formula_units_Z   2
loop_
 _symmetry_equiv_pos_site_id
 _symmetry_equiv_pos_as_xyz
  1  'x, y, z'
loop_
 _atom_site_type_symbol
 _atom_site_label
 _atom_site_symmetry_multiplicity
 _atom_site_fract_x
 _atom_site_fract_y
 _atom_site_fract_z
 _atom_site_occupancy
  Co  Co0  1  0.692224  0.692278  0.115644  1
  Co  Co1  1  0.807777  0.307721  0.884356  1
  Sn  Sn2  1  0.195783  0.195710  0.108867  1
  Sn  Sn3  1  0.304219  0.804291  0.891131  1
  Cl  Cl4  1  0.346912  0.336467  0.313877  1
  Cl  Cl5  1  0.839562  0.850019  0.313776  1
  Cl  Cl6  1  0.153084  0.663535  0.686124  1
  Cl  Cl7  1  0.660434  0.149981  0.686224  1
  O  O8  1  0.027995  0.033229  0.955110  1
  O  O9  1  0.516916  0.511719  0.955081  1
  O  O10  1  0.472007  0.966771  0.044891  1
  O  O11  1  0.983087  0.488282  0.044918  1
