# generated using pymatgen
data_HfZr3In2(CoPd)2
_symmetry_space_group_name_H-M   'P 1'
_cell_length_a   7.48767872
_cell_length_b   7.48767905
_cell_length_c   3.28114100
_cell_angle_alpha   90.00000000
_cell_angle_beta   90.00000000
_cell_angle_gamma   89.02342266
_symmetry_Int_Tables_number   1
_chemical_formula_structural   HfZr3In2(CoPd)2
_chemical_formula_sum   'Hf1 Zr3 In2 Co2 Pd2'
_cell_volume   183.93154907
_cell_formula_units_Z   1
loop_
 _symmetry_equiv_pos_site_id
 _symmetry_equiv_pos_as_xyz
  1  'x, y, z'
loop_
 _atom_site_type_symbol
 _atom_site_label
 _atom_site_symmetry_multiplicity
 _atom_site_fract_x
 _atom_site_fract_y
 _atom_site_fract_z
 _atom_site_occupancy
  Hf  Hf0  1  0.346450  0.846450  0.000000  1
  Zr  Zr1  1  0.186555  0.313221  0.000000  1
  Zr  Zr2  1  0.813221  0.686555  0.000000  1
  Zr  Zr3  1  0.653650  0.153650  0.000000  1
  In  In4  1  0.000280  0.000183  0.500000  1
  In  In5  1  0.500183  0.500280  0.500000  1
  Co  Co6  1  0.373499  0.122364  0.500000  1
  Co  Co7  1  0.622364  0.873499  0.500000  1
  Pd  Pd8  1  0.872214  0.372214  0.500000  1
  Pd  Pd9  1  0.131585  0.631585  0.500000  1
