# generated using pymatgen
data_Ho2Al3Zn3Cu4
_symmetry_space_group_name_H-M   'P 1'
_cell_length_a   4.10590200
_cell_length_b   5.24411881
_cell_length_c   9.03404809
_cell_angle_alpha   90.29671028
_cell_angle_beta   90.00000000
_cell_angle_gamma   90.00000000
_symmetry_Int_Tables_number   1
_chemical_formula_structural   Ho2Al3Zn3Cu4
_chemical_formula_sum   'Ho2 Al3 Zn3 Cu4'
_cell_volume   194.51705083
_cell_formula_units_Z   1
loop_
 _symmetry_equiv_pos_site_id
 _symmetry_equiv_pos_as_xyz
  1  'x, y, z'
loop_
 _atom_site_type_symbol
 _atom_site_label
 _atom_site_symmetry_multiplicity
 _atom_site_fract_x
 _atom_site_fract_y
 _atom_site_fract_z
 _atom_site_occupancy
  Ho  Ho0  1  0.000000  0.998830  0.997655  1
  Ho  Ho1  1  0.000000  0.501252  0.502306  1
  Al  Al2  1  0.500000  0.504223  0.996904  1
  Al  Al3  1  0.500000  0.995785  0.503205  1
  Al  Al4  1  0.500000  0.249388  0.250117  1
  Zn  Zn5  1  0.500000  0.750763  0.750115  1
  Zn  Zn6  1  0.500000  0.749315  0.250027  1
  Zn  Zn7  1  0.500000  0.250598  0.750094  1
  Cu  Cu8  1  0.000000  0.999831  0.333135  1
  Cu  Cu9  1  0.000000  0.497474  0.833918  1
  Cu  Cu10  1  0.000000  0.496597  0.166458  1
  Cu  Cu11  1  0.000000  0.005741  0.666067  1
