# generated using pymatgen
data_Tm6Al24Fe4RuAu3
_symmetry_space_group_name_H-M   'P 1'
_cell_length_a   8.78717132
_cell_length_b   8.74164401
_cell_length_c   9.36538539
_cell_angle_alpha   90.05531385
_cell_angle_beta   89.95959484
_cell_angle_gamma   119.69892719
_symmetry_Int_Tables_number   1
_chemical_formula_structural   Tm6Al24Fe4RuAu3
_chemical_formula_sum   'Tm6 Al24 Fe4 Ru1 Au3'
_cell_volume   624.89617470
_cell_formula_units_Z   1
loop_
 _symmetry_equiv_pos_site_id
 _symmetry_equiv_pos_as_xyz
  1  'x, y, z'
loop_
 _atom_site_type_symbol
 _atom_site_label
 _atom_site_symmetry_multiplicity
 _atom_site_fract_x
 _atom_site_fract_y
 _atom_site_fract_z
 _atom_site_occupancy
  Tm  Tm0  1  0.807488  0.194802  0.750002  1
  Tm  Tm1  1  0.192512  0.805198  0.249998  1
  Tm  Tm2  1  0.385390  0.191201  0.751196  1
  Tm  Tm3  1  0.614610  0.808799  0.248804  1
  Tm  Tm4  1  0.809574  0.613228  0.744877  1
  Tm  Tm5  1  0.190426  0.386772  0.255123  1
  Al  Al6  1  0.686027  0.343377  0.970247  1
  Al  Al7  1  0.313973  0.656623  0.029753  1
  Al  Al8  1  0.331809  0.678972  0.472296  1
  Al  Al9  1  0.668191  0.321028  0.527704  1
  Al  Al10  1  0.837663  0.159694  0.423671  1
  Al  Al11  1  0.162337  0.840306  0.576329  1
  Al  Al12  1  0.316966  0.145430  0.425939  1
  Al  Al13  1  0.148186  0.829250  0.919727  1
  Al  Al14  1  0.683034  0.854570  0.574061  1
  Al  Al15  1  0.851814  0.170750  0.080273  1
  Al  Al16  1  0.851360  0.683491  0.422196  1
  Al  Al17  1  0.690240  0.844877  0.917939  1
  Al  Al18  1  0.148640  0.316509  0.577804  1
  Al  Al19  1  0.309760  0.155123  0.082061  1
  Al  Al20  1  0.146474  0.317071  0.921713  1
  Al  Al21  1  0.853526  0.682929  0.078287  1
  Al  Al22  1  0.431496  0.566984  0.749975  1
  Al  Al23  1  0.568504  0.433016  0.250025  1
  Al  Al24  1  0.117473  0.558880  0.754204  1
  Al  Al25  1  0.882527  0.441120  0.245796  1
  Al  Al26  1  0.437267  0.876489  0.737380  1
  Al  Al27  1  0.562733  0.123511  0.262620  1
  Al  Al28  1  0.003031  0.000694  0.748938  1
  Al  Al29  1  0.996969  0.999306  0.251062  1
  Fe  Fe30  1  0.000000  0.500000  0.000000  1
  Fe  Fe31  1  0.500000  0.000000  0.500000  1
  Fe  Fe32  1  0.000000  0.000000  0.000000  1
  Fe  Fe33  1  0.000000  0.000000  0.500000  1
  Ru  Ru34  1  0.000000  0.500000  0.500000  1
  Au  Au35  1  0.500000  0.500000  0.000000  1
  Au  Au36  1  0.500000  0.500000  0.500000  1
  Au  Au37  1  0.500000  0.000000  0.000000  1
