# generated using pymatgen
data_Y6C2SCl5
_symmetry_space_group_name_H-M   'P 1'
_cell_length_a   3.74198751
_cell_length_b   8.58817562
_cell_length_c   10.23137949
_cell_angle_alpha   86.61287461
_cell_angle_beta   79.45688811
_cell_angle_gamma   77.19854278
_symmetry_Int_Tables_number   1
_chemical_formula_structural   Y6C2SCl5
_chemical_formula_sum   'Y6 C2 S1 Cl5'
_cell_volume   315.15940895
_cell_formula_units_Z   1
loop_
 _symmetry_equiv_pos_site_id
 _symmetry_equiv_pos_as_xyz
  1  'x, y, z'
loop_
 _atom_site_type_symbol
 _atom_site_label
 _atom_site_symmetry_multiplicity
 _atom_site_fract_x
 _atom_site_fract_y
 _atom_site_fract_z
 _atom_site_occupancy
  Y  Y0  1  0.579544  0.066255  0.779736  1
  Y  Y1  1  0.961333  0.403032  0.676760  1
  Y  Y2  1  0.691327  0.162136  0.456417  1
  Y  Y3  1  0.043971  0.594588  0.321774  1
  Y  Y4  1  0.314033  0.835554  0.542050  1
  Y  Y5  1  0.425773  0.931438  0.218691  1
  C  C6  1  0.127122  0.121123  0.627965  1
  C  C7  1  0.878270  0.876478  0.370362  1
  S  S8  1  0.502669  0.498838  0.499283  1
  Cl  Cl9  1  0.756907  0.743620  0.747527  1
  Cl  Cl10  1  0.377485  0.369875  0.876995  1
  Cl  Cl11  1  0.248364  0.254103  0.250961  1
  Cl  Cl12  1  0.627684  0.627791  0.121571  1
  Cl  Cl13  1  0.002738  0.998757  0.999221  1
