# generated using pymatgen
data_Pr2Cd3In5Ni2
_symmetry_space_group_name_H-M   'P 1'
_cell_length_a   8.82302935
_cell_length_b   8.82302918
_cell_length_c   7.14058905
_cell_angle_alpha   89.98690786
_cell_angle_beta   90.01309025
_cell_angle_gamma   150.69718651
_symmetry_Int_Tables_number   1
_chemical_formula_structural   Pr2Cd3In5Ni2
_chemical_formula_sum   'Pr2 Cd3 In5 Ni2'
_cell_volume   272.05446617
_cell_formula_units_Z   1
loop_
 _symmetry_equiv_pos_site_id
 _symmetry_equiv_pos_as_xyz
  1  'x, y, z'
loop_
 _atom_site_type_symbol
 _atom_site_label
 _atom_site_symmetry_multiplicity
 _atom_site_fract_x
 _atom_site_fract_y
 _atom_site_fract_z
 _atom_site_occupancy
  Pr  Pr0  1  0.876121  0.123879  0.750001  1
  Pr  Pr1  1  0.122056  0.877944  0.249988  1
  Cd  Cd2  1  0.500929  0.499071  0.994992  1
  Cd  Cd3  1  0.500920  0.499080  0.504979  1
  Cd  Cd4  1  0.072243  0.927757  0.749935  1
  In  In5  1  0.928006  0.071994  0.250069  1
  In  In6  1  0.686074  0.313926  0.953290  1
  In  In7  1  0.312634  0.687366  0.046812  1
  In  In8  1  0.686019  0.313981  0.546699  1
  In  In9  1  0.312644  0.687356  0.453210  1
  Ni  Ni10  1  0.225574  0.774426  0.749986  1
  Ni  Ni11  1  0.776779  0.223221  0.250039  1
