# generated using pymatgen
data_Rb3Tl(GaI4)4
_symmetry_space_group_name_H-M   'P 1'
_cell_length_a   8.48693000
_cell_length_b   8.60265030
_cell_length_c   16.83350000
_cell_angle_alpha   85.72129763
_cell_angle_beta   91.10804640
_cell_angle_gamma   91.64040206
_symmetry_Int_Tables_number   1
_chemical_formula_structural   Rb3Tl(GaI4)4
_chemical_formula_sum   'Rb3 Tl1 Ga4 I16'
_cell_volume   1224.90530986
_cell_formula_units_Z   1
loop_
 _symmetry_equiv_pos_site_id
 _symmetry_equiv_pos_as_xyz
  1  'x, y, z'
loop_
 _atom_site_type_symbol
 _atom_site_label
 _atom_site_symmetry_multiplicity
 _atom_site_fract_x
 _atom_site_fract_y
 _atom_site_fract_z
 _atom_site_occupancy
  Rb  Rb0  1  0.491252  0.254379  0.637983  1
  Rb  Rb1  1  0.998044  0.740531  0.863566  1
  Rb  Rb2  1  0.502871  0.745115  0.354848  1
  Tl  Tl3  1  0.011404  0.248362  0.129289  1
  Ga  Ga4  1  0.341298  0.246868  0.357948  1
  Ga  Ga5  1  0.872594  0.754515  0.141854  1
  Ga  Ga6  1  0.644904  0.750330  0.639403  1
  Ga  Ga7  1  0.139923  0.248067  0.863881  1
  I  I8  1  0.865947  0.143049  0.911602  1
  I  I9  1  0.370674  0.844799  0.588681  1
  I  I10  1  0.144679  0.865929  0.092934  1
  I  I11  1  0.619327  0.157523  0.405385  1
  I  I12  1  0.372980  0.406207  0.221058  1
  I  I13  1  0.901818  0.593731  0.276759  1
  I  I14  1  0.607524  0.587832  0.774916  1
  I  I15  1  0.107005  0.415841  0.730287  1
  I  I16  1  0.679895  0.979329  0.157498  1
  I  I17  1  0.147208  0.014494  0.340977  1
  I  I18  1  0.334694  0.027927  0.843351  1
  I  I19  1  0.840313  0.981753  0.660009  1
  I  I20  1  0.235226  0.426818  0.461064  1
  I  I21  1  0.756002  0.571515  0.037918  1
  I  I22  1  0.757515  0.574595  0.536298  1
  I  I23  1  0.256901  0.420487  0.972492  1
