# generated using pymatgen
data_TlCu3Se4
_symmetry_space_group_name_H-M   'P 1'
_cell_length_a   7.00218961
_cell_length_b   7.00218923
_cell_length_c   5.73368400
_cell_angle_alpha   65.83154369
_cell_angle_beta   65.83154509
_cell_angle_gamma   48.33690713
_symmetry_Int_Tables_number   1
_chemical_formula_structural   TlCu3Se4
_chemical_formula_sum   'Tl1 Cu3 Se4'
_cell_volume   187.68529787
_cell_formula_units_Z   1
loop_
 _symmetry_equiv_pos_site_id
 _symmetry_equiv_pos_as_xyz
  1  'x, y, z'
loop_
 _atom_site_type_symbol
 _atom_site_label
 _atom_site_symmetry_multiplicity
 _atom_site_fract_x
 _atom_site_fract_y
 _atom_site_fract_z
 _atom_site_occupancy
  Tl  Tl0  1  0.500000  0.500000  0.499999  1
  Cu  Cu1  1  0.000000  0.000000  0.000000  1
  Cu  Cu2  1  0.250000  0.250000  0.250001  1
  Cu  Cu3  1  0.749999  0.749999  0.750000  1
  Se  Se4  1  0.361417  0.913985  0.086013  1
  Se  Se5  1  0.638584  0.086015  0.361415  1
  Se  Se6  1  0.913987  0.361415  0.638584  1
  Se  Se7  1  0.086013  0.638585  0.913986  1
