# generated using pymatgen
data_Tb14Er2MgAg3Ir4
_symmetry_space_group_name_H-M   'P 1'
_cell_length_a   9.55126475
_cell_length_b   9.58718811
_cell_length_c   9.58718842
_cell_angle_alpha   60.46182151
_cell_angle_beta   60.54453731
_cell_angle_gamma   60.54454810
_symmetry_Int_Tables_number   1
_chemical_formula_structural   Tb14Er2MgAg3Ir4
_chemical_formula_sum   'Tb14 Er2 Mg1 Ag3 Ir4'
_cell_volume   628.01770753
_cell_formula_units_Z   1
loop_
 _symmetry_equiv_pos_site_id
 _symmetry_equiv_pos_as_xyz
  1  'x, y, z'
loop_
 _atom_site_type_symbol
 _atom_site_label
 _atom_site_symmetry_multiplicity
 _atom_site_fract_x
 _atom_site_fract_y
 _atom_site_fract_z
 _atom_site_occupancy
  Tb  Tb0  1  0.063757  0.437079  0.061579  1
  Tb  Tb1  1  0.060229  0.646400  0.646400  1
  Tb  Tb2  1  0.649904  0.651527  0.651527  1
  Tb  Tb3  1  0.063757  0.061579  0.437079  1
  Tb  Tb4  1  0.190552  0.811377  0.188953  1
  Tb  Tb5  1  0.814167  0.813107  0.186830  1
  Tb  Tb6  1  0.814167  0.186830  0.813107  1
  Tb  Tb7  1  0.437885  0.062375  0.437353  1
  Tb  Tb8  1  0.437885  0.437353  0.062375  1
  Tb  Tb9  1  0.436519  0.062853  0.062853  1
  Tb  Tb10  1  0.065301  0.437230  0.437230  1
  Tb  Tb11  1  0.190552  0.188953  0.811377  1
  Tb  Tb12  1  0.650121  0.650263  0.047885  1
  Tb  Tb13  1  0.650121  0.047885  0.650263  1
  Er  Er14  1  0.189965  0.811192  0.811192  1
  Er  Er15  1  0.814624  0.186831  0.186831  1
  Mg  Mg16  1  0.712102  0.429043  0.429043  1
  Ag  Ag17  1  0.417639  0.415162  0.750796  1
  Ag  Ag18  1  0.417639  0.750796  0.415162  1
  Ag  Ag19  1  0.417672  0.415552  0.415552  1
  Ir  Ir20  1  0.859076  0.857719  0.425844  1
  Ir  Ir21  1  0.859076  0.425844  0.857719  1
  Ir  Ir22  1  0.861844  0.856361  0.856361  1
  Ir  Ir23  1  0.425452  0.856695  0.856695  1
