# generated using pymatgen
data_Lu(GeRh2)2
_symmetry_space_group_name_H-M   'P 1'
_cell_length_a   4.20035500
_cell_length_b   9.15145600
_cell_length_c   11.43822800
_cell_angle_alpha   90.00000000
_cell_angle_beta   90.00000000
_cell_angle_gamma   90.00000000
_symmetry_Int_Tables_number   1
_chemical_formula_structural   Lu(GeRh2)2
_chemical_formula_sum   'Lu4 Ge8 Rh16'
_cell_volume   439.67820923
_cell_formula_units_Z   4
loop_
 _symmetry_equiv_pos_site_id
 _symmetry_equiv_pos_as_xyz
  1  'x, y, z'
loop_
 _atom_site_type_symbol
 _atom_site_label
 _atom_site_symmetry_multiplicity
 _atom_site_fract_x
 _atom_site_fract_y
 _atom_site_fract_z
 _atom_site_occupancy
  Lu  Lu0  1  0.250000  0.147599  0.825428  1
  Lu  Lu1  1  0.250000  0.352401  0.325428  1
  Lu  Lu2  1  0.750000  0.852401  0.174572  1
  Lu  Lu3  1  0.750000  0.647599  0.674572  1
  Ge  Ge4  1  0.250000  0.414386  0.638755  1
  Ge  Ge5  1  0.250000  0.085614  0.138755  1
  Ge  Ge6  1  0.750000  0.585614  0.361245  1
  Ge  Ge7  1  0.750000  0.914386  0.861245  1
  Ge  Ge8  1  0.250000  0.618173  0.059418  1
  Ge  Ge9  1  0.250000  0.881827  0.559418  1
  Ge  Ge10  1  0.750000  0.381827  0.940582  1
  Ge  Ge11  1  0.750000  0.118173  0.440582  1
  Rh  Rh12  1  0.250000  0.615629  0.499598  1
  Rh  Rh13  1  0.250000  0.884371  0.999598  1
  Rh  Rh14  1  0.750000  0.384371  0.500402  1
  Rh  Rh15  1  0.750000  0.115629  0.000402  1
  Rh  Rh16  1  0.250000  0.691930  0.268041  1
  Rh  Rh17  1  0.250000  0.808070  0.768041  1
  Rh  Rh18  1  0.750000  0.308070  0.731959  1
  Rh  Rh19  1  0.750000  0.191930  0.231959  1
  Rh  Rh20  1  0.250000  0.171116  0.561119  1
  Rh  Rh21  1  0.250000  0.328884  0.061119  1
  Rh  Rh22  1  0.750000  0.828884  0.438881  1
  Rh  Rh23  1  0.750000  0.671116  0.938881  1
  Rh  Rh24  1  0.250000  0.003892  0.344035  1
  Rh  Rh25  1  0.250000  0.496108  0.844035  1
  Rh  Rh26  1  0.750000  0.996108  0.655965  1
  Rh  Rh27  1  0.750000  0.503892  0.155965  1
