# generated using pymatgen
data_TbPr2CCl5
_symmetry_space_group_name_H-M   'P 1'
_cell_length_a   7.34461966
_cell_length_b   8.86818750
_cell_length_c   8.89271356
_cell_angle_alpha   108.54897589
_cell_angle_beta   95.65104025
_cell_angle_gamma   105.66835050
_symmetry_Int_Tables_number   1
_chemical_formula_structural   TbPr2CCl5
_chemical_formula_sum   'Tb2 Pr4 C2 Cl10'
_cell_volume   517.82112766
_cell_formula_units_Z   2
loop_
 _symmetry_equiv_pos_site_id
 _symmetry_equiv_pos_as_xyz
  1  'x, y, z'
loop_
 _atom_site_type_symbol
 _atom_site_label
 _atom_site_symmetry_multiplicity
 _atom_site_fract_x
 _atom_site_fract_y
 _atom_site_fract_z
 _atom_site_occupancy
  Tb  Tb0  1  0.612350  0.849508  0.799942  1
  Tb  Tb1  1  0.387650  0.150492  0.200058  1
  Pr  Pr2  1  0.877129  0.952627  0.237823  1
  Pr  Pr3  1  0.122871  0.047373  0.762177  1
  Pr  Pr4  1  0.027949  0.711135  0.909069  1
  Pr  Pr5  1  0.972051  0.288865  0.090931  1
  C  C6  1  0.905339  0.966520  0.953199  1
  C  C7  1  0.094661  0.033480  0.046801  1
  Cl  Cl8  1  0.749198  0.913364  0.546361  1
  Cl  Cl9  1  0.250802  0.086636  0.453639  1
  Cl  Cl10  1  0.456339  0.830570  0.077460  1
  Cl  Cl11  1  0.543661  0.169430  0.922540  1
  Cl  Cl12  1  0.793904  0.258456  0.352613  1
  Cl  Cl13  1  0.206096  0.741544  0.647387  1
  Cl  Cl14  1  0.908444  0.628544  0.172235  1
  Cl  Cl15  1  0.091556  0.371456  0.827765  1
  Cl  Cl16  1  0.647786  0.548656  0.722655  1
  Cl  Cl17  1  0.352214  0.451344  0.277345  1
