# generated using pymatgen
data_PrNd2ThPt4
_symmetry_space_group_name_H-M   'P 1'
_cell_length_a   4.65773200
_cell_length_b   5.77858840
_cell_length_c   7.32128092
_cell_angle_alpha   91.43455223
_cell_angle_beta   90.00000000
_cell_angle_gamma   90.00000000
_symmetry_Int_Tables_number   1
_chemical_formula_structural   PrNd2ThPt4
_chemical_formula_sum   'Pr1 Nd2 Th1 Pt4'
_cell_volume   196.99136460
_cell_formula_units_Z   1
loop_
 _symmetry_equiv_pos_site_id
 _symmetry_equiv_pos_as_xyz
  1  'x, y, z'
loop_
 _atom_site_type_symbol
 _atom_site_label
 _atom_site_symmetry_multiplicity
 _atom_site_fract_x
 _atom_site_fract_y
 _atom_site_fract_z
 _atom_site_occupancy
  Pr  Pr0  1  0.250000  0.139082  0.185030  1
  Nd  Nd1  1  0.750000  0.640649  0.316956  1
  Nd  Nd2  1  0.750000  0.859317  0.818524  1
  Th  Th3  1  0.250000  0.360742  0.682517  1
  Pt  Pt4  1  0.250000  0.841913  0.548436  1
  Pt  Pt5  1  0.250000  0.647768  0.038160  1
  Pt  Pt6  1  0.750000  0.163098  0.464750  1
  Pt  Pt7  1  0.750000  0.347430  0.945627  1
