# generated using pymatgen
data_Dy2MoOs3
_symmetry_space_group_name_H-M   'P 1'
_cell_length_a   5.49202110
_cell_length_b   5.49201919
_cell_length_c   8.53965200
_cell_angle_alpha   90.00000000
_cell_angle_beta   90.00000000
_cell_angle_gamma   119.99542247
_symmetry_Int_Tables_number   1
_chemical_formula_structural   Dy2MoOs3
_chemical_formula_sum   'Dy4 Mo2 Os6'
_cell_volume   223.07714543
_cell_formula_units_Z   2
loop_
 _symmetry_equiv_pos_site_id
 _symmetry_equiv_pos_as_xyz
  1  'x, y, z'
loop_
 _atom_site_type_symbol
 _atom_site_label
 _atom_site_symmetry_multiplicity
 _atom_site_fract_x
 _atom_site_fract_y
 _atom_site_fract_z
 _atom_site_occupancy
  Dy  Dy0  1  0.666675  0.333325  0.564774  1
  Dy  Dy1  1  0.333325  0.666675  0.435226  1
  Dy  Dy2  1  0.333325  0.666675  0.064774  1
  Dy  Dy3  1  0.666675  0.333325  0.935226  1
  Mo  Mo4  1  0.000000  0.000000  0.500000  1
  Mo  Mo5  1  0.000000  0.000000  0.000000  1
  Os  Os6  1  0.172777  0.345546  0.750000  1
  Os  Os7  1  0.172755  0.827245  0.750000  1
  Os  Os8  1  0.654454  0.827223  0.750000  1
  Os  Os9  1  0.827223  0.654454  0.250000  1
  Os  Os10  1  0.827245  0.172755  0.250000  1
  Os  Os11  1  0.345546  0.172777  0.250000  1
