# generated using pymatgen
data_HoTm9(Hg2Pt)4
_symmetry_space_group_name_H-M   'P 1'
_cell_length_a   3.58658900
_cell_length_b   7.91739511
_cell_length_c   18.10376726
_cell_angle_alpha   89.98073007
_cell_angle_beta   90.00000000
_cell_angle_gamma   90.00000000
_symmetry_Int_Tables_number   1
_chemical_formula_structural   HoTm9(Hg2Pt)4
_chemical_formula_sum   'Ho1 Tm9 Hg8 Pt4'
_cell_volume   514.08255172
_cell_formula_units_Z   1
loop_
 _symmetry_equiv_pos_site_id
 _symmetry_equiv_pos_as_xyz
  1  'x, y, z'
loop_
 _atom_site_type_symbol
 _atom_site_label
 _atom_site_symmetry_multiplicity
 _atom_site_fract_x
 _atom_site_fract_y
 _atom_site_fract_z
 _atom_site_occupancy
  Ho  Ho0  1  0.000000  0.000000  0.000000  1
  Tm  Tm1  1  0.000000  0.112926  0.414966  1
  Tm  Tm2  1  0.000000  0.887074  0.585034  1
  Tm  Tm3  1  0.000000  0.387210  0.914929  1
  Tm  Tm4  1  0.000000  0.612790  0.085071  1
  Tm  Tm5  1  0.000000  0.241119  0.216665  1
  Tm  Tm6  1  0.000000  0.758881  0.783335  1
  Tm  Tm7  1  0.000000  0.258883  0.716602  1
  Tm  Tm8  1  0.000000  0.741117  0.283398  1
  Tm  Tm9  1  0.000000  0.500000  0.500000  1
  Hg  Hg10  1  0.500000  0.423257  0.354937  1
  Hg  Hg11  1  0.500000  0.576743  0.645063  1
  Hg  Hg12  1  0.500000  0.076751  0.854673  1
  Hg  Hg13  1  0.500000  0.923249  0.145327  1
  Hg  Hg14  1  0.500000  0.287809  0.062430  1
  Hg  Hg15  1  0.500000  0.712191  0.937570  1
  Hg  Hg16  1  0.500000  0.212812  0.562242  1
  Hg  Hg17  1  0.500000  0.787188  0.437758  1
  Pt  Pt18  1  0.500000  0.028329  0.303382  1
  Pt  Pt19  1  0.500000  0.971671  0.696618  1
  Pt  Pt20  1  0.500000  0.471798  0.803410  1
  Pt  Pt21  1  0.500000  0.528202  0.196590  1
