# generated using pymatgen
data_Tb2Tm3OsRu
_symmetry_space_group_name_H-M   'P 1'
_cell_length_a   6.29987700
_cell_length_b   7.27827549
_cell_length_c   8.41002428
_cell_angle_alpha   96.96976119
_cell_angle_beta   111.99624487
_cell_angle_gamma   90.00000269
_symmetry_Int_Tables_number   1
_chemical_formula_structural   Tb2Tm3OsRu
_chemical_formula_sum   'Tb4 Tm6 Os2 Ru2'
_cell_volume   354.47349910
_cell_formula_units_Z   2
loop_
 _symmetry_equiv_pos_site_id
 _symmetry_equiv_pos_as_xyz
  1  'x, y, z'
loop_
 _atom_site_type_symbol
 _atom_site_label
 _atom_site_symmetry_multiplicity
 _atom_site_fract_x
 _atom_site_fract_y
 _atom_site_fract_z
 _atom_site_occupancy
  Tb  Tb0  1  0.789838  0.082113  0.813439  1
  Tb  Tb1  1  0.976399  0.417887  0.186561  1
  Tb  Tb2  1  0.211684  0.917028  0.188479  1
  Tb  Tb3  1  0.023205  0.582972  0.811521  1
  Tm  Tm4  1  0.202593  0.184208  0.564956  1
  Tm  Tm5  1  0.637637  0.315792  0.435044  1
  Tm  Tm6  1  0.796936  0.815869  0.434308  1
  Tm  Tm7  1  0.362628  0.684131  0.565692  1
  Tm  Tm8  1  0.422265  0.250000  0.000000  1
  Tm  Tm9  1  0.579129  0.750000  0.000000  1
  Os  Os10  1  0.597461  0.424105  0.778718  1
  Os  Os11  1  0.818742  0.075895  0.221282  1
  Ru  Ru12  1  0.401674  0.576198  0.221864  1
  Ru  Ru13  1  0.179811  0.923802  0.778136  1
