# generated using pymatgen
data_Ho2Si2IrRh
_symmetry_space_group_name_H-M   'P 1'
_cell_length_a   4.23556300
_cell_length_b   6.85905600
_cell_length_c   7.42074000
_cell_angle_alpha   90.00000000
_cell_angle_beta   90.00000000
_cell_angle_gamma   90.00000000
_symmetry_Int_Tables_number   1
_chemical_formula_structural   Ho2Si2IrRh
_chemical_formula_sum   'Ho4 Si4 Ir2 Rh2'
_cell_volume   215.58706991
_cell_formula_units_Z   2
loop_
 _symmetry_equiv_pos_site_id
 _symmetry_equiv_pos_as_xyz
  1  'x, y, z'
loop_
 _atom_site_type_symbol
 _atom_site_label
 _atom_site_symmetry_multiplicity
 _atom_site_fract_x
 _atom_site_fract_y
 _atom_site_fract_z
 _atom_site_occupancy
  Ho  Ho0  1  0.750000  0.499950  0.810986  1
  Ho  Ho1  1  0.250000  0.001552  0.311104  1
  Ho  Ho2  1  0.750000  0.999950  0.689014  1
  Ho  Ho3  1  0.250000  0.501552  0.188896  1
  Si  Si4  1  0.250000  0.797620  0.894569  1
  Si  Si5  1  0.250000  0.297620  0.605431  1
  Si  Si6  1  0.750000  0.203284  0.109973  1
  Si  Si7  1  0.750000  0.703284  0.390027  1
  Ir  Ir8  1  0.750000  0.842767  0.067440  1
  Ir  Ir9  1  0.750000  0.342767  0.432560  1
  Rh  Rh10  1  0.250000  0.654827  0.568029  1
  Rh  Rh11  1  0.250000  0.154827  0.931971  1
