# generated using pymatgen
data_Dy3Lu(SiRh2)8
_symmetry_space_group_name_H-M   'P 1'
_cell_length_a   4.12274800
_cell_length_b   9.10518774
_cell_length_c   11.29302067
_cell_angle_alpha   90.18434753
_cell_angle_beta   90.00000000
_cell_angle_gamma   90.00000000
_symmetry_Int_Tables_number   1
_chemical_formula_structural   Dy3Lu(SiRh2)8
_chemical_formula_sum   'Dy3 Lu1 Si8 Rh16'
_cell_volume   423.91967111
_cell_formula_units_Z   1
loop_
 _symmetry_equiv_pos_site_id
 _symmetry_equiv_pos_as_xyz
  1  'x, y, z'
loop_
 _atom_site_type_symbol
 _atom_site_label
 _atom_site_symmetry_multiplicity
 _atom_site_fract_x
 _atom_site_fract_y
 _atom_site_fract_z
 _atom_site_occupancy
  Dy  Dy0  1  0.250000  0.147483  0.824220  1
  Dy  Dy1  1  0.250000  0.351992  0.325433  1
  Dy  Dy2  1  0.750000  0.850582  0.174570  1
  Lu  Lu3  1  0.750000  0.646204  0.675698  1
  Si  Si4  1  0.250000  0.413477  0.637625  1
  Si  Si5  1  0.250000  0.087575  0.135928  1
  Si  Si6  1  0.750000  0.588721  0.364237  1
  Si  Si7  1  0.750000  0.910126  0.861600  1
  Si  Si8  1  0.250000  0.617161  0.058603  1
  Si  Si9  1  0.250000  0.885496  0.557920  1
  Si  Si10  1  0.750000  0.383681  0.942652  1
  Si  Si11  1  0.750000  0.117096  0.441850  1
  Rh  Rh12  1  0.250000  0.618259  0.505127  1
  Rh  Rh13  1  0.250000  0.885194  0.997612  1
  Rh  Rh14  1  0.750000  0.387151  0.500386  1
  Rh  Rh15  1  0.750000  0.114270  0.998645  1
  Rh  Rh16  1  0.250000  0.681908  0.270943  1
  Rh  Rh17  1  0.250000  0.810662  0.765532  1
  Rh  Rh18  1  0.750000  0.317656  0.731577  1
  Rh  Rh19  1  0.750000  0.183175  0.230800  1
  Rh  Rh20  1  0.250000  0.174175  0.559463  1
  Rh  Rh21  1  0.250000  0.326619  0.058659  1
  Rh  Rh22  1  0.750000  0.827568  0.441655  1
  Rh  Rh23  1  0.750000  0.672387  0.939494  1
  Rh  Rh24  1  0.250000  0.007316  0.344501  1
  Rh  Rh25  1  0.250000  0.493840  0.844249  1
  Rh  Rh26  1  0.750000  0.992651  0.655877  1
  Rh  Rh27  1  0.750000  0.507577  0.155143  1
