# generated using pymatgen
data_Tb6Al43W4
_symmetry_space_group_name_H-M   'P 1'
_cell_length_a   11.00488800
_cell_length_b   11.00488700
_cell_length_c   17.68462800
_cell_angle_alpha   90.00000000
_cell_angle_beta   90.00000000
_cell_angle_gamma   119.99999698
_symmetry_Int_Tables_number   1
_chemical_formula_structural   Tb6Al43W4
_chemical_formula_sum   'Tb12 Al86 W8'
_cell_volume   1854.80299398
_cell_formula_units_Z   2
loop_
 _symmetry_equiv_pos_site_id
 _symmetry_equiv_pos_as_xyz
  1  'x, y, z'
loop_
 _atom_site_type_symbol
 _atom_site_label
 _atom_site_symmetry_multiplicity
 _atom_site_fract_x
 _atom_site_fract_y
 _atom_site_fract_z
 _atom_site_occupancy
  Tb  Tb0  1  0.531328  0.000000  0.595612  1
  Tb  Tb1  1  0.468672  0.000000  0.404388  1
  Tb  Tb2  1  0.000000  0.531328  0.595612  1
  Tb  Tb3  1  0.468672  0.000000  0.095612  1
  Tb  Tb4  1  0.000000  0.531328  0.904388  1
  Tb  Tb5  1  0.000000  0.468672  0.404388  1
  Tb  Tb6  1  0.531328  0.000000  0.904388  1
  Tb  Tb7  1  0.000000  0.468672  0.095612  1
  Tb  Tb8  1  0.468672  0.468672  0.595612  1
  Tb  Tb9  1  0.531328  0.531328  0.404388  1
  Tb  Tb10  1  0.531328  0.531328  0.095612  1
  Tb  Tb11  1  0.468672  0.468672  0.904388  1
  Al  Al12  1  0.147600  0.595227  0.750000  1
  Al  Al13  1  0.852400  0.404773  0.250000  1
  Al  Al14  1  0.404773  0.552373  0.750000  1
  Al  Al15  1  0.595227  0.147600  0.750000  1
  Al  Al16  1  0.595227  0.447627  0.250000  1
  Al  Al17  1  0.404773  0.852400  0.250000  1
  Al  Al18  1  0.447627  0.852400  0.750000  1
  Al  Al19  1  0.552373  0.404773  0.750000  1
  Al  Al20  1  0.552373  0.147600  0.250000  1
  Al  Al21  1  0.447627  0.595227  0.250000  1
  Al  Al22  1  0.852400  0.447627  0.750000  1
  Al  Al23  1  0.147600  0.552373  0.250000  1
  Al  Al24  1  0.158069  0.000000  0.115873  1
  Al  Al25  1  0.841931  0.000000  0.884127  1
  Al  Al26  1  0.000000  0.158069  0.115873  1
  Al  Al27  1  0.841931  0.000000  0.615873  1
  Al  Al28  1  0.000000  0.158069  0.384127  1
  Al  Al29  1  0.000000  0.841931  0.884127  1
  Al  Al30  1  0.158069  0.000000  0.384127  1
  Al  Al31  1  0.000000  0.841931  0.615873  1
  Al  Al32  1  0.841931  0.841931  0.115873  1
  Al  Al33  1  0.158069  0.158069  0.884127  1
  Al  Al34  1  0.158069  0.158069  0.615873  1
  Al  Al35  1  0.841931  0.841931  0.384127  1
  Al  Al36  1  0.246942  0.493884  0.500000  1
  Al  Al37  1  0.753058  0.506116  0.500000  1
  Al  Al38  1  0.506116  0.753058  0.500000  1
  Al  Al39  1  0.753058  0.506116  0.000000  1
  Al  Al40  1  0.493884  0.246942  0.000000  1
  Al  Al41  1  0.493884  0.246942  0.500000  1
  Al  Al42  1  0.246942  0.493884  0.000000  1
  Al  Al43  1  0.506116  0.753058  0.000000  1
  Al  Al44  1  0.246942  0.753058  0.500000  1
  Al  Al45  1  0.753058  0.246942  0.500000  1
  Al  Al46  1  0.753058  0.246942  0.000000  1
  Al  Al47  1  0.246942  0.753058  0.000000  1
  Al  Al48  1  0.146498  0.000000  0.750000  1
  Al  Al49  1  0.853502  0.000000  0.250000  1
  Al  Al50  1  0.000000  0.146498  0.750000  1
  Al  Al51  1  0.000000  0.853502  0.250000  1
  Al  Al52  1  0.853502  0.853502  0.750000  1
  Al  Al53  1  0.146498  0.146498  0.250000  1
  Al  Al54  1  0.333333  0.666667  0.626151  1
  Al  Al55  1  0.666667  0.333333  0.373849  1
  Al  Al56  1  0.666667  0.333333  0.126151  1
  Al  Al57  1  0.666667  0.333333  0.873849  1
  Al  Al58  1  0.333333  0.666667  0.873849  1
  Al  Al59  1  0.333333  0.666667  0.126151  1
  Al  Al60  1  0.333333  0.666667  0.373849  1
  Al  Al61  1  0.666667  0.333333  0.626151  1
  Al  Al62  1  0.253451  0.000000  0.530215  1
  Al  Al63  1  0.746549  0.000000  0.469785  1
  Al  Al64  1  0.000000  0.253451  0.530215  1
  Al  Al65  1  0.746549  0.000000  0.030215  1
  Al  Al66  1  0.000000  0.253451  0.969785  1
  Al  Al67  1  0.000000  0.746549  0.469785  1
  Al  Al68  1  0.253451  0.000000  0.969785  1
  Al  Al69  1  0.000000  0.746549  0.030215  1
  Al  Al70  1  0.746549  0.746549  0.530215  1
  Al  Al71  1  0.253451  0.253451  0.469785  1
  Al  Al72  1  0.253451  0.253451  0.030215  1
  Al  Al73  1  0.746549  0.746549  0.969785  1
  Al  Al74  1  0.156952  0.393799  0.664228  1
  Al  Al75  1  0.843048  0.606201  0.335772  1
  Al  Al76  1  0.606201  0.763153  0.664228  1
  Al  Al77  1  0.843048  0.606201  0.164228  1
  Al  Al78  1  0.393799  0.156952  0.835772  1
  Al  Al79  1  0.393799  0.236847  0.335772  1
  Al  Al80  1  0.156952  0.393799  0.835772  1
  Al  Al81  1  0.606201  0.843048  0.164228  1
  Al  Al82  1  0.236847  0.843048  0.664228  1
  Al  Al83  1  0.393799  0.236847  0.164228  1
  Al  Al84  1  0.763153  0.606201  0.835772  1
  Al  Al85  1  0.763153  0.156952  0.335772  1
  Al  Al86  1  0.606201  0.763153  0.835772  1
  Al  Al87  1  0.236847  0.393799  0.164228  1
  Al  Al88  1  0.606201  0.843048  0.335772  1
  Al  Al89  1  0.393799  0.156952  0.664228  1
  Al  Al90  1  0.763153  0.156952  0.164228  1
  Al  Al91  1  0.236847  0.393799  0.335772  1
  Al  Al92  1  0.236847  0.843048  0.835772  1
  Al  Al93  1  0.763153  0.606201  0.664228  1
  Al  Al94  1  0.843048  0.236847  0.835772  1
  Al  Al95  1  0.156952  0.763153  0.164228  1
  Al  Al96  1  0.156952  0.763153  0.335772  1
  Al  Al97  1  0.843048  0.236847  0.664228  1
  W  W98  1  0.000000  0.000000  0.500000  1
  W  W99  1  0.000000  0.000000  0.000000  1
  W  W100  1  0.728436  0.000000  0.750000  1
  W  W101  1  0.271564  0.000000  0.250000  1
  W  W102  1  0.000000  0.728436  0.750000  1
  W  W103  1  0.000000  0.271564  0.250000  1
  W  W104  1  0.271564  0.271564  0.750000  1
  W  W105  1  0.728436  0.728436  0.250000  1
