# generated using pymatgen
data_Tm3(CoSi)2
_symmetry_space_group_name_H-M   'P 1'
_cell_length_a   5.45698600
_cell_length_b   7.50508700
_cell_length_c   12.46871000
_cell_angle_alpha   90.00000000
_cell_angle_beta   90.00000000
_cell_angle_gamma   90.00000000
_symmetry_Int_Tables_number   1
_chemical_formula_structural   Tm3(CoSi)2
_chemical_formula_sum   'Tm12 Co8 Si8'
_cell_volume   510.65794681
_cell_formula_units_Z   4
loop_
 _symmetry_equiv_pos_site_id
 _symmetry_equiv_pos_as_xyz
  1  'x, y, z'
loop_
 _atom_site_type_symbol
 _atom_site_label
 _atom_site_symmetry_multiplicity
 _atom_site_fract_x
 _atom_site_fract_y
 _atom_site_fract_z
 _atom_site_occupancy
  Tm  Tm0  1  0.631107  0.253211  0.250000  1
  Tm  Tm1  1  0.368893  0.746789  0.750000  1
  Tm  Tm2  1  0.368893  0.753211  0.250000  1
  Tm  Tm3  1  0.631107  0.246789  0.750000  1
  Tm  Tm4  1  0.143668  0.396370  0.101448  1
  Tm  Tm5  1  0.856332  0.603630  0.898552  1
  Tm  Tm6  1  0.856332  0.603630  0.601448  1
  Tm  Tm7  1  0.856332  0.896370  0.398552  1
  Tm  Tm8  1  0.143668  0.396370  0.398552  1
  Tm  Tm9  1  0.143668  0.103630  0.601448  1
  Tm  Tm10  1  0.143668  0.103630  0.898552  1
  Tm  Tm11  1  0.856332  0.896370  0.101448  1
  Co  Co12  1  0.367800  0.030323  0.087915  1
  Co  Co13  1  0.632200  0.969677  0.912085  1
  Co  Co14  1  0.632200  0.969677  0.587915  1
  Co  Co15  1  0.632200  0.530323  0.412085  1
  Co  Co16  1  0.367800  0.030323  0.412085  1
  Co  Co17  1  0.367800  0.469677  0.587915  1
  Co  Co18  1  0.367800  0.469677  0.912085  1
  Co  Co19  1  0.632200  0.530323  0.087915  1
  Si  Si20  1  0.150405  0.103261  0.250000  1
  Si  Si21  1  0.849595  0.896739  0.750000  1
  Si  Si22  1  0.849595  0.603261  0.250000  1
  Si  Si23  1  0.150405  0.396739  0.750000  1
  Si  Si24  1  0.616455  0.250000  0.000000  1
  Si  Si25  1  0.383545  0.750000  0.000000  1
  Si  Si26  1  0.383545  0.750000  0.500000  1
  Si  Si27  1  0.616455  0.250000  0.500000  1
