# generated using pymatgen
data_Pr4Al18(CoPt)3
_symmetry_space_group_name_H-M   'P 1'
_cell_length_a   7.57115625
_cell_length_b   7.57115666
_cell_length_c   9.51272905
_cell_angle_alpha   89.87714003
_cell_angle_beta   89.87713225
_cell_angle_gamma   119.42516834
_symmetry_Int_Tables_number   1
_chemical_formula_structural   Pr4Al18(CoPt)3
_chemical_formula_sum   'Pr4 Al18 Co3 Pt3'
_cell_volume   474.94448005
_cell_formula_units_Z   1
loop_
 _symmetry_equiv_pos_site_id
 _symmetry_equiv_pos_as_xyz
  1  'x, y, z'
loop_
 _atom_site_type_symbol
 _atom_site_label
 _atom_site_symmetry_multiplicity
 _atom_site_fract_x
 _atom_site_fract_y
 _atom_site_fract_z
 _atom_site_occupancy
  Pr  Pr0  1  0.002131  0.326714  0.749176  1
  Pr  Pr1  1  0.331966  0.009365  0.749173  1
  Pr  Pr2  1  0.990635  0.668034  0.250827  1
  Pr  Pr3  1  0.673286  0.997869  0.250824  1
  Al  Al4  1  0.655799  0.987217  0.925402  1
  Al  Al5  1  0.010009  0.673092  0.570309  1
  Al  Al6  1  0.130719  0.128088  0.257958  1
  Al  Al7  1  0.657571  0.665744  0.048444  1
  Al  Al8  1  0.327042  0.334070  0.543532  1
  Al  Al9  1  0.334256  0.342429  0.951556  1
  Al  Al10  1  0.665930  0.672958  0.456468  1
  Al  Al11  1  0.334173  0.990122  0.073407  1
  Al  Al12  1  0.009317  0.335999  0.428737  1
  Al  Al13  1  0.341072  0.555971  0.251649  1
  Al  Al14  1  0.012783  0.344201  0.074598  1
  Al  Al15  1  0.539961  0.339873  0.250676  1
  Al  Al16  1  0.660127  0.460039  0.749324  1
  Al  Al17  1  0.871912  0.869281  0.742042  1
  Al  Al18  1  0.009878  0.665827  0.926593  1
  Al  Al19  1  0.664001  0.990683  0.571263  1
  Al  Al20  1  0.326908  0.989991  0.429691  1
  Al  Al21  1  0.444029  0.658928  0.748351  1
  Co  Co22  1  0.330549  0.669451  0.500000  1
  Co  Co23  1  0.000589  0.999411  0.500000  1
  Co  Co24  1  0.330882  0.669118  0.000000  1
  Pt  Pt25  1  0.671936  0.328064  0.500000  1
  Pt  Pt26  1  0.672013  0.327987  0.000000  1
  Pt  Pt27  1  0.000524  0.999476  0.000000  1
