# generated using pymatgen
data_ErTm2In3Ir2Au
_symmetry_space_group_name_H-M   'P 1'
_cell_length_a   7.66723726
_cell_length_b   7.66615613
_cell_length_c   3.84355800
_cell_angle_alpha   90.00000000
_cell_angle_beta   90.00000000
_cell_angle_gamma   120.03459536
_symmetry_Int_Tables_number   1
_chemical_formula_structural   ErTm2In3Ir2Au
_chemical_formula_sum   'Er1 Tm2 In3 Ir2 Au1'
_cell_volume   195.58211126
_cell_formula_units_Z   1
loop_
 _symmetry_equiv_pos_site_id
 _symmetry_equiv_pos_as_xyz
  1  'x, y, z'
loop_
 _atom_site_type_symbol
 _atom_site_label
 _atom_site_symmetry_multiplicity
 _atom_site_fract_x
 _atom_site_fract_y
 _atom_site_fract_z
 _atom_site_occupancy
  Er  Er0  1  0.411842  0.388730  0.500000  1
  Tm  Tm1  1  0.611990  0.023626  0.500000  1
  Tm  Tm2  1  0.976321  0.588283  0.500000  1
  In  In3  1  0.741729  0.740608  0.000000  1
  In  In4  1  0.259342  0.000754  0.000000  1
  In  In5  1  0.998789  0.258359  0.000000  1
  Ir  Ir6  1  0.667262  0.333142  0.000000  1
  Ir  Ir7  1  0.999534  0.999522  0.500000  1
  Au  Au8  1  0.333190  0.666976  0.000000  1
