# generated using pymatgen
data_Y4Tm4Re3B24Ir
_symmetry_space_group_name_H-M   'P 1'
_cell_length_a   3.65668100
_cell_length_b   9.13572935
_cell_length_c   11.52684614
_cell_angle_alpha   90.11185299
_cell_angle_beta   90.00000000
_cell_angle_gamma   90.00000000
_symmetry_Int_Tables_number   1
_chemical_formula_structural   Y4Tm4Re3B24Ir
_chemical_formula_sum   'Y4 Tm4 Re3 B24 Ir1'
_cell_volume   385.07025175
_cell_formula_units_Z   1
loop_
 _symmetry_equiv_pos_site_id
 _symmetry_equiv_pos_as_xyz
  1  'x, y, z'
loop_
 _atom_site_type_symbol
 _atom_site_label
 _atom_site_symmetry_multiplicity
 _atom_site_fract_x
 _atom_site_fract_y
 _atom_site_fract_z
 _atom_site_occupancy
  Y  Y0  1  0.000000  0.317698  0.415646  1
  Y  Y1  1  0.000000  0.678897  0.591201  1
  Y  Y2  1  0.000000  0.826413  0.081494  1
  Y  Y3  1  0.000000  0.177892  0.912604  1
  Tm  Tm4  1  0.000000  0.944325  0.370597  1
  Tm  Tm5  1  0.000000  0.055838  0.629002  1
  Tm  Tm6  1  0.000000  0.441042  0.128104  1
  Tm  Tm7  1  0.000000  0.556605  0.871518  1
  Re  Re8  1  0.000000  0.362157  0.678285  1
  Re  Re9  1  0.000000  0.138843  0.180626  1
  Re  Re10  1  0.000000  0.861150  0.820297  1
  B  B11  1  0.500000  0.554091  0.433463  1
  B  B12  1  0.500000  0.446448  0.567013  1
  B  B13  1  0.500000  0.053669  0.066976  1
  B  B14  1  0.500000  0.946854  0.932243  1
  B  B15  1  0.500000  0.749924  0.419638  1
  B  B16  1  0.500000  0.249703  0.581396  1
  B  B17  1  0.500000  0.249950  0.081565  1
  B  B18  1  0.500000  0.750850  0.918550  1
  B  B19  1  0.500000  0.791599  0.265347  1
  B  B20  1  0.500000  0.208071  0.733933  1
  B  B21  1  0.500000  0.292138  0.234858  1
  B  B22  1  0.500000  0.707826  0.766132  1
  B  B23  1  0.500000  0.631068  0.184106  1
  B  B24  1  0.500000  0.369967  0.814323  1
  B  B25  1  0.500000  0.130210  0.315093  1
  B  B26  1  0.500000  0.869166  0.685296  1
  B  B27  1  0.500000  0.982616  0.212650  1
  B  B28  1  0.500000  0.017566  0.786413  1
  B  B29  1  0.500000  0.482832  0.287344  1
  B  B30  1  0.500000  0.518260  0.712957  1
  B  B31  1  0.500000  0.602290  0.028927  1
  B  B32  1  0.500000  0.398710  0.972320  1
  B  B33  1  0.500000  0.100338  0.471682  1
  B  B34  1  0.500000  0.896765  0.527824  1
  Ir  Ir35  1  0.000000  0.638229  0.320572  1
