# generated using pymatgen
data_MnAl(Fe2Si)2
_symmetry_space_group_name_H-M   'P 1'
_cell_length_a   6.85408637
_cell_length_b   6.85408642
_cell_length_c   6.85408654
_cell_angle_alpha   33.43783077
_cell_angle_beta   33.43782949
_cell_angle_gamma   33.43783924
_symmetry_Int_Tables_number   1
_chemical_formula_structural   MnAl(Fe2Si)2
_chemical_formula_sum   'Mn1 Al1 Fe4 Si2'
_cell_volume   87.06827234
_cell_formula_units_Z   1
loop_
 _symmetry_equiv_pos_site_id
 _symmetry_equiv_pos_as_xyz
  1  'x, y, z'
loop_
 _atom_site_type_symbol
 _atom_site_label
 _atom_site_symmetry_multiplicity
 _atom_site_fract_x
 _atom_site_fract_y
 _atom_site_fract_z
 _atom_site_occupancy
  Mn  Mn0  1  0.000000  0.000000  0.000000  1
  Al  Al1  1  0.500000  0.500000  0.500000  1
  Fe  Fe2  1  0.626988  0.626988  0.626988  1
  Fe  Fe3  1  0.123403  0.123403  0.123403  1
  Fe  Fe4  1  0.876597  0.876597  0.876597  1
  Fe  Fe5  1  0.373012  0.373012  0.373012  1
  Si  Si6  1  0.249781  0.249781  0.249781  1
  Si  Si7  1  0.750219  0.750219  0.750219  1
