# generated using pymatgen
data_Yb4Ni13Rh
_symmetry_space_group_name_H-M   'P 1'
_cell_length_a   4.87370799
_cell_length_b   4.87370672
_cell_length_c   12.35903559
_cell_angle_alpha   78.62837441
_cell_angle_beta   78.62837992
_cell_angle_gamma   59.99999197
_symmetry_Int_Tables_number   1
_chemical_formula_structural   Yb4Ni13Rh
_chemical_formula_sum   'Yb4 Ni13 Rh1'
_cell_volume   247.55738845
_cell_formula_units_Z   1
loop_
 _symmetry_equiv_pos_site_id
 _symmetry_equiv_pos_as_xyz
  1  'x, y, z'
loop_
 _atom_site_type_symbol
 _atom_site_label
 _atom_site_symmetry_multiplicity
 _atom_site_fract_x
 _atom_site_fract_y
 _atom_site_fract_z
 _atom_site_occupancy
  Yb  Yb0  1  0.948685  0.948685  0.153946  1
  Yb  Yb1  1  0.051315  0.051315  0.846054  1
  Yb  Yb2  1  0.852484  0.852484  0.442548  1
  Yb  Yb3  1  0.147516  0.147516  0.557452  1
  Ni  Ni4  1  0.720827  0.720827  0.837518  1
  Ni  Ni5  1  0.279173  0.279173  0.162482  1
  Ni  Ni6  1  0.612740  0.612740  0.161780  1
  Ni  Ni7  1  0.387260  0.387260  0.838220  1
  Ni  Ni8  1  0.000000  0.500000  0.000000  1
  Ni  Ni9  1  0.500000  0.000000  0.000000  1
  Ni  Ni10  1  0.500000  0.500000  0.000000  1
  Ni  Ni11  1  0.390286  0.390286  0.324196  1
  Ni  Ni12  1  0.895232  0.390286  0.324196  1
  Ni  Ni13  1  0.390286  0.895232  0.324196  1
  Ni  Ni14  1  0.609714  0.609714  0.675804  1
  Ni  Ni15  1  0.104768  0.609714  0.675804  1
  Ni  Ni16  1  0.609714  0.104768  0.675804  1
  Rh  Rh17  1  0.500000  0.500000  0.500000  1
