# generated using pymatgen
data_La15Pr5(Ir2Rh)4
_symmetry_space_group_name_H-M   'P 1'
_cell_length_a   11.39504365
_cell_length_b   11.41328168
_cell_length_c   6.71524012
_cell_angle_alpha   89.89123403
_cell_angle_beta   89.98230946
_cell_angle_gamma   89.80481008
_symmetry_Int_Tables_number   1
_chemical_formula_structural   La15Pr5(Ir2Rh)4
_chemical_formula_sum   'La15 Pr5 Ir8 Rh4'
_cell_volume   873.34281776
_cell_formula_units_Z   1
loop_
 _symmetry_equiv_pos_site_id
 _symmetry_equiv_pos_as_xyz
  1  'x, y, z'
loop_
 _atom_site_type_symbol
 _atom_site_label
 _atom_site_symmetry_multiplicity
 _atom_site_fract_x
 _atom_site_fract_y
 _atom_site_fract_z
 _atom_site_occupancy
  La  La0  1  0.290158  0.092511  0.393660  1
  La  La1  1  0.291217  0.908032  0.893938  1
  La  La2  1  0.709060  0.092503  0.895333  1
  La  La3  1  0.709103  0.908081  0.394650  1
  La  La4  1  0.592670  0.790683  0.894172  1
  La  La5  1  0.592024  0.209703  0.394932  1
  La  La6  1  0.407400  0.790535  0.394045  1
  La  La7  1  0.406716  0.209694  0.895494  1
  La  La8  1  0.208658  0.406461  0.605651  1
  La  La9  1  0.208407  0.590362  0.104879  1
  La  La10  1  0.791865  0.407849  0.104704  1
  La  La11  1  0.790625  0.592503  0.605298  1
  La  La12  1  0.907714  0.709801  0.105160  1
  La  La13  1  0.908439  0.290575  0.605480  1
  La  La14  1  0.092918  0.709436  0.605500  1
  Pr  Pr15  1  0.091226  0.290151  0.107925  1
  Pr  Pr16  1  0.999437  0.999662  0.498967  1
  Pr  Pr17  1  0.000903  0.000955  0.000210  1
  Pr  Pr18  1  0.500305  0.499650  0.000158  1
  Pr  Pr19  1  0.499976  0.500134  0.500638  1
  Ir  Ir20  1  0.845601  0.155701  0.249277  1
  Ir  Ir21  1  0.844937  0.845724  0.750610  1
  Ir  Ir22  1  0.155283  0.153164  0.748188  1
  Ir  Ir23  1  0.155364  0.844822  0.249414  1
  Ir  Ir24  1  0.655111  0.345042  0.750170  1
  Ir  Ir25  1  0.654915  0.655221  0.249498  1
  Ir  Ir26  1  0.345499  0.345102  0.251048  1
  Ir  Ir27  1  0.344640  0.654519  0.749865  1
  Rh  Rh28  1  0.499702  0.000264  0.121663  1
  Rh  Rh29  1  0.500465  0.999791  0.621260  1
  Rh  Rh30  1  0.000081  0.500331  0.877448  1
  Rh  Rh31  1  0.999580  0.501039  0.380763  1
