# generated using pymatgen
data_YHo3Hf3O12
_symmetry_space_group_name_H-M   'P 1'
_cell_length_a   6.31289310
_cell_length_b   6.35770604
_cell_length_c   6.57579391
_cell_angle_alpha   99.95853607
_cell_angle_beta   98.19569269
_cell_angle_gamma   99.72254890
_symmetry_Int_Tables_number   1
_chemical_formula_structural   YHo3Hf3O12
_chemical_formula_sum   'Y1 Ho3 Hf3 O12'
_cell_volume   252.17075807
_cell_formula_units_Z   1
loop_
 _symmetry_equiv_pos_site_id
 _symmetry_equiv_pos_as_xyz
  1  'x, y, z'
loop_
 _atom_site_type_symbol
 _atom_site_label
 _atom_site_symmetry_multiplicity
 _atom_site_fract_x
 _atom_site_fract_y
 _atom_site_fract_z
 _atom_site_occupancy
  Y  Y0  1  0.386286  0.699171  0.866926  1
  Ho  Ho1  1  0.696700  0.865426  0.389469  1
  Ho  Ho2  1  0.614488  0.300402  0.133762  1
  Ho  Ho3  1  0.303897  0.134507  0.610713  1
  Hf  Hf4  1  0.000231  0.000642  0.000200  1
  Hf  Hf5  1  0.847797  0.396982  0.666954  1
  Hf  Hf6  1  0.151633  0.602297  0.332361  1
  O  O7  1  0.017828  0.679537  0.877809  1
  O  O8  1  0.686972  0.935035  0.060917  1
  O  O9  1  0.919654  0.088326  0.698568  1
  O  O10  1  0.979877  0.321339  0.121146  1
  O  O11  1  0.313787  0.068343  0.941252  1
  O  O12  1  0.080390  0.911353  0.301018  1
  O  O13  1  0.590540  0.189905  0.434957  1
  O  O14  1  0.169454  0.427433  0.572487  1
  O  O15  1  0.413627  0.582552  0.181578  1
  O  O16  1  0.409442  0.810660  0.563947  1
  O  O17  1  0.830078  0.571609  0.426353  1
  O  O18  1  0.587318  0.414481  0.819584  1
