# generated using pymatgen
data_La2Nd4(Ir5Rh)3
_symmetry_space_group_name_H-M   'P 1'
_cell_length_a   5.39235400
_cell_length_b   5.39235140
_cell_length_c   17.66868100
_cell_angle_alpha   90.00000000
_cell_angle_beta   90.00000000
_cell_angle_gamma   120.00297086
_symmetry_Int_Tables_number   1
_chemical_formula_structural   La2Nd4(Ir5Rh)3
_chemical_formula_sum   'La2 Nd4 Ir15 Rh3'
_cell_volume   444.91632479
_cell_formula_units_Z   1
loop_
 _symmetry_equiv_pos_site_id
 _symmetry_equiv_pos_as_xyz
  1  'x, y, z'
loop_
 _atom_site_type_symbol
 _atom_site_label
 _atom_site_symmetry_multiplicity
 _atom_site_fract_x
 _atom_site_fract_y
 _atom_site_fract_z
 _atom_site_occupancy
  La  La0  1  0.333278  0.666566  0.750000  1
  La  La1  1  0.666711  0.333377  0.250000  1
  Nd  Nd2  1  0.333337  0.666668  0.541096  1
  Nd  Nd3  1  0.666671  0.333348  0.041137  1
  Nd  Nd4  1  0.666671  0.333348  0.458863  1
  Nd  Nd5  1  0.333337  0.666668  0.958904  1
  Ir  Ir6  1  0.166576  0.333140  0.127407  1
  Ir  Ir7  1  0.833242  0.666514  0.626816  1
  Ir  Ir8  1  0.666844  0.833483  0.127438  1
  Ir  Ir9  1  0.166654  0.833485  0.127432  1
  Ir  Ir10  1  0.833155  0.166686  0.626844  1
  Ir  Ir11  1  0.333529  0.166692  0.626841  1
  Ir  Ir12  1  0.833242  0.666514  0.873184  1
  Ir  Ir13  1  0.833155  0.166686  0.873156  1
  Ir  Ir14  1  0.333529  0.166692  0.873159  1
  Ir  Ir15  1  0.666844  0.833483  0.372562  1
  Ir  Ir16  1  0.166654  0.833485  0.372568  1
  Ir  Ir17  1  0.166576  0.333140  0.372593  1
  Ir  Ir18  1  0.000012  0.000055  0.250000  1
  Ir  Ir19  1  0.999996  0.000001  0.999948  1
  Ir  Ir20  1  0.999996  0.000001  0.500052  1
  Rh  Rh21  1  0.999976  0.999973  0.750000  1
  Rh  Rh22  1  0.333175  0.666386  0.250000  1
  Rh  Rh23  1  0.666844  0.333612  0.750000  1
