# generated using pymatgen
data_Gd6InCoRu
_symmetry_space_group_name_H-M   'P 1'
_cell_length_a   8.55213544
_cell_length_b   8.55213548
_cell_length_c   8.55213600
_cell_angle_alpha   112.68424386
_cell_angle_beta   110.55112090
_cell_angle_gamma   105.26624261
_symmetry_Int_Tables_number   1
_chemical_formula_structural   Gd6InCoRu
_chemical_formula_sum   'Gd12 In2 Co2 Ru2'
_cell_volume   479.39970739
_cell_formula_units_Z   2
loop_
 _symmetry_equiv_pos_site_id
 _symmetry_equiv_pos_as_xyz
  1  'x, y, z'
loop_
 _atom_site_type_symbol
 _atom_site_label
 _atom_site_symmetry_multiplicity
 _atom_site_fract_x
 _atom_site_fract_y
 _atom_site_fract_z
 _atom_site_occupancy
  Gd  Gd0  1  0.442273  0.240316  0.201958  1
  Gd  Gd1  1  0.557727  0.759684  0.798042  1
  Gd  Gd2  1  0.038358  0.240316  0.798042  1
  Gd  Gd3  1  0.961642  0.759684  0.201958  1
  Gd  Gd4  1  0.183804  0.285965  0.469768  1
  Gd  Gd5  1  0.816196  0.714035  0.530232  1
  Gd  Gd6  1  0.183804  0.714035  0.897840  1
  Gd  Gd7  1  0.816196  0.285965  0.102160  1
  Gd  Gd8  1  0.322460  0.638301  0.315841  1
  Gd  Gd9  1  0.677540  0.361699  0.684159  1
  Gd  Gd10  1  0.322460  0.006617  0.684159  1
  Gd  Gd11  1  0.677540  0.993383  0.315841  1
  In  In12  1  0.500000  0.500000  0.000000  1
  In  In13  1  0.000000  0.000000  0.000000  1
  Co  Co14  1  0.110863  0.610863  0.500000  1
  Co  Co15  1  0.889137  0.389137  0.500000  1
  Ru  Ru16  1  0.331129  0.000000  0.331129  1
  Ru  Ru17  1  0.668871  0.000000  0.668871  1
