# generated using pymatgen
data_PaCo3NiB
_symmetry_space_group_name_H-M   'P 1'
_cell_length_a   4.93394800
_cell_length_b   4.93394523
_cell_length_c   6.92689300
_cell_angle_alpha   90.00000000
_cell_angle_beta   90.00000000
_cell_angle_gamma   119.99995151
_symmetry_Int_Tables_number   1
_chemical_formula_structural   PaCo3NiB
_chemical_formula_sum   'Pa2 Co6 Ni2 B2'
_cell_volume   146.03542386
_cell_formula_units_Z   2
loop_
 _symmetry_equiv_pos_site_id
 _symmetry_equiv_pos_as_xyz
  1  'x, y, z'
loop_
 _atom_site_type_symbol
 _atom_site_label
 _atom_site_symmetry_multiplicity
 _atom_site_fract_x
 _atom_site_fract_y
 _atom_site_fract_z
 _atom_site_occupancy
  Pa  Pa0  1  0.000000  0.000000  0.500000  1
  Pa  Pa1  1  0.000000  0.000000  0.000000  1
  Co  Co2  1  0.500000  0.000000  0.291615  1
  Co  Co3  1  0.500000  0.500000  0.291615  1
  Co  Co4  1  0.000000  0.500000  0.291615  1
  Co  Co5  1  0.500000  0.000000  0.708385  1
  Co  Co6  1  0.500000  0.500000  0.708385  1
  Co  Co7  1  0.000000  0.500000  0.708385  1
  Ni  Ni8  1  0.333333  0.666667  0.000000  1
  Ni  Ni9  1  0.666667  0.333333  0.000000  1
  B  B10  1  0.666667  0.333333  0.500000  1
  B  B11  1  0.333333  0.666667  0.500000  1
