# generated using pymatgen
data_NaLa6PtCl12
_symmetry_space_group_name_H-M   'P 1'
_cell_length_a   9.33670733
_cell_length_b   9.33688538
_cell_length_c   9.33672800
_cell_angle_alpha   107.34106764
_cell_angle_beta   107.33820084
_cell_angle_gamma   107.33814624
_symmetry_Int_Tables_number   1
_chemical_formula_structural   NaLa6PtCl12
_chemical_formula_sum   'Na1 La6 Pt1 Cl12'
_cell_volume   671.48430630
_cell_formula_units_Z   1
loop_
 _symmetry_equiv_pos_site_id
 _symmetry_equiv_pos_as_xyz
  1  'x, y, z'
loop_
 _atom_site_type_symbol
 _atom_site_label
 _atom_site_symmetry_multiplicity
 _atom_site_fract_x
 _atom_site_fract_y
 _atom_site_fract_z
 _atom_site_occupancy
  Na  Na0  1  0.500000  0.500000  0.500000  1
  La  La1  1  0.128177  0.335265  0.026170  1
  La  La2  1  0.333816  0.026099  0.126874  1
  La  La3  1  0.025305  0.126821  0.332866  1
  La  La4  1  0.974696  0.873179  0.667135  1
  La  La5  1  0.666184  0.973902  0.873126  1
  La  La6  1  0.871823  0.664735  0.973830  1
  Pt  Pt7  1  0.000000  0.000000  0.000000  1
  Cl  Cl8  1  0.207920  0.682929  0.070113  1
  Cl  Cl9  1  0.456734  0.365237  0.166528  1
  Cl  Cl10  1  0.682139  0.070066  0.208176  1
  Cl  Cl11  1  0.929948  0.791679  0.317506  1
  Cl  Cl12  1  0.166473  0.456676  0.364625  1
  Cl  Cl13  1  0.364203  0.166064  0.455885  1
  Cl  Cl14  1  0.635797  0.833936  0.544116  1
  Cl  Cl15  1  0.833528  0.543324  0.635375  1
  Cl  Cl16  1  0.070053  0.208321  0.682495  1
  Cl  Cl17  1  0.317862  0.929935  0.791824  1
  Cl  Cl18  1  0.543266  0.634763  0.833473  1
  Cl  Cl19  1  0.792080  0.317071  0.929887  1
