# generated using pymatgen
data_Yb5Si2BiH
_symmetry_space_group_name_H-M   'P 1'
_cell_length_a   9.14342452
_cell_length_b   9.14342391
_cell_length_c   9.14342376
_cell_angle_alpha   129.36284378
_cell_angle_beta   129.36283570
_cell_angle_gamma   74.42743941
_symmetry_Int_Tables_number   1
_chemical_formula_structural   Yb5Si2BiH
_chemical_formula_sum   'Yb10 Si4 Bi2 H2'
_cell_volume   445.33696232
_cell_formula_units_Z   2
loop_
 _symmetry_equiv_pos_site_id
 _symmetry_equiv_pos_as_xyz
  1  'x, y, z'
loop_
 _atom_site_type_symbol
 _atom_site_label
 _atom_site_symmetry_multiplicity
 _atom_site_fract_x
 _atom_site_fract_y
 _atom_site_fract_z
 _atom_site_occupancy
  Yb  Yb0  1  0.500000  0.500000  0.000000  1
  Yb  Yb1  1  0.000000  0.000000  0.000000  1
  Yb  Yb2  1  0.520324  0.020324  0.823117  1
  Yb  Yb3  1  0.197208  0.697208  0.176883  1
  Yb  Yb4  1  0.020324  0.197208  0.500000  1
  Yb  Yb5  1  0.697208  0.520324  0.500000  1
  Yb  Yb6  1  0.479676  0.979676  0.176883  1
  Yb  Yb7  1  0.802792  0.302792  0.823117  1
  Yb  Yb8  1  0.979676  0.802792  0.500000  1
  Yb  Yb9  1  0.302792  0.479676  0.500000  1
  Si  Si10  1  0.883551  0.383551  0.267103  1
  Si  Si11  1  0.116449  0.616449  0.732897  1
  Si  Si12  1  0.383551  0.116449  0.500000  1
  Si  Si13  1  0.616449  0.883551  0.500000  1
  Bi  Bi14  1  0.250000  0.250000  0.000000  1
  Bi  Bi15  1  0.750000  0.750000  0.000000  1
  H  H16  1  0.250000  0.750000  0.500000  1
  H  H17  1  0.750000  0.250000  0.500000  1
