# generated using pymatgen
data_LiSm3(IrO6)2
_symmetry_space_group_name_H-M   'P 1'
_cell_length_a   5.12001900
_cell_length_b   5.12001900
_cell_length_c   18.37440400
_cell_angle_alpha   90.00000000
_cell_angle_beta   90.00000000
_cell_angle_gamma   90.00000000
_symmetry_Int_Tables_number   1
_chemical_formula_structural   LiSm3(IrO6)2
_chemical_formula_sum   'Li2 Sm6 Ir4 O24'
_cell_volume   481.67755115
_cell_formula_units_Z   2
loop_
 _symmetry_equiv_pos_site_id
 _symmetry_equiv_pos_as_xyz
  1  'x, y, z'
loop_
 _atom_site_type_symbol
 _atom_site_label
 _atom_site_symmetry_multiplicity
 _atom_site_fract_x
 _atom_site_fract_y
 _atom_site_fract_z
 _atom_site_occupancy
  Li  Li0  1  0.000000  0.000000  0.000000  1
  Li  Li1  1  0.500000  0.500000  0.500000  1
  Sm  Sm2  1  0.000000  0.500000  0.309966  1
  Sm  Sm3  1  0.500000  0.000000  0.690034  1
  Sm  Sm4  1  0.500000  0.000000  0.190034  1
  Sm  Sm5  1  0.000000  0.500000  0.809966  1
  Sm  Sm6  1  0.000000  0.000000  0.500000  1
  Sm  Sm7  1  0.500000  0.500000  0.000000  1
  Ir  Ir8  1  0.000000  0.500000  0.122416  1
  Ir  Ir9  1  0.500000  0.000000  0.877584  1
  Ir  Ir10  1  0.500000  0.000000  0.377584  1
  Ir  Ir11  1  0.000000  0.500000  0.622416  1
  O  O12  1  0.188497  0.203000  0.385676  1
  O  O13  1  0.811503  0.797000  0.385676  1
  O  O14  1  0.203000  0.811503  0.614324  1
  O  O15  1  0.311503  0.703000  0.114324  1
  O  O16  1  0.797000  0.188497  0.614324  1
  O  O17  1  0.688497  0.297000  0.114324  1
  O  O18  1  0.297000  0.311503  0.885676  1
  O  O19  1  0.703000  0.688497  0.885676  1
  O  O20  1  0.139736  0.286905  0.201018  1
  O  O21  1  0.860264  0.713095  0.201018  1
  O  O22  1  0.286905  0.860264  0.798982  1
  O  O23  1  0.360264  0.786905  0.298982  1
  O  O24  1  0.713095  0.139736  0.798982  1
  O  O25  1  0.639736  0.213095  0.298982  1
  O  O26  1  0.213095  0.360264  0.701018  1
  O  O27  1  0.786905  0.639736  0.701018  1
  O  O28  1  0.158601  0.274419  0.053432  1
  O  O29  1  0.841399  0.725581  0.053432  1
  O  O30  1  0.274419  0.841399  0.946568  1
  O  O31  1  0.341399  0.774419  0.446568  1
  O  O32  1  0.725581  0.158601  0.946568  1
  O  O33  1  0.658601  0.225581  0.446568  1
  O  O34  1  0.225581  0.341399  0.553432  1
  O  O35  1  0.774419  0.658601  0.553432  1
