# generated using pymatgen
data_LaSb12Os2PdRu
_symmetry_space_group_name_H-M   'P 1'
_cell_length_a   8.19560297
_cell_length_b   8.18385353
_cell_length_c   8.18261899
_cell_angle_alpha   109.37422433
_cell_angle_beta   109.51975512
_cell_angle_gamma   109.46539384
_symmetry_Int_Tables_number   1
_chemical_formula_structural   LaSb12Os2PdRu
_chemical_formula_sum   'La1 Sb12 Os2 Pd1 Ru1'
_cell_volume   422.76526271
_cell_formula_units_Z   1
loop_
 _symmetry_equiv_pos_site_id
 _symmetry_equiv_pos_as_xyz
  1  'x, y, z'
loop_
 _atom_site_type_symbol
 _atom_site_label
 _atom_site_symmetry_multiplicity
 _atom_site_fract_x
 _atom_site_fract_y
 _atom_site_fract_z
 _atom_site_occupancy
  La  La0  1  0.000000  0.000000  0.000000  1
  Sb  Sb1  1  0.336076  0.184418  0.839940  1
  Sb  Sb2  1  0.663924  0.815582  0.160060  1
  Sb  Sb3  1  0.661224  0.503643  0.843339  1
  Sb  Sb4  1  0.338776  0.496357  0.156661  1
  Sb  Sb5  1  0.178478  0.842269  0.337839  1
  Sb  Sb6  1  0.821522  0.157731  0.662161  1
  Sb  Sb7  1  0.503540  0.842090  0.654689  1
  Sb  Sb8  1  0.496460  0.157910  0.345311  1
  Sb  Sb9  1  0.849159  0.345439  0.188036  1
  Sb  Sb10  1  0.150841  0.654561  0.811964  1
  Sb  Sb11  1  0.842394  0.664018  0.505722  1
  Sb  Sb12  1  0.157606  0.335982  0.494278  1
  Os  Os13  1  0.000000  0.500000  0.000000  1
  Os  Os14  1  0.500000  0.500000  0.500000  1
  Pd  Pd15  1  0.500000  0.000000  0.000000  1
  Ru  Ru16  1  0.000000  0.000000  0.500000  1
