# generated using pymatgen
data_Y4Sc6Ga7Si
_symmetry_space_group_name_H-M   'P 1'
_cell_length_a   7.26497557
_cell_length_b   7.49150865
_cell_length_c   14.49030200
_cell_angle_alpha   90.00000000
_cell_angle_beta   90.00000000
_cell_angle_gamma   90.25692595
_symmetry_Int_Tables_number   1
_chemical_formula_structural   Y4Sc6Ga7Si
_chemical_formula_sum   'Y8 Sc12 Ga14 Si2'
_cell_volume   788.63584696
_cell_formula_units_Z   2
loop_
 _symmetry_equiv_pos_site_id
 _symmetry_equiv_pos_as_xyz
  1  'x, y, z'
loop_
 _atom_site_type_symbol
 _atom_site_label
 _atom_site_symmetry_multiplicity
 _atom_site_fract_x
 _atom_site_fract_y
 _atom_site_fract_z
 _atom_site_occupancy
  Y  Y0  1  0.012750  0.178568  0.096400  1
  Y  Y1  1  0.987250  0.821432  0.903600  1
  Y  Y2  1  0.489637  0.677688  0.904366  1
  Y  Y3  1  0.987250  0.821432  0.596400  1
  Y  Y4  1  0.510363  0.322312  0.095634  1
  Y  Y5  1  0.012750  0.178568  0.403600  1
  Y  Y6  1  0.510363  0.322312  0.404366  1
  Y  Y7  1  0.489637  0.677688  0.595634  1
  Sc  Sc8  1  0.160528  0.503270  0.750000  1
  Sc  Sc9  1  0.839472  0.496730  0.250000  1
  Sc  Sc10  1  0.336973  0.005430  0.250000  1
  Sc  Sc11  1  0.663027  0.994570  0.750000  1
  Sc  Sc12  1  0.331315  0.174278  0.623057  1
  Sc  Sc13  1  0.668685  0.825722  0.376943  1
  Sc  Sc14  1  0.170569  0.671336  0.376011  1
  Sc  Sc15  1  0.668685  0.825722  0.123057  1
  Sc  Sc16  1  0.829431  0.328664  0.623989  1
  Sc  Sc17  1  0.331315  0.174278  0.876943  1
  Sc  Sc18  1  0.829431  0.328664  0.876011  1
  Sc  Sc19  1  0.170569  0.671336  0.123989  1
  Ga  Ga20  1  0.032655  0.118244  0.750000  1
  Ga  Ga21  1  0.967345  0.881756  0.250000  1
  Ga  Ga22  1  0.467238  0.612861  0.250000  1
  Ga  Ga23  1  0.532762  0.387139  0.750000  1
  Ga  Ga24  1  0.285527  0.871659  0.750000  1
  Ga  Ga25  1  0.714473  0.128341  0.250000  1
  Ga  Ga26  1  0.159306  0.465161  0.540492  1
  Ga  Ga27  1  0.840694  0.534839  0.459508  1
  Ga  Ga28  1  0.338895  0.964696  0.459302  1
  Ga  Ga29  1  0.840694  0.534839  0.040492  1
  Ga  Ga30  1  0.661105  0.035304  0.540698  1
  Ga  Ga31  1  0.159306  0.465161  0.959508  1
  Ga  Ga32  1  0.661105  0.035304  0.959302  1
  Ga  Ga33  1  0.338895  0.964696  0.040698  1
  Si  Si34  1  0.215104  0.374224  0.250000  1
  Si  Si35  1  0.784896  0.625776  0.750000  1
