# generated using pymatgen
data_TlFeNiF6
_symmetry_space_group_name_H-M   'P 1'
_cell_length_a   7.39763542
_cell_length_b   7.39763493
_cell_length_c   7.39763600
_cell_angle_alpha   120.74405579
_cell_angle_beta   118.88384790
_cell_angle_gamma   90.33005284
_symmetry_Int_Tables_number   1
_chemical_formula_structural   TlFeNiF6
_chemical_formula_sum   'Tl2 Fe2 Ni2 F12'
_cell_volume   286.96800367
_cell_formula_units_Z   2
loop_
 _symmetry_equiv_pos_site_id
 _symmetry_equiv_pos_as_xyz
  1  'x, y, z'
loop_
 _atom_site_type_symbol
 _atom_site_label
 _atom_site_symmetry_multiplicity
 _atom_site_fract_x
 _atom_site_fract_y
 _atom_site_fract_z
 _atom_site_occupancy
  Tl  Tl0  1  0.341590  0.091590  0.250000  1
  Tl  Tl1  1  0.658410  0.908410  0.750000  1
  Fe  Fe2  1  0.000000  0.500000  0.500000  1
  Fe  Fe3  1  0.500000  0.500000  0.000000  1
  Ni  Ni4  1  0.000000  0.500000  0.000000  1
  Ni  Ni5  1  0.000000  0.000000  0.500000  1
  F  F6  1  0.312219  0.562219  0.750000  1
  F  F7  1  0.920403  0.170403  0.750000  1
  F  F8  1  0.324872  0.185557  0.756321  1
  F  F9  1  0.929234  0.568551  0.743679  1
  F  F10  1  0.324872  0.568551  0.139317  1
  F  F11  1  0.929234  0.185557  0.360683  1
  F  F12  1  0.687781  0.437781  0.250000  1
  F  F13  1  0.079597  0.829597  0.250000  1
  F  F14  1  0.675128  0.814443  0.243679  1
  F  F15  1  0.070766  0.431449  0.256321  1
  F  F16  1  0.675128  0.431449  0.860683  1
  F  F17  1  0.070766  0.814443  0.639317  1
