# generated using pymatgen
data_Pr2Cd3InPd2
_symmetry_space_group_name_H-M   'P 1'
_cell_length_a   5.57700444
_cell_length_b   5.57700459
_cell_length_c   8.40769277
_cell_angle_alpha   90.02014514
_cell_angle_beta   89.97985392
_cell_angle_gamma   133.74878271
_symmetry_Int_Tables_number   1
_chemical_formula_structural   Pr2Cd3InPd2
_chemical_formula_sum   'Pr2 Cd3 In1 Pd2'
_cell_volume   188.90510640
_cell_formula_units_Z   1
loop_
 _symmetry_equiv_pos_site_id
 _symmetry_equiv_pos_as_xyz
  1  'x, y, z'
loop_
 _atom_site_type_symbol
 _atom_site_label
 _atom_site_symmetry_multiplicity
 _atom_site_fract_x
 _atom_site_fract_y
 _atom_site_fract_z
 _atom_site_occupancy
  Pr  Pr0  1  0.566507  0.433493  0.243438  1
  Pr  Pr1  1  0.434401  0.565599  0.752877  1
  Cd  Cd2  1  0.857086  0.142914  0.047934  1
  Cd  Cd3  1  0.145127  0.854873  0.950692  1
  Cd  Cd4  1  0.139806  0.860194  0.553097  1
  In  In5  1  0.853317  0.146683  0.449914  1
  Pd  Pd6  1  0.279613  0.720387  0.254811  1
  Pd  Pd7  1  0.724144  0.275856  0.747239  1
