# generated using pymatgen
data_SrMnAs4F24
_symmetry_space_group_name_H-M   'P 1'
_cell_length_a   9.82138962
_cell_length_b   9.82138839
_cell_length_c   9.82138760
_cell_angle_alpha   132.16185452
_cell_angle_beta   132.16185137
_cell_angle_gamma   69.97351719
_symmetry_Int_Tables_number   1
_chemical_formula_structural   SrMnAs4F24
_chemical_formula_sum   'Sr1 Mn1 As4 F24'
_cell_volume   510.36314897
_cell_formula_units_Z   1
loop_
 _symmetry_equiv_pos_site_id
 _symmetry_equiv_pos_as_xyz
  1  'x, y, z'
loop_
 _atom_site_type_symbol
 _atom_site_label
 _atom_site_symmetry_multiplicity
 _atom_site_fract_x
 _atom_site_fract_y
 _atom_site_fract_z
 _atom_site_occupancy
  Sr  Sr0  1  0.750000  0.250000  0.500000  1
  Mn  Mn1  1  0.000000  0.000000  0.000000  1
  As  As2  1  0.788364  0.788364  0.000000  1
  As  As3  1  0.211636  0.211636  0.000000  1
  As  As4  1  0.976199  0.476199  0.500000  1
  As  As5  1  0.523801  0.023801  0.500000  1
  F  F6  1  0.868545  0.765351  0.202537  1
  F  F7  1  0.562813  0.666008  0.797463  1
  F  F8  1  0.424341  0.793370  0.315715  1
  F  F9  1  0.333992  0.131455  0.896806  1
  F  F10  1  0.234649  0.437187  0.103194  1
  F  F11  1  0.206630  0.522344  0.630970  1
  F  F12  1  0.632005  0.255817  0.675309  1
  F  F13  1  0.744183  0.419492  0.376188  1
  F  F14  1  0.043305  0.367995  0.623812  1
  F  F15  1  0.085213  0.271412  0.101096  1
  F  F16  1  0.170316  0.984116  0.898904  1
  F  F17  1  0.580508  0.956695  0.324691  1
  F  F18  1  0.728588  0.829684  0.813801  1
  F  F19  1  0.015884  0.914787  0.186199  1
  F  F20  1  0.301872  0.066392  0.312661  1
  F  F21  1  0.933608  0.246269  0.235480  1
  F  F22  1  0.010788  0.698128  0.764520  1
  F  F23  1  0.423293  0.277999  0.283152  1
  F  F24  1  0.994848  0.140141  0.716848  1
  F  F25  1  0.753731  0.989212  0.687339  1
  F  F26  1  0.722001  0.005152  0.145292  1
  F  F27  1  0.859859  0.576707  0.854708  1
  F  F28  1  0.477656  0.108625  0.684285  1
  F  F29  1  0.891375  0.575659  0.369030  1
