# generated using pymatgen
data_SrEu(ZnAu2)3
_symmetry_space_group_name_H-M   'P 1'
_cell_length_a   8.84366847
_cell_length_b   8.84366821
_cell_length_c   8.84366802
_cell_angle_alpha   57.23007723
_cell_angle_beta   57.23007664
_cell_angle_gamma   57.23008423
_symmetry_Int_Tables_number   1
_chemical_formula_structural   SrEu(ZnAu2)3
_chemical_formula_sum   'Sr2 Eu2 Zn6 Au12'
_cell_volume   457.88189213
_cell_formula_units_Z   2
loop_
 _symmetry_equiv_pos_site_id
 _symmetry_equiv_pos_as_xyz
  1  'x, y, z'
loop_
 _atom_site_type_symbol
 _atom_site_label
 _atom_site_symmetry_multiplicity
 _atom_site_fract_x
 _atom_site_fract_y
 _atom_site_fract_z
 _atom_site_occupancy
  Sr  Sr0  1  0.092240  0.092240  0.092240  1
  Sr  Sr1  1  0.592240  0.592240  0.592240  1
  Eu  Eu2  1  0.907311  0.907311  0.907311  1
  Eu  Eu3  1  0.407311  0.407311  0.407311  1
  Zn  Zn4  1  0.559078  0.749642  0.941022  1
  Zn  Zn5  1  0.941022  0.559078  0.749642  1
  Zn  Zn6  1  0.749642  0.941022  0.559078  1
  Zn  Zn7  1  0.441022  0.249642  0.059078  1
  Zn  Zn8  1  0.059078  0.441022  0.249642  1
  Zn  Zn9  1  0.249642  0.059078  0.441022  1
  Au  Au10  1  0.481550  0.862488  0.205657  1
  Au  Au11  1  0.205657  0.481550  0.862488  1
  Au  Au12  1  0.862488  0.205657  0.481550  1
  Au  Au13  1  0.705657  0.362488  0.981550  1
  Au  Au14  1  0.981550  0.705657  0.362488  1
  Au  Au15  1  0.362488  0.981550  0.705657  1
  Au  Au16  1  0.519757  0.138736  0.792518  1
  Au  Au17  1  0.792518  0.519757  0.138736  1
  Au  Au18  1  0.138736  0.792518  0.519757  1
  Au  Au19  1  0.292518  0.638736  0.019757  1
  Au  Au20  1  0.019757  0.292518  0.638736  1
  Au  Au21  1  0.638736  0.019757  0.292518  1
