# generated using pymatgen
data_TbGd4Ho5Ir4
_symmetry_space_group_name_H-M   'P 1'
_cell_length_a   6.41923211
_cell_length_b   7.06314594
_cell_length_c   8.64154500
_cell_angle_alpha   96.92926147
_cell_angle_beta   111.78879795
_cell_angle_gamma   90.11178515
_symmetry_Int_Tables_number   1
_chemical_formula_structural   TbGd4Ho5Ir4
_chemical_formula_sum   'Tb1 Gd4 Ho5 Ir4'
_cell_volume   360.69426912
_cell_formula_units_Z   1
loop_
 _symmetry_equiv_pos_site_id
 _symmetry_equiv_pos_as_xyz
  1  'x, y, z'
loop_
 _atom_site_type_symbol
 _atom_site_label
 _atom_site_symmetry_multiplicity
 _atom_site_fract_x
 _atom_site_fract_y
 _atom_site_fract_z
 _atom_site_occupancy
  Tb  Tb0  1  0.648168  0.812324  0.439922  1
  Gd  Gd1  1  0.976405  0.920713  0.187889  1
  Gd  Gd2  1  0.786786  0.578697  0.811181  1
  Gd  Gd3  1  0.023963  0.078464  0.811312  1
  Gd  Gd4  1  0.212705  0.421631  0.188556  1
  Ho  Ho5  1  0.207219  0.687805  0.561206  1
  Ho  Ho6  1  0.353061  0.187736  0.561439  1
  Ho  Ho7  1  0.793846  0.312507  0.439175  1
  Ho  Ho8  1  0.428184  0.749847  0.998842  1
  Ho  Ho9  1  0.571198  0.250207  0.000605  1
  Ir  Ir10  1  0.818140  0.572450  0.223321  1
  Ir  Ir11  1  0.594871  0.927649  0.777909  1
  Ir  Ir12  1  0.180351  0.426848  0.774856  1
  Ir  Ir13  1  0.405104  0.073120  0.223786  1
