# generated using pymatgen
data_YbDyY2(W2O7)2
_symmetry_space_group_name_H-M   'P 1'
_cell_length_a   7.34067065
_cell_length_b   7.34067048
_cell_length_c   7.45843431
_cell_angle_alpha   60.50522054
_cell_angle_beta   60.50522338
_cell_angle_gamma   59.96140999
_symmetry_Int_Tables_number   1
_chemical_formula_structural   YbDyY2(W2O7)2
_chemical_formula_sum   'Yb1 Dy1 Y2 W4 O14'
_cell_volume   286.25297825
_cell_formula_units_Z   1
loop_
 _symmetry_equiv_pos_site_id
 _symmetry_equiv_pos_as_xyz
  1  'x, y, z'
loop_
 _atom_site_type_symbol
 _atom_site_label
 _atom_site_symmetry_multiplicity
 _atom_site_fract_x
 _atom_site_fract_y
 _atom_site_fract_z
 _atom_site_occupancy
  Yb  Yb0  1  0.500000  0.500000  0.000000  1
  Dy  Dy1  1  0.500000  0.500000  0.500000  1
  Y  Y2  1  0.000000  0.500000  0.500000  1
  Y  Y3  1  0.500000  0.000000  0.500000  1
  W  W4  1  0.500000  0.000000  0.000000  1
  W  W5  1  0.000000  0.500000  0.000000  1
  W  W6  1  0.000000  0.000000  0.000000  1
  W  W7  1  0.000000  0.000000  0.500000  1
  O  O8  1  0.372843  0.372843  0.381953  1
  O  O9  1  0.627157  0.627157  0.618047  1
  O  O10  1  0.084297  0.671865  0.660221  1
  O  O11  1  0.338317  0.924848  0.898714  1
  O  O12  1  0.671865  0.084297  0.660221  1
  O  O13  1  0.084195  0.084195  0.660022  1
  O  O14  1  0.661824  0.661824  0.103042  1
  O  O15  1  0.075152  0.661683  0.101286  1
  O  O16  1  0.661683  0.075152  0.101286  1
  O  O17  1  0.338176  0.338176  0.896958  1
  O  O18  1  0.915805  0.915805  0.339978  1
  O  O19  1  0.915703  0.328135  0.339779  1
  O  O20  1  0.924848  0.338317  0.898714  1
  O  O21  1  0.328135  0.915703  0.339779  1
