# generated using pymatgen
data_YHo4P12Ru16Pt3
_symmetry_space_group_name_H-M   'P 1'
_cell_length_a   12.58276400
_cell_length_b   12.58181584
_cell_length_c   3.98382800
_cell_angle_alpha   90.00000000
_cell_angle_beta   90.00000000
_cell_angle_gamma   120.00248764
_symmetry_Int_Tables_number   1
_chemical_formula_structural   YHo4P12Ru16Pt3
_chemical_formula_sum   'Y1 Ho4 P12 Ru16 Pt3'
_cell_volume   546.18491304
_cell_formula_units_Z   1
loop_
 _symmetry_equiv_pos_site_id
 _symmetry_equiv_pos_as_xyz
  1  'x, y, z'
loop_
 _atom_site_type_symbol
 _atom_site_label
 _atom_site_symmetry_multiplicity
 _atom_site_fract_x
 _atom_site_fract_y
 _atom_site_fract_z
 _atom_site_occupancy
  Y  Y0  1  0.182093  0.000000  0.500000  1
  Ho  Ho1  1  0.999968  0.182019  0.500000  1
  Ho  Ho2  1  0.817949  0.817981  0.500000  1
  Ho  Ho3  1  0.666683  0.333345  0.000000  1
  Ho  Ho4  1  0.333337  0.666655  0.000000  1
  P  P5  1  0.999829  0.814964  0.000000  1
  P  P6  1  0.184865  0.185036  0.000000  1
  P  P7  1  0.815118  0.000000  0.000000  1
  P  P8  1  0.699803  0.180407  0.500000  1
  P  P9  1  0.819579  0.519376  0.500000  1
  P  P10  1  0.480618  0.300189  0.500000  1
  P  P11  1  0.180429  0.699811  0.500000  1
  P  P12  1  0.519395  0.819593  0.500000  1
  P  P13  1  0.300203  0.480624  0.500000  1
  P  P14  1  0.000002  0.365193  0.000000  1
  P  P15  1  0.634809  0.634807  0.000000  1
  P  P16  1  0.365430  0.000000  0.000000  1
  Ru  Ru17  1  0.999877  0.710984  0.500000  1
  Ru  Ru18  1  0.288893  0.289016  0.500000  1
  Ru  Ru19  1  0.711163  0.000000  0.500000  1
  Ru  Ru20  1  0.806585  0.185002  0.000000  1
  Ru  Ru21  1  0.814979  0.621586  0.000000  1
  Ru  Ru22  1  0.378714  0.193709  0.000000  1
  Ru  Ru23  1  0.185007  0.806291  0.000000  1
  Ru  Ru24  1  0.621586  0.814998  0.000000  1
  Ru  Ru25  1  0.193395  0.378414  0.000000  1
  Ru  Ru26  1  0.875141  0.369333  0.500000  1
  Ru  Ru27  1  0.630679  0.505812  0.500000  1
  Ru  Ru28  1  0.494236  0.124866  0.500000  1
  Ru  Ru29  1  0.369370  0.875134  0.500000  1
  Ru  Ru30  1  0.505808  0.630667  0.500000  1
  Ru  Ru31  1  0.124867  0.494188  0.500000  1
  Ru  Ru32  1  0.999546  0.000000  0.000000  1
  Pt  Pt33  1  0.000003  0.551454  0.000000  1
  Pt  Pt34  1  0.448549  0.448546  0.000000  1
  Pt  Pt35  1  0.551490  0.000000  0.000000  1
