# generated using pymatgen
data_NpP2NCl12
_symmetry_space_group_name_H-M   'P 1'
_cell_length_a   8.43730706
_cell_length_b   8.43730682
_cell_length_c   16.23509824
_cell_angle_alpha   78.43369669
_cell_angle_beta   78.43369676
_cell_angle_gamma   66.12120730
_symmetry_Int_Tables_number   1
_chemical_formula_structural   NpP2NCl12
_chemical_formula_sum   'Np2 P4 N2 Cl24'
_cell_volume   1026.13077849
_cell_formula_units_Z   2
loop_
 _symmetry_equiv_pos_site_id
 _symmetry_equiv_pos_as_xyz
  1  'x, y, z'
loop_
 _atom_site_type_symbol
 _atom_site_label
 _atom_site_symmetry_multiplicity
 _atom_site_fract_x
 _atom_site_fract_y
 _atom_site_fract_z
 _atom_site_occupancy
  Np  Np0  1  0.000000  0.000000  0.500000  1
  Np  Np1  1  0.000000  0.000000  0.000000  1
  P  P2  1  0.460574  0.321893  0.770483  1
  P  P3  1  0.678107  0.539426  0.729517  1
  P  P4  1  0.321893  0.460574  0.270483  1
  P  P5  1  0.539426  0.678107  0.229517  1
  N  N6  1  0.618648  0.381352  0.750000  1
  N  N7  1  0.381352  0.618648  0.250000  1
  Cl  Cl8  1  0.693146  0.226199  0.009151  1
  Cl  Cl9  1  0.778450  0.892895  0.471169  1
  Cl  Cl10  1  0.306854  0.773801  0.990849  1
  Cl  Cl11  1  0.897761  0.482858  0.650528  1
  Cl  Cl12  1  0.242551  0.495004  0.823524  1
  Cl  Cl13  1  0.517142  0.102239  0.849472  1
  Cl  Cl14  1  0.107105  0.221550  0.028831  1
  Cl  Cl15  1  0.482858  0.897761  0.150528  1
  Cl  Cl16  1  0.951371  0.906300  0.157235  1
  Cl  Cl17  1  0.773801  0.306854  0.490849  1
  Cl  Cl18  1  0.906300  0.951371  0.657235  1
  Cl  Cl19  1  0.221550  0.107105  0.528831  1
  Cl  Cl20  1  0.892895  0.778450  0.971169  1
  Cl  Cl21  1  0.274256  0.402609  0.167835  1
  Cl  Cl22  1  0.597391  0.725744  0.332165  1
  Cl  Cl23  1  0.093700  0.048629  0.342765  1
  Cl  Cl24  1  0.725744  0.597391  0.832165  1
  Cl  Cl25  1  0.226199  0.693146  0.509151  1
  Cl  Cl26  1  0.048629  0.093700  0.842765  1
  Cl  Cl27  1  0.102239  0.517142  0.349472  1
  Cl  Cl28  1  0.757449  0.504996  0.176476  1
  Cl  Cl29  1  0.504996  0.757449  0.676476  1
  Cl  Cl30  1  0.402609  0.274256  0.667835  1
  Cl  Cl31  1  0.495004  0.242551  0.323524  1
