# generated using pymatgen
data_Er10CdIn5(HgPd2)2
_symmetry_space_group_name_H-M   'P 1'
_cell_length_a   3.61637000
_cell_length_b   7.99426579
_cell_length_c   18.22561322
_cell_angle_alpha   89.96110700
_cell_angle_beta   90.00000000
_cell_angle_gamma   90.00000000
_symmetry_Int_Tables_number   1
_chemical_formula_structural   Er10CdIn5(HgPd2)2
_chemical_formula_sum   'Er10 Cd1 In5 Hg2 Pd4'
_cell_volume   526.90642070
_cell_formula_units_Z   1
loop_
 _symmetry_equiv_pos_site_id
 _symmetry_equiv_pos_as_xyz
  1  'x, y, z'
loop_
 _atom_site_type_symbol
 _atom_site_label
 _atom_site_symmetry_multiplicity
 _atom_site_fract_x
 _atom_site_fract_y
 _atom_site_fract_z
 _atom_site_occupancy
  Er  Er0  1  0.000000  0.502890  0.497168  1
  Er  Er1  1  0.000000  0.003655  0.002049  1
  Er  Er2  1  0.000000  0.746020  0.283518  1
  Er  Er3  1  0.000000  0.254272  0.721234  1
  Er  Er4  1  0.000000  0.753803  0.780267  1
  Er  Er5  1  0.000000  0.245624  0.216411  1
  Er  Er6  1  0.000000  0.613105  0.084779  1
  Er  Er7  1  0.000000  0.385342  0.916458  1
  Er  Er8  1  0.000000  0.881845  0.584167  1
  Er  Er9  1  0.000000  0.110679  0.415100  1
  Cd  Cd10  1  0.500000  0.713591  0.932206  1
  In  In11  1  0.500000  0.210295  0.567424  1
  In  In12  1  0.500000  0.573236  0.648184  1
  In  In13  1  0.500000  0.421569  0.350234  1
  In  In14  1  0.500000  0.921419  0.148857  1
  In  In15  1  0.500000  0.073030  0.852907  1
  Hg  Hg16  1  0.500000  0.291386  0.066415  1
  Hg  Hg17  1  0.500000  0.789404  0.432917  1
  Pd  Pd18  1  0.500000  0.532663  0.197811  1
  Pd  Pd19  1  0.500000  0.471732  0.803983  1
  Pd  Pd20  1  0.500000  0.971462  0.696070  1
  Pd  Pd21  1  0.500000  0.032978  0.301844  1
