# generated using pymatgen
data_Gd8Se(SO8)3
_symmetry_space_group_name_H-M   'P 1'
_cell_length_a   13.14663400
_cell_length_b   8.21338201
_cell_length_c   4.24484601
_cell_angle_alpha   90.00691501
_cell_angle_beta   90.00000000
_cell_angle_gamma   90.00000000
_symmetry_Int_Tables_number   1
_chemical_formula_structural   Gd8Se(SO8)3
_chemical_formula_sum   'Gd8 Se1 S3 O24'
_cell_volume   458.35136802
_cell_formula_units_Z   1
loop_
 _symmetry_equiv_pos_site_id
 _symmetry_equiv_pos_as_xyz
  1  'x, y, z'
loop_
 _atom_site_type_symbol
 _atom_site_label
 _atom_site_symmetry_multiplicity
 _atom_site_fract_x
 _atom_site_fract_y
 _atom_site_fract_z
 _atom_site_occupancy
  Gd  Gd0  1  0.580984  0.124778  0.243255  1
  Gd  Gd1  1  0.919016  0.124778  0.243255  1
  Gd  Gd2  1  0.579679  0.624660  0.259477  1
  Gd  Gd3  1  0.920321  0.624660  0.259477  1
  Gd  Gd4  1  0.076441  0.372469  0.743591  1
  Gd  Gd5  1  0.423558  0.372469  0.743591  1
  Gd  Gd6  1  0.076330  0.877226  0.756926  1
  Gd  Gd7  1  0.423669  0.877226  0.756926  1
  Se  Se8  1  0.250000  0.623537  0.199907  1
  S  S9  1  0.250000  0.123619  0.298922  1
  S  S10  1  0.750000  0.876592  0.692452  1
  S  S11  1  0.750000  0.376619  0.808151  1
  O  O12  1  0.750000  0.228259  0.014918  1
  O  O13  1  0.750000  0.523351  0.018504  1
  O  O14  1  0.156631  0.123398  0.102798  1
  O  O15  1  0.343370  0.123398  0.102798  1
  O  O16  1  0.002078  0.373008  0.232726  1
  O  O17  1  0.497921  0.373008  0.232726  1
  O  O18  1  0.001931  0.876260  0.267453  1
  O  O19  1  0.498068  0.876260  0.267453  1
  O  O20  1  0.144643  0.623814  0.417556  1
  O  O21  1  0.355358  0.623814  0.417556  1
  O  O22  1  0.750000  0.023497  0.481989  1
  O  O23  1  0.750000  0.728416  0.485548  1
  O  O24  1  0.250000  0.271842  0.505265  1
  O  O25  1  0.250000  0.976833  0.508523  1
  O  O26  1  0.657068  0.376537  0.611505  1
  O  O27  1  0.842932  0.376537  0.611505  1
  O  O28  1  0.506010  0.125151  0.732824  1
  O  O29  1  0.993990  0.125151  0.732824  1
  O  O30  1  0.506726  0.625161  0.772840  1
  O  O31  1  0.993274  0.625161  0.772840  1
  O  O32  1  0.657056  0.877128  0.888869  1
  O  O33  1  0.842944  0.877128  0.888869  1
  O  O34  1  0.250000  0.460825  0.961580  1
  O  O35  1  0.250000  0.787423  0.964590  1
