# generated using pymatgen
data_TbGd3Ga12Pt
_symmetry_space_group_name_H-M   'P 1'
_cell_length_a   7.50614985
_cell_length_b   7.55341522
_cell_length_c   7.50615000
_cell_angle_alpha   109.59883252
_cell_angle_beta   109.34331084
_cell_angle_gamma   109.59883016
_symmetry_Int_Tables_number   1
_chemical_formula_structural   TbGd3Ga12Pt
_chemical_formula_sum   'Tb1 Gd3 Ga12 Pt1'
_cell_volume   327.09171073
_cell_formula_units_Z   1
loop_
 _symmetry_equiv_pos_site_id
 _symmetry_equiv_pos_as_xyz
  1  'x, y, z'
loop_
 _atom_site_type_symbol
 _atom_site_label
 _atom_site_symmetry_multiplicity
 _atom_site_fract_x
 _atom_site_fract_y
 _atom_site_fract_z
 _atom_site_occupancy
  Tb  Tb0  1  0.000000  0.500000  0.000000  1
  Gd  Gd1  1  0.500000  0.000000  0.000000  1
  Gd  Gd2  1  0.000000  0.000000  0.500000  1
  Gd  Gd3  1  0.500000  0.500000  0.500000  1
  Ga  Ga4  1  0.297191  0.000691  0.297191  1
  Ga  Ga5  1  0.000000  0.703501  0.702809  1
  Ga  Ga6  1  0.250005  0.750005  0.500011  1
  Ga  Ga7  1  0.749995  0.500000  0.250005  1
  Ga  Ga8  1  0.499989  0.249995  0.749995  1
  Ga  Ga9  1  0.749995  0.249995  0.499989  1
  Ga  Ga10  1  0.702809  0.703501  0.000000  1
  Ga  Ga11  1  0.702809  0.999309  0.702809  1
  Ga  Ga12  1  0.250005  0.500000  0.749995  1
  Ga  Ga13  1  0.500011  0.750005  0.250005  1
  Ga  Ga14  1  0.297191  0.296499  0.000000  1
  Ga  Ga15  1  0.000000  0.296499  0.297191  1
  Pt  Pt16  1  0.000000  0.000000  0.000000  1
