# generated using pymatgen
data_Yb4TaAl4Sb3O20
_symmetry_space_group_name_H-M   'P 1'
_cell_length_a   9.00685107
_cell_length_b   6.57178349
_cell_length_c   7.66707260
_cell_angle_alpha   61.34361879
_cell_angle_beta   89.96553624
_cell_angle_gamma   89.76337382
_symmetry_Int_Tables_number   1
_chemical_formula_structural   Yb4TaAl4Sb3O20
_chemical_formula_sum   'Yb4 Ta1 Al4 Sb3 O20'
_cell_volume   398.23037291
_cell_formula_units_Z   1
loop_
 _symmetry_equiv_pos_site_id
 _symmetry_equiv_pos_as_xyz
  1  'x, y, z'
loop_
 _atom_site_type_symbol
 _atom_site_label
 _atom_site_symmetry_multiplicity
 _atom_site_fract_x
 _atom_site_fract_y
 _atom_site_fract_z
 _atom_site_occupancy
  Yb  Yb0  1  0.661469  0.682342  0.305283  1
  Yb  Yb1  1  0.841116  0.680117  0.805590  1
  Yb  Yb2  1  0.338531  0.317658  0.694717  1
  Yb  Yb3  1  0.158884  0.319883  0.194410  1
  Ta  Ta4  1  0.000000  0.500000  0.500000  1
  Al  Al5  1  0.186626  0.768798  0.748898  1
  Al  Al6  1  0.685450  0.231883  0.754892  1
  Al  Al7  1  0.314550  0.768117  0.245108  1
  Al  Al8  1  0.813374  0.231202  0.251102  1
  Sb  Sb9  1  0.500000  0.000000  0.500000  1
  Sb  Sb10  1  0.500000  0.500000  0.000000  1
  Sb  Sb11  1  0.000000  0.000000  0.000000  1
  O  O12  1  0.804555  0.990454  0.879379  1
  O  O13  1  0.567365  0.251409  0.559582  1
  O  O14  1  0.916515  0.764700  0.257392  1
  O  O15  1  0.432635  0.748591  0.440418  1
  O  O16  1  0.695561  0.990972  0.378235  1
  O  O17  1  0.201168  0.519325  0.380928  1
  O  O18  1  0.412122  0.240948  0.245138  1
  O  O19  1  0.702309  0.485244  0.116119  1
  O  O20  1  0.798832  0.480675  0.619072  1
  O  O21  1  0.552156  0.278940  0.900731  1
  O  O22  1  0.942445  0.287932  0.394551  1
  O  O23  1  0.067707  0.744590  0.945064  1
  O  O24  1  0.932293  0.255410  0.054936  1
  O  O25  1  0.587878  0.759052  0.754862  1
  O  O26  1  0.057555  0.712068  0.605449  1
  O  O27  1  0.447844  0.721060  0.099269  1
  O  O28  1  0.297691  0.514756  0.883881  1
  O  O29  1  0.304439  0.009028  0.621765  1
  O  O30  1  0.083485  0.235300  0.742608  1
  O  O31  1  0.195445  0.009546  0.120621  1
