# generated using pymatgen
data_TbDy3Lu4(ReB6)4
_symmetry_space_group_name_H-M   'P 1'
_cell_length_a   3.64639500
_cell_length_b   9.10712500
_cell_length_c   11.49595400
_cell_angle_alpha   90.00299752
_cell_angle_beta   90.00000000
_cell_angle_gamma   90.00000000
_symmetry_Int_Tables_number   1
_chemical_formula_structural   TbDy3Lu4(ReB6)4
_chemical_formula_sum   'Tb1 Dy3 Lu4 Re4 B24'
_cell_volume   381.75965270
_cell_formula_units_Z   1
loop_
 _symmetry_equiv_pos_site_id
 _symmetry_equiv_pos_as_xyz
  1  'x, y, z'
loop_
 _atom_site_type_symbol
 _atom_site_label
 _atom_site_symmetry_multiplicity
 _atom_site_fract_x
 _atom_site_fract_y
 _atom_site_fract_z
 _atom_site_occupancy
  Tb  Tb0  1  0.000000  0.323094  0.413980  1
  Dy  Dy1  1  0.000000  0.676832  0.586074  1
  Dy  Dy2  1  0.000000  0.823150  0.086023  1
  Dy  Dy3  1  0.000000  0.176780  0.913950  1
  Lu  Lu4  1  0.000000  0.943569  0.370202  1
  Lu  Lu5  1  0.000000  0.056387  0.629824  1
  Lu  Lu6  1  0.000000  0.443635  0.129734  1
  Lu  Lu7  1  0.000000  0.556405  0.870249  1
  Re  Re8  1  0.000000  0.639894  0.319919  1
  Re  Re9  1  0.000000  0.360265  0.680188  1
  Re  Re10  1  0.000000  0.139651  0.179873  1
  Re  Re11  1  0.000000  0.860264  0.819979  1
  B  B12  1  0.500000  0.554103  0.432563  1
  B  B13  1  0.500000  0.446158  0.567586  1
  B  B14  1  0.500000  0.053867  0.067383  1
  B  B15  1  0.500000  0.946082  0.932583  1
  B  B16  1  0.500000  0.751164  0.418425  1
  B  B17  1  0.500000  0.248855  0.581820  1
  B  B18  1  0.500000  0.251138  0.081538  1
  B  B19  1  0.500000  0.748889  0.918416  1
  B  B20  1  0.500000  0.793346  0.265512  1
  B  B21  1  0.500000  0.206641  0.734507  1
  B  B22  1  0.500000  0.293273  0.234299  1
  B  B23  1  0.500000  0.706641  0.765544  1
  B  B24  1  0.500000  0.630462  0.184839  1
  B  B25  1  0.500000  0.369588  0.815131  1
  B  B26  1  0.500000  0.130265  0.315004  1
  B  B27  1  0.500000  0.869555  0.684891  1
  B  B28  1  0.500000  0.982007  0.212704  1
  B  B29  1  0.500000  0.017948  0.787301  1
  B  B30  1  0.500000  0.482295  0.287146  1
  B  B31  1  0.500000  0.517988  0.712766  1
  B  B32  1  0.500000  0.598033  0.027220  1
  B  B33  1  0.500000  0.401996  0.972775  1
  B  B34  1  0.500000  0.097763  0.472839  1
  B  B35  1  0.500000  0.902016  0.527213  1
