# generated using pymatgen
data_Dy5Hf8ScGa8Ir7
_symmetry_space_group_name_H-M   'P 1'
_cell_length_a   9.19478714
_cell_length_b   9.23736145
_cell_length_c   9.23736166
_cell_angle_alpha   59.69530427
_cell_angle_beta   60.15234277
_cell_angle_gamma   60.15234461
_symmetry_Int_Tables_number   1
_chemical_formula_structural   Dy5Hf8ScGa8Ir7
_chemical_formula_sum   'Dy5 Hf8 Sc1 Ga8 Ir7'
_cell_volume   554.75876526
_cell_formula_units_Z   1
loop_
 _symmetry_equiv_pos_site_id
 _symmetry_equiv_pos_as_xyz
  1  'x, y, z'
loop_
 _atom_site_type_symbol
 _atom_site_label
 _atom_site_symmetry_multiplicity
 _atom_site_fract_x
 _atom_site_fract_y
 _atom_site_fract_z
 _atom_site_occupancy
  Dy  Dy0  1  0.688765  0.689982  0.311235  1
  Dy  Dy1  1  0.310018  0.689982  0.311235  1
  Dy  Dy2  1  0.693828  0.306172  0.306172  1
  Dy  Dy3  1  0.310018  0.311235  0.689982  1
  Dy  Dy4  1  0.688765  0.311235  0.689982  1
  Hf  Hf5  1  0.875491  0.872817  0.376203  1
  Hf  Hf6  1  0.875491  0.376203  0.872817  1
  Hf  Hf7  1  0.374052  0.874712  0.874712  1
  Hf  Hf8  1  0.876524  0.874712  0.874712  1
  Hf  Hf9  1  0.125288  0.123476  0.625948  1
  Hf  Hf10  1  0.125288  0.625948  0.123476  1
  Hf  Hf11  1  0.623797  0.124509  0.124509  1
  Hf  Hf12  1  0.127183  0.124509  0.124509  1
  Sc  Sc13  1  0.308453  0.691547  0.691547  1
  Ga  Ga14  1  0.658711  0.658621  0.023958  1
  Ga  Ga15  1  0.658711  0.023958  0.658621  1
  Ga  Ga16  1  0.030123  0.659073  0.659073  1
  Ga  Ga17  1  0.651731  0.659073  0.659073  1
  Ga  Ga18  1  0.340927  0.348269  0.969877  1
  Ga  Ga19  1  0.340927  0.969877  0.348269  1
  Ga  Ga20  1  0.976042  0.341289  0.341289  1
  Ga  Ga21  1  0.341379  0.341289  0.341289  1
  Ir  Ir22  1  0.000032  0.999968  0.999968  1
  Ir  Ir23  1  0.000602  0.999398  0.500619  1
  Ir  Ir24  1  0.499381  0.999398  0.500619  1
  Ir  Ir25  1  0.999246  0.500754  0.500754  1
  Ir  Ir26  1  0.499381  0.500619  0.999398  1
  Ir  Ir27  1  0.000602  0.500619  0.999398  1
  Ir  Ir28  1  0.499246  0.000754  0.000754  1
