# generated using pymatgen
data_Tl(Sb3Pd10)2
_symmetry_space_group_name_H-M   'P 1'
_cell_length_a   7.84818989
_cell_length_b   7.84819043
_cell_length_c   7.84818916
_cell_angle_alpha   99.19083182
_cell_angle_beta   99.19082192
_cell_angle_gamma   99.19082785
_symmetry_Int_Tables_number   1
_chemical_formula_structural   Tl(Sb3Pd10)2
_chemical_formula_sum   'Tl1 Sb6 Pd20'
_cell_volume   462.48113579
_cell_formula_units_Z   1
loop_
 _symmetry_equiv_pos_site_id
 _symmetry_equiv_pos_as_xyz
  1  'x, y, z'
loop_
 _atom_site_type_symbol
 _atom_site_label
 _atom_site_symmetry_multiplicity
 _atom_site_fract_x
 _atom_site_fract_y
 _atom_site_fract_z
 _atom_site_occupancy
  Tl  Tl0  1  0.000000  0.000000  0.000000  1
  Sb  Sb1  1  0.456151  0.877930  0.726159  1
  Sb  Sb2  1  0.877930  0.726159  0.456151  1
  Sb  Sb3  1  0.726159  0.456151  0.877930  1
  Sb  Sb4  1  0.543849  0.122070  0.273841  1
  Sb  Sb5  1  0.122070  0.273841  0.543849  1
  Sb  Sb6  1  0.273841  0.543849  0.122070  1
  Pd  Pd7  1  0.376383  0.376383  0.376383  1
  Pd  Pd8  1  0.623617  0.623617  0.623617  1
  Pd  Pd9  1  0.996414  0.344191  0.228964  1
  Pd  Pd10  1  0.344191  0.228964  0.996414  1
  Pd  Pd11  1  0.228964  0.996413  0.344191  1
  Pd  Pd12  1  0.003586  0.655809  0.771036  1
  Pd  Pd13  1  0.655809  0.771036  0.003587  1
  Pd  Pd14  1  0.771036  0.003587  0.655809  1
  Pd  Pd15  1  0.685431  0.144592  0.987736  1
  Pd  Pd16  1  0.144592  0.987736  0.685431  1
  Pd  Pd17  1  0.987736  0.685431  0.144592  1
  Pd  Pd18  1  0.314569  0.855408  0.012264  1
  Pd  Pd19  1  0.855408  0.012264  0.314569  1
  Pd  Pd20  1  0.012264  0.314569  0.855408  1
  Pd  Pd21  1  0.208794  0.664168  0.478133  1
  Pd  Pd22  1  0.664168  0.478133  0.208794  1
  Pd  Pd23  1  0.478133  0.208794  0.664168  1
  Pd  Pd24  1  0.791206  0.335832  0.521867  1
  Pd  Pd25  1  0.335832  0.521867  0.791206  1
  Pd  Pd26  1  0.521867  0.791206  0.335832  1
