# generated using pymatgen
data_Er20Cd6TcNi
_symmetry_space_group_name_H-M   'P 1'
_cell_length_a   9.49190700
_cell_length_b   9.49190710
_cell_length_c   9.78053000
_cell_angle_alpha   90.00000000
_cell_angle_beta   90.00000000
_cell_angle_gamma   119.99999616
_symmetry_Int_Tables_number   1
_chemical_formula_structural   Er20Cd6TcNi
_chemical_formula_sum   'Er20 Cd6 Tc1 Ni1'
_cell_volume   763.13257398
_cell_formula_units_Z   1
loop_
 _symmetry_equiv_pos_site_id
 _symmetry_equiv_pos_as_xyz
  1  'x, y, z'
loop_
 _atom_site_type_symbol
 _atom_site_label
 _atom_site_symmetry_multiplicity
 _atom_site_fract_x
 _atom_site_fract_y
 _atom_site_fract_z
 _atom_site_occupancy
  Er  Er0  1  0.000000  0.000000  0.500933  1
  Er  Er1  1  0.000000  0.000000  0.999067  1
  Er  Er2  1  0.540382  0.459618  0.250000  1
  Er  Er3  1  0.540382  0.080766  0.250000  1
  Er  Er4  1  0.919234  0.459618  0.250000  1
  Er  Er5  1  0.457568  0.542432  0.750000  1
  Er  Er6  1  0.457568  0.915135  0.750000  1
  Er  Er7  1  0.084865  0.542432  0.750000  1
  Er  Er8  1  0.209413  0.790587  0.441406  1
  Er  Er9  1  0.209413  0.418827  0.441406  1
  Er  Er10  1  0.581173  0.790587  0.441406  1
  Er  Er11  1  0.788544  0.211456  0.561787  1
  Er  Er12  1  0.788544  0.577089  0.561787  1
  Er  Er13  1  0.422911  0.211456  0.561787  1
  Er  Er14  1  0.788544  0.211456  0.938213  1
  Er  Er15  1  0.788544  0.577089  0.938213  1
  Er  Er16  1  0.422911  0.211456  0.938213  1
  Er  Er17  1  0.209413  0.790587  0.058594  1
  Er  Er18  1  0.209413  0.418827  0.058594  1
  Er  Er19  1  0.581173  0.790587  0.058594  1
  Cd  Cd20  1  0.885236  0.114764  0.250000  1
  Cd  Cd21  1  0.885236  0.770473  0.250000  1
  Cd  Cd22  1  0.229527  0.114764  0.250000  1
  Cd  Cd23  1  0.114445  0.885555  0.750000  1
  Cd  Cd24  1  0.114445  0.228888  0.750000  1
  Cd  Cd25  1  0.771112  0.885555  0.750000  1
  Tc  Tc26  1  0.333333  0.666667  0.250000  1
  Ni  Ni27  1  0.666667  0.333333  0.750000  1
