# generated using pymatgen
data_Li4Nd3ThSi8
_symmetry_space_group_name_H-M   'P 1'
_cell_length_a   3.86350600
_cell_length_b   7.71385816
_cell_length_c   10.56204096
_cell_angle_alpha   90.01798865
_cell_angle_beta   90.00000000
_cell_angle_gamma   90.00000000
_symmetry_Int_Tables_number   1
_chemical_formula_structural   Li4Nd3ThSi8
_chemical_formula_sum   'Li4 Nd3 Th1 Si8'
_cell_volume   314.77560408
_cell_formula_units_Z   1
loop_
 _symmetry_equiv_pos_site_id
 _symmetry_equiv_pos_as_xyz
  1  'x, y, z'
loop_
 _atom_site_type_symbol
 _atom_site_label
 _atom_site_symmetry_multiplicity
 _atom_site_fract_x
 _atom_site_fract_y
 _atom_site_fract_z
 _atom_site_occupancy
  Li  Li0  1  0.250000  0.991829  0.390905  1
  Li  Li1  1  0.750000  0.006024  0.609461  1
  Li  Li2  1  0.250000  0.495613  0.107889  1
  Li  Li3  1  0.750000  0.504727  0.890112  1
  Nd  Nd4  1  0.250000  0.139402  0.864283  1
  Nd  Nd5  1  0.750000  0.861045  0.135825  1
  Nd  Nd6  1  0.250000  0.638559  0.635518  1
  Th  Th7  1  0.750000  0.361018  0.363752  1
  Si  Si8  1  0.750000  0.273058  0.072056  1
  Si  Si9  1  0.250000  0.728039  0.929973  1
  Si  Si10  1  0.750000  0.770361  0.430165  1
  Si  Si11  1  0.250000  0.231492  0.567525  1
  Si  Si12  1  0.750000  0.835699  0.821489  1
  Si  Si13  1  0.250000  0.164901  0.181657  1
  Si  Si14  1  0.750000  0.335527  0.679510  1
  Si  Si15  1  0.250000  0.662705  0.319880  1
