# generated using pymatgen
data_Pa8Si15Ir
_symmetry_space_group_name_H-M   'P 1'
_cell_length_a   8.13650200
_cell_length_b   8.13650249
_cell_length_c   7.85867300
_cell_angle_alpha   90.00000000
_cell_angle_beta   90.00000000
_cell_angle_gamma   119.99999799
_symmetry_Int_Tables_number   1
_chemical_formula_structural   Pa8Si15Ir
_chemical_formula_sum   'Pa8 Si15 Ir1'
_cell_volume   450.56282487
_cell_formula_units_Z   1
loop_
 _symmetry_equiv_pos_site_id
 _symmetry_equiv_pos_as_xyz
  1  'x, y, z'
loop_
 _atom_site_type_symbol
 _atom_site_label
 _atom_site_symmetry_multiplicity
 _atom_site_fract_x
 _atom_site_fract_y
 _atom_site_fract_z
 _atom_site_occupancy
  Pa  Pa0  1  0.498939  0.501061  0.748551  1
  Pa  Pa1  1  0.498905  0.501095  0.251474  1
  Pa  Pa2  1  0.002124  0.501061  0.748551  1
  Pa  Pa3  1  0.002189  0.501095  0.251474  1
  Pa  Pa4  1  0.498939  0.997876  0.748551  1
  Pa  Pa5  1  0.498905  0.997811  0.251474  1
  Pa  Pa6  1  0.000000  0.000000  0.747437  1
  Pa  Pa7  1  0.000000  0.000000  0.252534  1
  Si  Si8  1  0.836449  0.163551  0.000056  1
  Si  Si9  1  0.168264  0.831736  0.999932  1
  Si  Si10  1  0.327104  0.163551  0.000056  1
  Si  Si11  1  0.167179  0.832821  0.500027  1
  Si  Si12  1  0.663475  0.831736  0.999932  1
  Si  Si13  1  0.833199  0.166801  0.499971  1
  Si  Si14  1  0.836449  0.672896  0.000056  1
  Si  Si15  1  0.665642  0.832821  0.500027  1
  Si  Si16  1  0.168264  0.336525  0.999932  1
  Si  Si17  1  0.333602  0.166801  0.499971  1
  Si  Si18  1  0.167179  0.334358  0.500027  1
  Si  Si19  1  0.833199  0.666398  0.499971  1
  Si  Si20  1  0.333333  0.666667  0.000021  1
  Si  Si21  1  0.333333  0.666667  0.500120  1
  Si  Si22  1  0.666667  0.333333  0.499994  1
  Ir  Ir23  1  0.666667  0.333333  0.999858  1
