# generated using pymatgen
data_Tm4Al16Si2NiRh5
_symmetry_space_group_name_H-M   'P 1'
_cell_length_a   7.50352710
_cell_length_b   7.50352755
_cell_length_c   9.27719302
_cell_angle_alpha   90.11017673
_cell_angle_beta   90.11018392
_cell_angle_gamma   119.66990526
_symmetry_Int_Tables_number   1
_chemical_formula_structural   Tm4Al16Si2NiRh5
_chemical_formula_sum   'Tm4 Al16 Si2 Ni1 Rh5'
_cell_volume   453.84751876
_cell_formula_units_Z   1
loop_
 _symmetry_equiv_pos_site_id
 _symmetry_equiv_pos_as_xyz
  1  'x, y, z'
loop_
 _atom_site_type_symbol
 _atom_site_label
 _atom_site_symmetry_multiplicity
 _atom_site_fract_x
 _atom_site_fract_y
 _atom_site_fract_z
 _atom_site_occupancy
  Tm  Tm0  1  0.994266  0.674715  0.249034  1
  Tm  Tm1  1  0.005734  0.325285  0.750966  1
  Tm  Tm2  1  0.674715  0.994266  0.249034  1
  Tm  Tm3  1  0.325285  0.005734  0.750966  1
  Al  Al4  1  0.000337  0.333847  0.076753  1
  Al  Al5  1  0.999663  0.666153  0.923247  1
  Al  Al6  1  0.999796  0.664502  0.576142  1
  Al  Al7  1  0.335498  0.000204  0.423858  1
  Al  Al8  1  0.000204  0.335498  0.423858  1
  Al  Al9  1  0.664502  0.999796  0.576142  1
  Al  Al10  1  0.666153  0.999663  0.923247  1
  Al  Al11  1  0.333847  0.000337  0.076753  1
  Al  Al12  1  0.334303  0.334303  0.556065  1
  Al  Al13  1  0.665697  0.665697  0.443935  1
  Al  Al14  1  0.667698  0.667698  0.054702  1
  Al  Al15  1  0.332302  0.332302  0.945298  1
  Al  Al16  1  0.335781  0.549240  0.249772  1
  Al  Al17  1  0.664219  0.450760  0.750228  1
  Al  Al18  1  0.549240  0.335781  0.249772  1
  Al  Al19  1  0.450760  0.664219  0.750228  1
  Si  Si20  1  0.123477  0.123477  0.246947  1
  Si  Si21  1  0.876523  0.876523  0.753053  1
  Ni  Ni22  1  0.000000  0.000000  0.000000  1
  Rh  Rh23  1  0.672152  0.327848  0.000000  1
  Rh  Rh24  1  0.327848  0.672152  0.000000  1
  Rh  Rh25  1  0.328101  0.671899  0.500000  1
  Rh  Rh26  1  0.671899  0.328101  0.500000  1
  Rh  Rh27  1  0.000000  0.000000  0.500000  1
