# generated using pymatgen
data_La6Pr7Y3Mg3CdIr4
_symmetry_space_group_name_H-M   'P 1'
_cell_length_a   9.99698315
_cell_length_b   10.05066667
_cell_length_c   10.02775808
_cell_angle_alpha   59.66799335
_cell_angle_beta   60.43281090
_cell_angle_gamma   60.41377968
_symmetry_Int_Tables_number   1
_chemical_formula_structural   La6Pr7Y3Mg3CdIr4
_chemical_formula_sum   'La6 Pr7 Y3 Mg3 Cd1 Ir4'
_cell_volume   715.13280893
_cell_formula_units_Z   1
loop_
 _symmetry_equiv_pos_site_id
 _symmetry_equiv_pos_as_xyz
  1  'x, y, z'
loop_
 _atom_site_type_symbol
 _atom_site_label
 _atom_site_symmetry_multiplicity
 _atom_site_fract_x
 _atom_site_fract_y
 _atom_site_fract_z
 _atom_site_occupancy
  La  La0  1  0.341311  0.349577  0.348508  1
  La  La1  1  0.352188  0.341649  0.956250  1
  La  La2  1  0.348092  0.957927  0.343487  1
  La  La3  1  0.959431  0.346867  0.351984  1
  La  La4  1  0.816701  0.185368  0.182723  1
  La  La5  1  0.184169  0.816722  0.815162  1
  Pr  Pr6  1  0.810515  0.810862  0.188432  1
  Pr  Pr7  1  0.935946  0.562844  0.565413  1
  Pr  Pr8  1  0.560502  0.937057  0.935321  1
  Pr  Pr9  1  0.557919  0.940819  0.561763  1
  Pr  Pr10  1  0.941847  0.557090  0.938995  1
  Pr  Pr11  1  0.559551  0.561295  0.938702  1
  Pr  Pr12  1  0.938950  0.939208  0.559897  1
  Y  Y13  1  0.190605  0.811252  0.187275  1
  Y  Y14  1  0.810093  0.191791  0.808912  1
  Y  Y15  1  0.187789  0.187598  0.812340  1
  Mg  Mg16  1  0.576317  0.582041  0.264144  1
  Mg  Mg17  1  0.577656  0.263897  0.582401  1
  Mg  Mg18  1  0.264170  0.578003  0.577807  1
  Cd  Cd19  1  0.582748  0.577922  0.580078  1
  Ir  Ir20  1  0.138428  0.139479  0.141848  1
  Ir  Ir21  1  0.140908  0.138651  0.580200  1
  Ir  Ir22  1  0.146835  0.576560  0.138336  1
  Ir  Ir23  1  0.577331  0.145524  0.140020  1
