# generated using pymatgen
data_La6Y3Er(In3Br)2
_symmetry_space_group_name_H-M   'P 1'
_cell_length_a   9.62100000
_cell_length_b   9.62099965
_cell_length_c   6.83945700
_cell_angle_alpha   90.00000000
_cell_angle_beta   90.00000000
_cell_angle_gamma   120.00000122
_symmetry_Int_Tables_number   1
_chemical_formula_structural   La6Y3Er(In3Br)2
_chemical_formula_sum   'La6 Y3 Er1 In6 Br2'
_cell_volume   548.26770249
_cell_formula_units_Z   1
loop_
 _symmetry_equiv_pos_site_id
 _symmetry_equiv_pos_as_xyz
  1  'x, y, z'
loop_
 _atom_site_type_symbol
 _atom_site_label
 _atom_site_symmetry_multiplicity
 _atom_site_fract_x
 _atom_site_fract_y
 _atom_site_fract_z
 _atom_site_occupancy
  La  La0  1  0.731275  0.731192  0.249983  1
  La  La1  1  0.999917  0.731192  0.750017  1
  La  La2  1  0.731275  0.000083  0.750017  1
  La  La3  1  0.268808  0.268725  0.750017  1
  La  La4  1  0.999917  0.268725  0.249983  1
  La  La5  1  0.268808  0.000083  0.249983  1
  Y  Y6  1  0.333333  0.666667  0.500000  1
  Y  Y7  1  0.666667  0.333333  0.500000  1
  Y  Y8  1  0.333333  0.666667  0.000000  1
  Er  Er9  1  0.666667  0.333333  0.000000  1
  In  In10  1  0.394121  0.000077  0.750061  1
  In  In11  1  0.999923  0.605879  0.249939  1
  In  In12  1  0.605956  0.000077  0.249939  1
  In  In13  1  0.999923  0.394044  0.750061  1
  In  In14  1  0.394121  0.394044  0.249939  1
  In  In15  1  0.605956  0.605879  0.750061  1
  Br  Br16  1  0.000000  0.000000  0.500000  1
  Br  Br17  1  0.000000  0.000000  0.000000  1
