# generated using pymatgen
data_Pr3Th5(ZnRu)8
_symmetry_space_group_name_H-M   'P 1'
_cell_length_a   3.99200600
_cell_length_b   7.35046177
_cell_length_c   16.59662039
_cell_angle_alpha   90.00362908
_cell_angle_beta   90.00000000
_cell_angle_gamma   90.00000000
_symmetry_Int_Tables_number   1
_chemical_formula_structural   Pr3Th5(ZnRu)8
_chemical_formula_sum   'Pr3 Th5 Zn8 Ru8'
_cell_volume   486.99608333
_cell_formula_units_Z   1
loop_
 _symmetry_equiv_pos_site_id
 _symmetry_equiv_pos_as_xyz
  1  'x, y, z'
loop_
 _atom_site_type_symbol
 _atom_site_label
 _atom_site_symmetry_multiplicity
 _atom_site_fract_x
 _atom_site_fract_y
 _atom_site_fract_z
 _atom_site_occupancy
  Pr  Pr0  1  0.250000  0.547873  0.783677  1
  Pr  Pr1  1  0.750000  0.332071  0.439675  1
  Pr  Pr2  1  0.250000  0.672188  0.562079  1
  Th  Th3  1  0.750000  0.448596  0.217176  1
  Th  Th4  1  0.750000  0.949247  0.285891  1
  Th  Th5  1  0.750000  0.827948  0.061049  1
  Th  Th6  1  0.250000  0.050636  0.714116  1
  Th  Th7  1  0.250000  0.168957  0.938621  1
  Zn  Zn8  1  0.250000  0.003957  0.441416  1
  Zn  Zn9  1  0.750000  0.505866  0.938666  1
  Zn  Zn10  1  0.750000  0.001911  0.558320  1
  Zn  Zn11  1  0.250000  0.619284  0.350129  1
  Zn  Zn12  1  0.750000  0.384804  0.651672  1
  Zn  Zn13  1  0.750000  0.870540  0.851861  1
  Zn  Zn14  1  0.250000  0.490645  0.059689  1
  Zn  Zn15  1  0.250000  0.121993  0.148092  1
  Ru  Ru16  1  0.250000  0.242863  0.570234  1
  Ru  Ru17  1  0.750000  0.245132  0.057671  1
  Ru  Ru18  1  0.250000  0.241316  0.303059  1
  Ru  Ru19  1  0.750000  0.239443  0.816061  1
  Ru  Ru20  1  0.250000  0.753383  0.944555  1
  Ru  Ru21  1  0.750000  0.776976  0.691857  1
  Ru  Ru22  1  0.750000  0.766909  0.428457  1
  Ru  Ru23  1  0.250000  0.737464  0.185978  1
