# generated using pymatgen
data_PrBr29
_symmetry_space_group_name_H-M   'P 1'
_cell_length_a   11.28788698
_cell_length_b   13.55551778
_cell_length_c   16.29957300
_cell_angle_alpha   46.82660510
_cell_angle_beta   56.29537028
_cell_angle_gamma   62.84874957
_symmetry_Int_Tables_number   1
_chemical_formula_structural   PrBr29
_chemical_formula_sum   'Pr1 Br29'
_cell_volume   1501.01028284
_cell_formula_units_Z   1
loop_
 _symmetry_equiv_pos_site_id
 _symmetry_equiv_pos_as_xyz
  1  'x, y, z'
loop_
 _atom_site_type_symbol
 _atom_site_label
 _atom_site_symmetry_multiplicity
 _atom_site_fract_x
 _atom_site_fract_y
 _atom_site_fract_z
 _atom_site_occupancy
  Pr  Pr0  1  0.000000  0.000000  0.000000  1
  Br  Br1  1  0.500000  0.000000  0.000000  1
  Br  Br2  1  0.107098  0.135424  0.211764  1
  Br  Br3  1  0.664636  0.529770  0.315106  1
  Br  Br4  1  0.335364  0.470230  0.684894  1
  Br  Br5  1  0.525068  0.131894  0.244464  1
  Br  Br6  1  0.892902  0.864576  0.788236  1
  Br  Br7  1  0.322823  0.422566  0.371386  1
  Br  Br8  1  0.677177  0.577434  0.628614  1
  Br  Br9  1  0.474932  0.868106  0.755536  1
  Br  Br10  1  0.337933  0.040544  0.813583  1
  Br  Br11  1  0.631451  0.828753  0.944783  1
  Br  Br12  1  0.824377  0.260760  0.994908  1
  Br  Br13  1  0.042160  0.887256  0.213226  1
  Br  Br14  1  0.240361  0.572903  0.196589  1
  Br  Br15  1  0.957840  0.112744  0.786774  1
  Br  Br16  1  0.838308  0.141700  0.327596  1
  Br  Br17  1  0.175623  0.739240  0.005092  1
  Br  Br18  1  0.860814  0.724403  0.426237  1
  Br  Br19  1  0.368549  0.171247  0.055217  1
  Br  Br20  1  0.662067  0.959456  0.186417  1
  Br  Br21  1  0.576960  0.322595  0.486792  1
  Br  Br22  1  0.678416  0.990236  0.552946  1
  Br  Br23  1  0.810691  0.803666  0.117366  1
  Br  Br24  1  0.189309  0.196334  0.882634  1
  Br  Br25  1  0.321584  0.009764  0.447054  1
  Br  Br26  1  0.423040  0.677405  0.513208  1
  Br  Br27  1  0.139186  0.275597  0.573763  1
  Br  Br28  1  0.161692  0.858300  0.672404  1
  Br  Br29  1  0.759639  0.427097  0.803411  1
