# generated using pymatgen
data_TbPr4Sn3Br
_symmetry_space_group_name_H-M   'P 1'
_cell_length_a   9.54228100
_cell_length_b   9.54228146
_cell_length_c   6.83608200
_cell_angle_alpha   90.00000000
_cell_angle_beta   90.00000000
_cell_angle_gamma   120.00000187
_symmetry_Int_Tables_number   1
_chemical_formula_structural   TbPr4Sn3Br
_chemical_formula_sum   'Tb2 Pr8 Sn6 Br2'
_cell_volume   539.06645941
_cell_formula_units_Z   2
loop_
 _symmetry_equiv_pos_site_id
 _symmetry_equiv_pos_as_xyz
  1  'x, y, z'
loop_
 _atom_site_type_symbol
 _atom_site_label
 _atom_site_symmetry_multiplicity
 _atom_site_fract_x
 _atom_site_fract_y
 _atom_site_fract_z
 _atom_site_occupancy
  Tb  Tb0  1  0.333333  0.666667  0.000000  1
  Tb  Tb1  1  0.666667  0.333333  0.000000  1
  Pr  Pr2  1  0.267215  0.267215  0.752085  1
  Pr  Pr3  1  0.000000  0.732785  0.752085  1
  Pr  Pr4  1  0.732785  0.000000  0.752085  1
  Pr  Pr5  1  0.000000  0.267215  0.247915  1
  Pr  Pr6  1  0.333333  0.666667  0.500000  1
  Pr  Pr7  1  0.732785  0.732785  0.247915  1
  Pr  Pr8  1  0.666667  0.333333  0.500000  1
  Pr  Pr9  1  0.267215  0.000000  0.247915  1
  Sn  Sn10  1  0.611235  0.000000  0.243846  1
  Sn  Sn11  1  0.000000  0.388765  0.756154  1
  Sn  Sn12  1  0.388765  0.000000  0.756154  1
  Sn  Sn13  1  0.611235  0.611235  0.756154  1
  Sn  Sn14  1  0.000000  0.611235  0.243846  1
  Sn  Sn15  1  0.388765  0.388765  0.243846  1
  Br  Br16  1  0.000000  0.000000  0.000000  1
  Br  Br17  1  0.000000  0.000000  0.500000  1
