# generated using pymatgen
data_Sm3Th2Zr3(Ni4As3)4
_symmetry_space_group_name_H-M   'P 1'
_cell_length_a   12.86506931
_cell_length_b   12.86506841
_cell_length_c   4.00737200
_cell_angle_alpha   90.00000000
_cell_angle_beta   90.00000000
_cell_angle_gamma   120.26465365
_symmetry_Int_Tables_number   1
_chemical_formula_structural   Sm3Th2Zr3(Ni4As3)4
_chemical_formula_sum   'Sm3 Th2 Zr3 Ni16 As12'
_cell_volume   572.86217190
_cell_formula_units_Z   1
loop_
 _symmetry_equiv_pos_site_id
 _symmetry_equiv_pos_as_xyz
  1  'x, y, z'
loop_
 _atom_site_type_symbol
 _atom_site_label
 _atom_site_symmetry_multiplicity
 _atom_site_fract_x
 _atom_site_fract_y
 _atom_site_fract_z
 _atom_site_occupancy
  Sm  Sm0  1  0.189148  0.189148  0.500000  1
  Sm  Sm1  1  0.333724  0.667525  0.000000  1
  Sm  Sm2  1  0.667525  0.333724  0.000000  1
  Th  Th3  1  0.811783  0.000104  0.500000  1
  Th  Th4  1  0.000104  0.811783  0.500000  1
  Zr  Zr5  1  0.569451  0.569451  0.000000  1
  Zr  Zr6  1  0.428734  0.000466  0.000000  1
  Zr  Zr7  1  0.000466  0.428734  0.000000  1
  Ni  Ni8  1  0.725714  0.725714  0.500000  1
  Ni  Ni9  1  0.273294  0.998543  0.500000  1
  Ni  Ni10  1  0.998543  0.273294  0.500000  1
  Ni  Ni11  1  0.188391  0.379144  0.000000  1
  Ni  Ni12  1  0.623600  0.809973  0.000000  1
  Ni  Ni13  1  0.189756  0.815322  0.000000  1
  Ni  Ni14  1  0.809973  0.623600  0.000000  1
  Ni  Ni15  1  0.815322  0.189756  0.000000  1
  Ni  Ni16  1  0.379144  0.188391  0.000000  1
  Ni  Ni17  1  0.365823  0.485547  0.500000  1
  Ni  Ni18  1  0.513838  0.880349  0.500000  1
  Ni  Ni19  1  0.119489  0.633135  0.500000  1
  Ni  Ni20  1  0.880349  0.513838  0.500000  1
  Ni  Ni21  1  0.633135  0.119489  0.500000  1
  Ni  Ni22  1  0.485547  0.365823  0.500000  1
  Ni  Ni23  1  0.998883  0.998883  0.000000  1
  As  As24  1  0.818470  0.818470  0.000000  1
  As  As25  1  0.181674  0.003967  0.000000  1
  As  As26  1  0.003967  0.181674  0.000000  1
  As  As27  1  0.173025  0.475755  0.500000  1
  As  As28  1  0.523543  0.696494  0.500000  1
  As  As29  1  0.302722  0.826844  0.500000  1
  As  As30  1  0.696494  0.523543  0.500000  1
  As  As31  1  0.826844  0.302722  0.500000  1
  As  As32  1  0.475755  0.173025  0.500000  1
  As  As33  1  0.362997  0.362997  0.000000  1
  As  As34  1  0.633268  0.999506  0.000000  1
  As  As35  1  0.999506  0.633268  0.000000  1
