# generated using pymatgen
data_Sr5ReN5
_symmetry_space_group_name_H-M   'P 1'
_cell_length_a   7.74088141
_cell_length_b   7.74088258
_cell_length_c   9.18931800
_cell_angle_alpha   76.39395713
_cell_angle_beta   76.39396265
_cell_angle_gamma   96.38854734
_symmetry_Int_Tables_number   1
_chemical_formula_structural   Sr5ReN5
_chemical_formula_sum   'Sr10 Re2 N10'
_cell_volume   512.00911555
_cell_formula_units_Z   2
loop_
 _symmetry_equiv_pos_site_id
 _symmetry_equiv_pos_as_xyz
  1  'x, y, z'
loop_
 _atom_site_type_symbol
 _atom_site_label
 _atom_site_symmetry_multiplicity
 _atom_site_fract_x
 _atom_site_fract_y
 _atom_site_fract_z
 _atom_site_occupancy
  Sr  Sr0  1  0.388900  0.388900  0.393148  1
  Sr  Sr1  1  0.611100  0.611100  0.606852  1
  Sr  Sr2  1  0.668358  0.668358  0.015232  1
  Sr  Sr3  1  0.331642  0.331642  0.984768  1
  Sr  Sr4  1  0.919405  0.919405  0.211986  1
  Sr  Sr5  1  0.080595  0.080595  0.788014  1
  Sr  Sr6  1  0.562065  0.101940  0.743708  1
  Sr  Sr7  1  0.898060  0.437935  0.256292  1
  Sr  Sr8  1  0.437935  0.898060  0.256292  1
  Sr  Sr9  1  0.101940  0.562065  0.743708  1
  Re  Re10  1  0.754750  0.245250  0.000000  1
  Re  Re11  1  0.245250  0.754750  0.000000  1
  N  N12  1  0.658190  0.658190  0.308400  1
  N  N13  1  0.341810  0.341810  0.691600  1
  N  N14  1  0.713306  0.011389  0.983891  1
  N  N15  1  0.988611  0.286694  0.016109  1
  N  N16  1  0.286694  0.988611  0.016109  1
  N  N17  1  0.011389  0.713306  0.983891  1
  N  N18  1  0.405248  0.728525  0.826660  1
  N  N19  1  0.271475  0.594752  0.173339  1
  N  N20  1  0.594752  0.271475  0.173339  1
  N  N21  1  0.728525  0.405248  0.826660  1
