# generated using pymatgen
data_Ce2Nd(InIr)3
_symmetry_space_group_name_H-M   'P 1'
_cell_length_a   7.69131958
_cell_length_b   7.69132007
_cell_length_c   4.01338200
_cell_angle_alpha   90.00000000
_cell_angle_beta   90.00000000
_cell_angle_gamma   121.39825446
_symmetry_Int_Tables_number   1
_chemical_formula_structural   Ce2Nd(InIr)3
_chemical_formula_sum   'Ce2 Nd1 In3 Ir3'
_cell_volume   202.65143741
_cell_formula_units_Z   1
loop_
 _symmetry_equiv_pos_site_id
 _symmetry_equiv_pos_as_xyz
  1  'x, y, z'
loop_
 _atom_site_type_symbol
 _atom_site_label
 _atom_site_symmetry_multiplicity
 _atom_site_fract_x
 _atom_site_fract_y
 _atom_site_fract_z
 _atom_site_occupancy
  Ce  Ce0  1  0.587142  0.998418  0.000000  1
  Ce  Ce1  1  0.998418  0.587142  0.000000  1
  Nd  Nd2  1  0.409436  0.409436  0.000000  1
  In  In3  1  0.005931  0.251597  0.500000  1
  In  In4  1  0.741336  0.741336  0.500000  1
  In  In5  1  0.251597  0.005931  0.500000  1
  Ir  Ir6  1  0.990694  0.990694  0.000000  1
  Ir  Ir7  1  0.329459  0.685988  0.500000  1
  Ir  Ir8  1  0.685988  0.329459  0.500000  1
