# generated using pymatgen
data_TbNd3(HfPt)4
_symmetry_space_group_name_H-M   'P 1'
_cell_length_a   4.65364000
_cell_length_b   7.77175981
_cell_length_c   7.89656129
_cell_angle_alpha   91.00077607
_cell_angle_beta   90.00000000
_cell_angle_gamma   90.00000000
_symmetry_Int_Tables_number   1
_chemical_formula_structural   TbNd3(HfPt)4
_chemical_formula_sum   'Tb1 Nd3 Hf4 Pt4'
_cell_volume   285.55114875
_cell_formula_units_Z   1
loop_
 _symmetry_equiv_pos_site_id
 _symmetry_equiv_pos_as_xyz
  1  'x, y, z'
loop_
 _atom_site_type_symbol
 _atom_site_label
 _atom_site_symmetry_multiplicity
 _atom_site_fract_x
 _atom_site_fract_y
 _atom_site_fract_z
 _atom_site_occupancy
  Tb  Tb0  1  0.750000  0.041673  0.672177  1
  Nd  Nd1  1  0.750000  0.535000  0.832067  1
  Nd  Nd2  1  0.250000  0.966843  0.338695  1
  Nd  Nd3  1  0.250000  0.466160  0.160333  1
  Hf  Hf4  1  0.750000  0.638357  0.423967  1
  Hf  Hf5  1  0.250000  0.360702  0.573336  1
  Hf  Hf6  1  0.750000  0.137996  0.077605  1
  Hf  Hf7  1  0.250000  0.861422  0.922700  1
  Pt  Pt8  1  0.250000  0.707283  0.602217  1
  Pt  Pt9  1  0.250000  0.200722  0.890139  1
  Pt  Pt10  1  0.750000  0.794259  0.104239  1
  Pt  Pt11  1  0.750000  0.289584  0.402525  1
