# generated using pymatgen
data_Tb8HfSc11Ga16
_symmetry_space_group_name_H-M   'P 1'
_cell_length_a   7.30100717
_cell_length_b   7.54898906
_cell_length_c   14.51494533
_cell_angle_alpha   89.99069058
_cell_angle_beta   90.02258580
_cell_angle_gamma   89.98931340
_symmetry_Int_Tables_number   1
_chemical_formula_structural   Tb8HfSc11Ga16
_chemical_formula_sum   'Tb8 Hf1 Sc11 Ga16'
_cell_volume   799.99436588
_cell_formula_units_Z   1
loop_
 _symmetry_equiv_pos_site_id
 _symmetry_equiv_pos_as_xyz
  1  'x, y, z'
loop_
 _atom_site_type_symbol
 _atom_site_label
 _atom_site_symmetry_multiplicity
 _atom_site_fract_x
 _atom_site_fract_y
 _atom_site_fract_z
 _atom_site_occupancy
  Tb  Tb0  1  0.011832  0.177339  0.095782  1
  Tb  Tb1  1  0.988384  0.822614  0.904517  1
  Tb  Tb2  1  0.488288  0.677089  0.904462  1
  Tb  Tb3  1  0.988490  0.822838  0.595425  1
  Tb  Tb4  1  0.511584  0.322616  0.095730  1
  Tb  Tb5  1  0.012002  0.177271  0.404609  1
  Tb  Tb6  1  0.511968  0.322900  0.404306  1
  Tb  Tb7  1  0.488360  0.677023  0.595721  1
  Hf  Hf8  1  0.330098  0.174674  0.624449  1
  Sc  Sc9  1  0.162167  0.502405  0.749872  1
  Sc  Sc10  1  0.838135  0.497482  0.249906  1
  Sc  Sc11  1  0.337953  0.002586  0.250088  1
  Sc  Sc12  1  0.661610  0.997462  0.750008  1
  Sc  Sc13  1  0.670121  0.825792  0.375651  1
  Sc  Sc14  1  0.170185  0.673938  0.375731  1
  Sc  Sc15  1  0.669984  0.825795  0.124285  1
  Sc  Sc16  1  0.829754  0.325268  0.623687  1
  Sc  Sc17  1  0.330184  0.173948  0.875738  1
  Sc  Sc18  1  0.829738  0.325981  0.876103  1
  Sc  Sc19  1  0.169976  0.674183  0.124298  1
  Ga  Ga20  1  0.032767  0.118965  0.749213  1
  Ga  Ga21  1  0.968008  0.881213  0.250088  1
  Ga  Ga22  1  0.468139  0.618639  0.250037  1
  Ga  Ga23  1  0.531051  0.380365  0.749417  1
  Ga  Ga24  1  0.285393  0.874743  0.749267  1
  Ga  Ga25  1  0.714990  0.126204  0.250075  1
  Ga  Ga26  1  0.214922  0.373663  0.250147  1
  Ga  Ga27  1  0.784885  0.626324  0.749886  1
  Ga  Ga28  1  0.160572  0.462977  0.540610  1
  Ga  Ga29  1  0.840422  0.535206  0.459993  1
  Ga  Ga30  1  0.340076  0.965731  0.460761  1
  Ga  Ga31  1  0.840209  0.535374  0.040020  1
  Ga  Ga32  1  0.658293  0.036402  0.540475  1
  Ga  Ga33  1  0.159872  0.464875  0.959805  1
  Ga  Ga34  1  0.659385  0.035323  0.959758  1
  Ga  Ga35  1  0.340204  0.964791  0.040081  1
