# generated using pymatgen
data_PuU(SiIr)2
_symmetry_space_group_name_H-M   'P 1'
_cell_length_a   4.23613500
_cell_length_b   6.74543531
_cell_length_c   7.48160525
_cell_angle_alpha   90.03225337
_cell_angle_beta   90.00000000
_cell_angle_gamma   90.00000000
_symmetry_Int_Tables_number   1
_chemical_formula_structural   PuU(SiIr)2
_chemical_formula_sum   'Pu2 U2 Si4 Ir4'
_cell_volume   213.78365361
_cell_formula_units_Z   2
loop_
 _symmetry_equiv_pos_site_id
 _symmetry_equiv_pos_as_xyz
  1  'x, y, z'
loop_
 _atom_site_type_symbol
 _atom_site_label
 _atom_site_symmetry_multiplicity
 _atom_site_fract_x
 _atom_site_fract_y
 _atom_site_fract_z
 _atom_site_occupancy
  Pu  Pu0  1  0.250000  0.495188  0.697579  1
  Pu  Pu1  1  0.750000  0.504812  0.302421  1
  U  U2  1  0.250000  0.991314  0.797928  1
  U  U3  1  0.750000  0.008686  0.202072  1
  Si  Si4  1  0.250000  0.322899  0.084299  1
  Si  Si5  1  0.750000  0.677101  0.915701  1
  Si  Si6  1  0.250000  0.814050  0.414854  1
  Si  Si7  1  0.750000  0.185950  0.585146  1
  Ir  Ir8  1  0.750000  0.790183  0.590665  1
  Ir  Ir9  1  0.250000  0.209817  0.409335  1
  Ir  Ir10  1  0.750000  0.279606  0.913083  1
  Ir  Ir11  1  0.250000  0.720394  0.086917  1
