# generated using pymatgen
data_Tb8Tm12Sn13Bi3
_symmetry_space_group_name_H-M   'P 1'
_cell_length_a   8.07452344
_cell_length_b   8.13148532
_cell_length_c   15.34058317
_cell_angle_alpha   90.05755436
_cell_angle_beta   89.77700621
_cell_angle_gamma   90.10314947
_symmetry_Int_Tables_number   1
_chemical_formula_structural   Tb8Tm12Sn13Bi3
_chemical_formula_sum   'Tb8 Tm12 Sn13 Bi3'
_cell_volume   1007.22023549
_cell_formula_units_Z   1
loop_
 _symmetry_equiv_pos_site_id
 _symmetry_equiv_pos_as_xyz
  1  'x, y, z'
loop_
 _atom_site_type_symbol
 _atom_site_label
 _atom_site_symmetry_multiplicity
 _atom_site_fract_x
 _atom_site_fract_y
 _atom_site_fract_z
 _atom_site_occupancy
  Tb  Tb0  1  0.526787  0.325861  0.900596  1
  Tb  Tb1  1  0.035263  0.177305  0.601928  1
  Tb  Tb2  1  0.464759  0.677036  0.398331  1
  Tb  Tb3  1  0.968924  0.819975  0.099836  1
  Tb  Tb4  1  0.477659  0.673817  0.097995  1
  Tb  Tb5  1  0.980258  0.824550  0.399175  1
  Tb  Tb6  1  0.519402  0.323826  0.600792  1
  Tb  Tb7  1  0.019754  0.180968  0.900223  1
  Tm  Tm8  1  0.369105  0.834580  0.875405  1
  Tm  Tm9  1  0.873617  0.660431  0.625791  1
  Tm  Tm10  1  0.627426  0.159910  0.373829  1
  Tm  Tm11  1  0.130328  0.342307  0.124332  1
  Tm  Tm12  1  0.638223  0.162404  0.123747  1
  Tm  Tm13  1  0.136833  0.336945  0.376178  1
  Tm  Tm14  1  0.363578  0.836856  0.623649  1
  Tm  Tm15  1  0.866940  0.662355  0.876127  1
  Tm  Tm16  1  0.197249  0.502265  0.750537  1
  Tm  Tm17  1  0.696336  0.997648  0.754047  1
  Tm  Tm18  1  0.803068  0.498025  0.246952  1
  Tm  Tm19  1  0.303285  0.002299  0.252556  1
  Sn  Sn20  1  0.206926  0.536923  0.958222  1
  Sn  Sn21  1  0.709521  0.962840  0.958313  1
  Sn  Sn22  1  0.209924  0.536045  0.542156  1
  Sn  Sn23  1  0.290576  0.036371  0.458038  1
  Sn  Sn24  1  0.793951  0.462726  0.041491  1
  Sn  Sn25  1  0.564201  0.622889  0.747966  1
  Sn  Sn26  1  0.063811  0.879054  0.750767  1
  Sn  Sn27  1  0.437371  0.377416  0.248855  1
  Sn  Sn28  1  0.937208  0.122793  0.250746  1
  Sn  Sn29  1  0.333962  0.147733  0.751151  1
  Sn  Sn30  1  0.832335  0.351538  0.749002  1
  Sn  Sn31  1  0.665395  0.850263  0.250062  1
  Sn  Sn32  1  0.165585  0.648734  0.249246  1
  Bi  Bi33  1  0.290207  0.036913  0.042047  1
  Bi  Bi34  1  0.788345  0.464298  0.457882  1
  Bi  Bi35  1  0.711889  0.964100  0.542028  1
