# generated using pymatgen
data_CoNiMo3WC
_symmetry_space_group_name_H-M   'P 1'
_cell_length_a   7.99956791
_cell_length_b   8.00338092
_cell_length_c   7.99956600
_cell_angle_alpha   60.01575840
_cell_angle_beta   59.99999962
_cell_angle_gamma   60.01575376
_symmetry_Int_Tables_number   1
_chemical_formula_structural   CoNiMo3WC
_chemical_formula_sum   'Co4 Ni4 Mo12 W4 C4'
_cell_volume   362.23868738
_cell_formula_units_Z   4
loop_
 _symmetry_equiv_pos_site_id
 _symmetry_equiv_pos_as_xyz
  1  'x, y, z'
loop_
 _atom_site_type_symbol
 _atom_site_label
 _atom_site_symmetry_multiplicity
 _atom_site_fract_x
 _atom_site_fract_y
 _atom_site_fract_z
 _atom_site_occupancy
  Co  Co0  1  0.240260  0.919584  0.920078  1
  Co  Co1  1  0.920078  0.919584  0.920078  1
  Co  Co2  1  0.920078  0.919584  0.240260  1
  Co  Co3  1  0.330751  0.007748  0.330751  1
  Ni  Ni4  1  0.916564  0.250307  0.916564  1
  Ni  Ni5  1  0.332857  0.333196  0.001091  1
  Ni  Ni6  1  0.001091  0.333196  0.332857  1
  Ni  Ni7  1  0.332857  0.333196  0.332857  1
  Mo  Mo8  1  0.935053  0.935827  0.564560  1
  Mo  Mo9  1  0.689621  0.310446  0.310312  1
  Mo  Mo10  1  0.313818  0.688564  0.683799  1
  Mo  Mo11  1  0.683799  0.688564  0.313818  1
  Mo  Mo12  1  0.689621  0.310446  0.689621  1
  Mo  Mo13  1  0.313818  0.688564  0.313818  1
  Mo  Mo14  1  0.564560  0.935827  0.564560  1
  Mo  Mo15  1  0.564560  0.935827  0.935053  1
  Mo  Mo16  1  0.938371  0.564744  0.558513  1
  Mo  Mo17  1  0.938371  0.564744  0.938371  1
  Mo  Mo18  1  0.310312  0.310446  0.689621  1
  Mo  Mo19  1  0.558513  0.564744  0.938371  1
  W  W20  1  0.124230  0.627310  0.124230  1
  W  W21  1  0.127222  0.119790  0.625765  1
  W  W22  1  0.625765  0.119790  0.127222  1
  W  W23  1  0.127222  0.119790  0.127222  1
  C  C24  1  0.624044  0.127868  0.624044  1
  C  C25  1  0.625565  0.623437  0.125434  1
  C  C26  1  0.125434  0.623437  0.625565  1
  C  C27  1  0.625565  0.623437  0.625565  1
