# generated using pymatgen
data_Y4Mn(Ga2Ir)5
_symmetry_space_group_name_H-M   'P 1'
_cell_length_a   5.63760105
_cell_length_b   8.57515766
_cell_length_c   8.57515900
_cell_angle_alpha   96.51510819
_cell_angle_beta   109.16239247
_cell_angle_gamma   109.16238946
_symmetry_Int_Tables_number   1
_chemical_formula_structural   Y4Mn(Ga2Ir)5
_chemical_formula_sum   'Y4 Mn1 Ga10 Ir5'
_cell_volume   358.33740278
_cell_formula_units_Z   1
loop_
 _symmetry_equiv_pos_site_id
 _symmetry_equiv_pos_as_xyz
  1  'x, y, z'
loop_
 _atom_site_type_symbol
 _atom_site_label
 _atom_site_symmetry_multiplicity
 _atom_site_fract_x
 _atom_site_fract_y
 _atom_site_fract_z
 _atom_site_occupancy
  Y  Y0  1  0.777866  0.418014  0.129356  1
  Y  Y1  1  0.722134  0.870644  0.581986  1
  Y  Y2  1  0.229565  0.582015  0.870587  1
  Y  Y3  1  0.270435  0.129413  0.417985  1
  Mn  Mn4  1  0.250000  0.000023  0.999977  1
  Ga  Ga5  1  0.827569  0.735541  0.901200  1
  Ga  Ga6  1  0.672431  0.098800  0.264459  1
  Ga  Ga7  1  0.191323  0.264449  0.098823  1
  Ga  Ga8  1  0.308677  0.901177  0.735551  1
  Ga  Ga9  1  0.750000  0.200245  0.799755  1
  Ga  Ga10  1  0.250000  0.800592  0.199408  1
  Ga  Ga11  1  0.750000  0.499900  0.500100  1
  Ga  Ga12  1  0.250000  0.500062  0.499938  1
  Ga  Ga13  1  0.750000  0.799836  0.200164  1
  Ga  Ga14  1  0.250000  0.199256  0.800744  1
  Ir  Ir15  1  0.588840  0.436256  0.741586  1
  Ir  Ir16  1  0.911160  0.258414  0.563744  1
  Ir  Ir17  1  0.411494  0.563691  0.258433  1
  Ir  Ir18  1  0.088506  0.741567  0.436309  1
  Ir  Ir19  1  0.750000  0.000101  0.999899  1
