# generated using pymatgen
data_Rb4Na2GdYSb4
_symmetry_space_group_name_H-M   'P 1'
_cell_length_a   10.03542611
_cell_length_b   10.04018171
_cell_length_c   10.04095633
_cell_angle_alpha   135.76963185
_cell_angle_beta   64.47191186
_cell_angle_gamma   135.60135888
_symmetry_Int_Tables_number   1
_chemical_formula_structural   Rb4Na2GdYSb4
_chemical_formula_sum   'Rb4 Na2 Gd1 Y1 Sb4'
_cell_volume   486.89640760
_cell_formula_units_Z   1
loop_
 _symmetry_equiv_pos_site_id
 _symmetry_equiv_pos_as_xyz
  1  'x, y, z'
loop_
 _atom_site_type_symbol
 _atom_site_label
 _atom_site_symmetry_multiplicity
 _atom_site_fract_x
 _atom_site_fract_y
 _atom_site_fract_z
 _atom_site_occupancy
  Rb  Rb0  1  0.821824  0.227334  0.048586  1
  Rb  Rb1  1  0.678030  0.726733  0.405305  1
  Rb  Rb2  1  0.321405  0.272722  0.594890  1
  Rb  Rb3  1  0.178770  0.773176  0.951247  1
  Na  Na4  1  0.249885  0.249949  0.000006  1
  Na  Na5  1  0.750179  0.750226  0.000051  1
  Gd  Gd6  1  0.249984  0.750003  0.500071  1
  Y  Y7  1  0.750029  0.249909  0.499867  1
  Sb  Sb8  1  0.402696  0.774477  0.173853  1
  Sb  Sb9  1  0.097350  0.271109  0.371929  1
  Sb  Sb10  1  0.898811  0.724896  0.627988  1
  Sb  Sb11  1  0.601041  0.229469  0.826206  1
