# generated using pymatgen
data_Lu3Ti2ZnIr3
_symmetry_space_group_name_H-M   'P 1'
_cell_length_a   6.90099300
_cell_length_b   6.84162981
_cell_length_c   4.21027200
_cell_angle_alpha   90.00000000
_cell_angle_beta   90.00000000
_cell_angle_gamma   120.28742791
_symmetry_Int_Tables_number   1
_chemical_formula_structural   Lu3Ti2ZnIr3
_chemical_formula_sum   'Lu3 Ti2 Zn1 Ir3'
_cell_volume   171.65117874
_cell_formula_units_Z   1
loop_
 _symmetry_equiv_pos_site_id
 _symmetry_equiv_pos_as_xyz
  1  'x, y, z'
loop_
 _atom_site_type_symbol
 _atom_site_label
 _atom_site_symmetry_multiplicity
 _atom_site_fract_x
 _atom_site_fract_y
 _atom_site_fract_z
 _atom_site_occupancy
  Lu  Lu0  1  0.586811  0.598029  0.000000  1
  Lu  Lu1  1  0.431645  0.000000  0.000000  1
  Lu  Lu2  1  0.988780  0.401971  0.000000  1
  Ti  Ti3  1  0.994837  0.754404  0.500000  1
  Ti  Ti4  1  0.240432  0.245596  0.500000  1
  Zn  Zn5  1  0.758971  0.000000  0.500000  1
  Ir  Ir6  1  0.028234  0.000000  0.000000  1
  Ir  Ir7  1  0.656871  0.343452  0.500000  1
  Ir  Ir8  1  0.313418  0.656548  0.500000  1
