# generated using pymatgen
data_ThInGaRu2
_symmetry_space_group_name_H-M   'P 1'
_cell_length_a   5.44113996
_cell_length_b   5.44114138
_cell_length_c   5.44114100
_cell_angle_alpha   137.33482069
_cell_angle_beta   114.64685440
_cell_angle_gamma   81.23682890
_symmetry_Int_Tables_number   1
_chemical_formula_structural   ThInGaRu2
_chemical_formula_sum   'Th1 In1 Ga1 Ru2'
_cell_volume   96.06332452
_cell_formula_units_Z   1
loop_
 _symmetry_equiv_pos_site_id
 _symmetry_equiv_pos_as_xyz
  1  'x, y, z'
loop_
 _atom_site_type_symbol
 _atom_site_label
 _atom_site_symmetry_multiplicity
 _atom_site_fract_x
 _atom_site_fract_y
 _atom_site_fract_z
 _atom_site_occupancy
  Th  Th0  1  0.697626  0.197626  0.500000  1
  In  In1  1  0.294295  0.794295  0.500000  1
  Ga  Ga2  1  0.017844  0.017844  0.000000  1
  Ru  Ru3  1  0.258437  0.495118  0.763319  1
  Ru  Ru4  1  0.731798  0.495118  0.236681  1
