# generated using pymatgen
data_La4VGe3F28
_symmetry_space_group_name_H-M   'P 1'
_cell_length_a   5.68172550
_cell_length_b   9.15657801
_cell_length_c   12.22191583
_cell_angle_alpha   62.10520583
_cell_angle_beta   89.96995404
_cell_angle_gamma   89.95261471
_symmetry_Int_Tables_number   1
_chemical_formula_structural   La4VGe3F28
_chemical_formula_sum   'La4 V1 Ge3 F28'
_cell_volume   561.96669876
_cell_formula_units_Z   1
loop_
 _symmetry_equiv_pos_site_id
 _symmetry_equiv_pos_as_xyz
  1  'x, y, z'
loop_
 _atom_site_type_symbol
 _atom_site_label
 _atom_site_symmetry_multiplicity
 _atom_site_fract_x
 _atom_site_fract_y
 _atom_site_fract_z
 _atom_site_occupancy
  La  La0  1  0.758881  0.804917  0.267138  1
  La  La1  1  0.258921  0.189642  0.235854  1
  La  La2  1  0.240081  0.197527  0.731635  1
  La  La3  1  0.740993  0.806348  0.765485  1
  V  V4  1  0.254875  0.726058  0.043177  1
  Ge  Ge5  1  0.244352  0.725948  0.543403  1
  Ge  Ge6  1  0.744095  0.273862  0.956975  1
  Ge  Ge7  1  0.755329  0.273891  0.456484  1
  F  F8  1  0.977559  0.713440  0.463084  1
  F  F9  1  0.477289  0.285880  0.038148  1
  F  F10  1  0.022601  0.286289  0.537207  1
  F  F11  1  0.531253  0.714416  0.958465  1
  F  F12  1  0.060744  0.708470  0.924260  1
  F  F13  1  0.567101  0.291812  0.571139  1
  F  F14  1  0.933694  0.291652  0.071326  1
  F  F15  1  0.432370  0.707935  0.429160  1
  F  F16  1  0.736268  0.498628  0.864945  1
  F  F17  1  0.236620  0.500327  0.634598  1
  F  F18  1  0.263897  0.498545  0.134539  1
  F  F19  1  0.763480  0.498722  0.365948  1
  F  F20  1  0.740851  0.049684  0.044573  1
  F  F21  1  0.240724  0.950762  0.455181  1
  F  F22  1  0.259757  0.951522  0.955697  1
  F  F23  1  0.758968  0.049713  0.544429  1
  F  F24  1  0.058461  0.740383  0.661238  1
  F  F25  1  0.556953  0.258752  0.838622  1
  F  F26  1  0.942693  0.259635  0.338346  1
  F  F27  1  0.446556  0.742777  0.165607  1
  F  F28  1  0.005189  0.268908  0.869619  1
  F  F29  1  0.505096  0.730521  0.629918  1
  F  F30  1  0.984472  0.730841  0.132948  1
  F  F31  1  0.494643  0.269595  0.369483  1
  F  F32  1  0.095167  0.967870  0.228352  1
  F  F33  1  0.595132  0.032459  0.271493  1
  F  F34  1  0.909408  0.032013  0.771372  1
  F  F35  1  0.405525  0.970256  0.730153  1
