# generated using pymatgen
data_Yb8PrPt6
_symmetry_space_group_name_H-M   'P 1'
_cell_length_a   7.54763068
_cell_length_b   7.58942674
_cell_length_c   7.54200932
_cell_angle_alpha   69.90048391
_cell_angle_beta   70.15555382
_cell_angle_gamma   70.04493829
_symmetry_Int_Tables_number   1
_chemical_formula_structural   Yb8PrPt6
_chemical_formula_sum   'Yb8 Pr1 Pt6'
_cell_volume   369.07451147
_cell_formula_units_Z   1
loop_
 _symmetry_equiv_pos_site_id
 _symmetry_equiv_pos_as_xyz
  1  'x, y, z'
loop_
 _atom_site_type_symbol
 _atom_site_label
 _atom_site_symmetry_multiplicity
 _atom_site_fract_x
 _atom_site_fract_y
 _atom_site_fract_z
 _atom_site_occupancy
  Yb  Yb0  1  0.995298  0.998858  0.004408  1
  Yb  Yb1  1  0.806260  0.800756  0.805923  1
  Yb  Yb2  1  0.198244  0.197248  0.195539  1
  Yb  Yb3  1  0.329323  0.601312  0.852936  1
  Yb  Yb4  1  0.853390  0.329974  0.598356  1
  Yb  Yb5  1  0.599581  0.846360  0.327756  1
  Yb  Yb6  1  0.671538  0.402364  0.148598  1
  Yb  Yb7  1  0.147493  0.670627  0.399885  1
  Pr  Pr8  1  0.401910  0.147591  0.667283  1
  Pt  Pt9  1  0.164023  0.953246  0.586559  1
  Pt  Pt10  1  0.592635  0.168405  0.952947  1
  Pt  Pt11  1  0.952308  0.588494  0.166446  1
  Pt  Pt12  1  0.828318  0.047682  0.414342  1
  Pt  Pt13  1  0.408473  0.836058  0.045528  1
  Pt  Pt14  1  0.051205  0.411024  0.833495  1
