# generated using pymatgen
data_TbDy2Er3Ru2
_symmetry_space_group_name_H-M   'P 1'
_cell_length_a   6.29618551
_cell_length_b   7.29514300
_cell_length_c   9.13624339
_cell_angle_alpha   90.00000000
_cell_angle_beta   90.20637869
_cell_angle_gamma   90.00000000
_symmetry_Int_Tables_number   1
_chemical_formula_structural   TbDy2Er3Ru2
_chemical_formula_sum   'Tb2 Dy4 Er6 Ru4'
_cell_volume   419.63931391
_cell_formula_units_Z   2
loop_
 _symmetry_equiv_pos_site_id
 _symmetry_equiv_pos_as_xyz
  1  'x, y, z'
loop_
 _atom_site_type_symbol
 _atom_site_label
 _atom_site_symmetry_multiplicity
 _atom_site_fract_x
 _atom_site_fract_y
 _atom_site_fract_z
 _atom_site_occupancy
  Tb  Tb0  1  0.132880  0.460161  0.749910  1
  Tb  Tb1  1  0.367120  0.960161  0.750090  1
  Dy  Dy2  1  0.330804  0.677047  0.064639  1
  Dy  Dy3  1  0.169196  0.177047  0.435361  1
  Dy  Dy4  1  0.865808  0.539900  0.250221  1
  Dy  Dy5  1  0.634192  0.039900  0.249779  1
  Er  Er6  1  0.669001  0.323559  0.564775  1
  Er  Er7  1  0.830999  0.823559  0.935225  1
  Er  Er8  1  0.669172  0.323190  0.935177  1
  Er  Er9  1  0.830828  0.823190  0.564823  1
  Er  Er10  1  0.331248  0.676235  0.435576  1
  Er  Er11  1  0.168752  0.176235  0.064424  1
  Ru  Ru12  1  0.040756  0.884548  0.249952  1
  Ru  Ru13  1  0.459244  0.384548  0.250048  1
  Ru  Ru14  1  0.957509  0.115360  0.750980  1
  Ru  Ru15  1  0.542491  0.615360  0.749020  1
