# generated using pymatgen
data_TaBe11Ni
_symmetry_space_group_name_H-M   'P 1'
_cell_length_a   5.63518214
_cell_length_b   5.63518154
_cell_length_c   5.63518140
_cell_angle_alpha   97.85557935
_cell_angle_beta   97.61499519
_cell_angle_gamma   136.95414511
_symmetry_Int_Tables_number   1
_chemical_formula_structural   TaBe11Ni
_chemical_formula_sum   'Ta1 Be11 Ni1'
_cell_volume   113.62860428
_cell_formula_units_Z   1
loop_
 _symmetry_equiv_pos_site_id
 _symmetry_equiv_pos_as_xyz
  1  'x, y, z'
loop_
 _atom_site_type_symbol
 _atom_site_label
 _atom_site_symmetry_multiplicity
 _atom_site_fract_x
 _atom_site_fract_y
 _atom_site_fract_z
 _atom_site_occupancy
  Ta  Ta0  1  0.004127  0.000000  0.004127  1
  Be  Be1  1  0.998839  0.499911  0.002375  1
  Be  Be2  1  0.003325  0.645788  0.649112  1
  Be  Be3  1  0.716308  0.500000  0.216308  1
  Be  Be4  1  0.348432  0.000000  0.348432  1
  Be  Be5  1  0.998839  0.996464  0.498928  1
  Be  Be6  1  0.003325  0.354212  0.357537  1
  Be  Be7  1  0.501794  0.281135  0.782929  1
  Be  Be8  1  0.279814  0.500000  0.779814  1
  Be  Be9  1  0.502464  0.500089  0.498928  1
  Be  Be10  1  0.501794  0.718865  0.220660  1
  Be  Be11  1  0.502464  0.003536  0.002375  1
  Ni  Ni12  1  0.638475  0.000000  0.638475  1
