# generated using pymatgen
data_CeU3(B6W)2
_symmetry_space_group_name_H-M   'P 1'
_cell_length_a   3.71458200
_cell_length_b   9.30996013
_cell_length_c   11.41402215
_cell_angle_alpha   90.01866792
_cell_angle_beta   90.00000000
_cell_angle_gamma   90.00000000
_symmetry_Int_Tables_number   1
_chemical_formula_structural   CeU3(B6W)2
_chemical_formula_sum   'Ce2 U6 B24 W4'
_cell_volume   394.72665902
_cell_formula_units_Z   2
loop_
 _symmetry_equiv_pos_site_id
 _symmetry_equiv_pos_as_xyz
  1  'x, y, z'
loop_
 _atom_site_type_symbol
 _atom_site_label
 _atom_site_symmetry_multiplicity
 _atom_site_fract_x
 _atom_site_fract_y
 _atom_site_fract_z
 _atom_site_occupancy
  Ce  Ce0  1  0.000000  0.334700  0.407837  1
  Ce  Ce1  1  0.000000  0.665300  0.592163  1
  U  U2  1  0.000000  0.834443  0.092433  1
  U  U3  1  0.000000  0.165557  0.907567  1
  U  U4  1  0.000000  0.956108  0.394812  1
  U  U5  1  0.000000  0.043892  0.605188  1
  U  U6  1  0.000000  0.456487  0.104883  1
  U  U7  1  0.000000  0.543513  0.895117  1
  B  B8  1  0.500000  0.552645  0.430669  1
  B  B9  1  0.500000  0.447355  0.569331  1
  B  B10  1  0.500000  0.049665  0.066678  1
  B  B11  1  0.500000  0.950335  0.933322  1
  B  B12  1  0.500000  0.745227  0.422619  1
  B  B13  1  0.500000  0.254773  0.577381  1
  B  B14  1  0.500000  0.243250  0.075445  1
  B  B15  1  0.500000  0.756750  0.924555  1
  B  B16  1  0.500000  0.804196  0.272015  1
  B  B17  1  0.500000  0.195804  0.727985  1
  B  B18  1  0.500000  0.302556  0.224744  1
  B  B19  1  0.500000  0.697444  0.775256  1
  B  B20  1  0.500000  0.645198  0.186653  1
  B  B21  1  0.500000  0.354802  0.813347  1
  B  B22  1  0.500000  0.142624  0.311414  1
  B  B23  1  0.500000  0.857376  0.688586  1
  B  B24  1  0.500000  0.985819  0.217780  1
  B  B25  1  0.500000  0.014181  0.782220  1
  B  B26  1  0.500000  0.488091  0.279390  1
  B  B27  1  0.500000  0.511909  0.720610  1
  B  B28  1  0.500000  0.642215  0.038966  1
  B  B29  1  0.500000  0.357785  0.961034  1
  B  B30  1  0.500000  0.137137  0.461512  1
  B  B31  1  0.500000  0.862863  0.538488  1
  W  W32  1  0.000000  0.648584  0.316275  1
  W  W33  1  0.000000  0.351416  0.683725  1
  W  W34  1  0.000000  0.143066  0.177391  1
  W  W35  1  0.000000  0.856934  0.822609  1
