# generated using pymatgen
data_La3CrOsC6
_symmetry_space_group_name_H-M   'P 1'
_cell_length_a   8.49102100
_cell_length_b   8.49102085
_cell_length_c   5.29732300
_cell_angle_alpha   90.00000000
_cell_angle_beta   90.00000000
_cell_angle_gamma   119.99999671
_symmetry_Int_Tables_number   1
_chemical_formula_structural   La3CrOsC6
_chemical_formula_sum   'La6 Cr2 Os2 C12'
_cell_volume   330.75538425
_cell_formula_units_Z   2
loop_
 _symmetry_equiv_pos_site_id
 _symmetry_equiv_pos_as_xyz
  1  'x, y, z'
loop_
 _atom_site_type_symbol
 _atom_site_label
 _atom_site_symmetry_multiplicity
 _atom_site_fract_x
 _atom_site_fract_y
 _atom_site_fract_z
 _atom_site_occupancy
  La  La0  1  0.615289  0.694054  0.750000  1
  La  La1  1  0.921235  0.615289  0.250000  1
  La  La2  1  0.694054  0.078765  0.250000  1
  La  La3  1  0.305946  0.921235  0.750000  1
  La  La4  1  0.078765  0.384711  0.750000  1
  La  La5  1  0.384711  0.305946  0.250000  1
  Cr  Cr6  1  0.000000  0.000000  0.500000  1
  Cr  Cr7  1  0.000000  0.000000  0.000000  1
  Os  Os8  1  0.666667  0.333333  0.750000  1
  Os  Os9  1  0.333333  0.666667  0.250000  1
  C  C10  1  0.950481  0.773829  0.750000  1
  C  C11  1  0.176651  0.950481  0.250000  1
  C  C12  1  0.773829  0.823349  0.250000  1
  C  C13  1  0.226171  0.176651  0.750000  1
  C  C14  1  0.823349  0.049519  0.750000  1
  C  C15  1  0.049519  0.226171  0.250000  1
  C  C16  1  0.860666  0.588040  0.750000  1
  C  C17  1  0.272625  0.860666  0.250000  1
  C  C18  1  0.588040  0.727375  0.250000  1
  C  C19  1  0.411960  0.272625  0.750000  1
  C  C20  1  0.139334  0.411960  0.250000  1
  C  C21  1  0.727375  0.139334  0.750000  1
