# generated using pymatgen
data_Tm10Ag3Os
_symmetry_space_group_name_H-M   'P 1'
_cell_length_a   9.34380600
_cell_length_b   9.34380605
_cell_length_c   9.59062700
_cell_angle_alpha   90.00000000
_cell_angle_beta   90.00000000
_cell_angle_gamma   119.99999274
_symmetry_Int_Tables_number   1
_chemical_formula_structural   Tm10Ag3Os
_chemical_formula_sum   'Tm20 Ag6 Os2'
_cell_volume   725.14572706
_cell_formula_units_Z   2
loop_
 _symmetry_equiv_pos_site_id
 _symmetry_equiv_pos_as_xyz
  1  'x, y, z'
loop_
 _atom_site_type_symbol
 _atom_site_label
 _atom_site_symmetry_multiplicity
 _atom_site_fract_x
 _atom_site_fract_y
 _atom_site_fract_z
 _atom_site_occupancy
  Tm  Tm0  1  0.000000  0.000000  0.500000  1
  Tm  Tm1  1  0.000000  0.000000  0.000000  1
  Tm  Tm2  1  0.209002  0.790998  0.443618  1
  Tm  Tm3  1  0.209002  0.418003  0.443618  1
  Tm  Tm4  1  0.581997  0.790998  0.443618  1
  Tm  Tm5  1  0.790998  0.209002  0.556382  1
  Tm  Tm6  1  0.790998  0.581997  0.556382  1
  Tm  Tm7  1  0.418003  0.209002  0.556382  1
  Tm  Tm8  1  0.790998  0.209002  0.943618  1
  Tm  Tm9  1  0.790998  0.581997  0.943618  1
  Tm  Tm10  1  0.418003  0.209002  0.943618  1
  Tm  Tm11  1  0.209002  0.790998  0.056382  1
  Tm  Tm12  1  0.209002  0.418003  0.056382  1
  Tm  Tm13  1  0.581997  0.790998  0.056382  1
  Tm  Tm14  1  0.539002  0.460998  0.250000  1
  Tm  Tm15  1  0.539002  0.078004  0.250000  1
  Tm  Tm16  1  0.921996  0.460998  0.250000  1
  Tm  Tm17  1  0.460998  0.539002  0.750000  1
  Tm  Tm18  1  0.460998  0.921996  0.750000  1
  Tm  Tm19  1  0.078004  0.539002  0.750000  1
  Ag  Ag20  1  0.883612  0.116388  0.250000  1
  Ag  Ag21  1  0.883612  0.767227  0.250000  1
  Ag  Ag22  1  0.232773  0.116388  0.250000  1
  Ag  Ag23  1  0.116388  0.883612  0.750000  1
  Ag  Ag24  1  0.116388  0.232773  0.750000  1
  Ag  Ag25  1  0.767227  0.883612  0.750000  1
  Os  Os26  1  0.333333  0.666667  0.250000  1
  Os  Os27  1  0.666667  0.333333  0.750000  1
