# generated using pymatgen
data_Dy4Ga4IrRu3
_symmetry_space_group_name_H-M   'P 1'
_cell_length_a   7.13222097
_cell_length_b   4.49145700
_cell_length_c   7.21694299
_cell_angle_alpha   90.00000000
_cell_angle_beta   90.32785718
_cell_angle_gamma   90.00000000
_symmetry_Int_Tables_number   1
_chemical_formula_structural   Dy4Ga4IrRu3
_chemical_formula_sum   'Dy4 Ga4 Ir1 Ru3'
_cell_volume   231.18422721
_cell_formula_units_Z   1
loop_
 _symmetry_equiv_pos_site_id
 _symmetry_equiv_pos_as_xyz
  1  'x, y, z'
loop_
 _atom_site_type_symbol
 _atom_site_label
 _atom_site_symmetry_multiplicity
 _atom_site_fract_x
 _atom_site_fract_y
 _atom_site_fract_z
 _atom_site_occupancy
  Dy  Dy0  1  0.016428  0.250000  0.197000  1
  Dy  Dy1  1  0.520836  0.250000  0.304616  1
  Dy  Dy2  1  0.480674  0.750000  0.694851  1
  Dy  Dy3  1  0.986898  0.750000  0.805637  1
  Ga  Ga4  1  0.310198  0.750000  0.110645  1
  Ga  Ga5  1  0.802082  0.750000  0.398338  1
  Ga  Ga6  1  0.196705  0.250000  0.597918  1
  Ga  Ga7  1  0.693604  0.250000  0.893725  1
  Ir  Ir8  1  0.328439  0.250000  0.932244  1
  Ru  Ru9  1  0.667526  0.750000  0.064578  1
  Ru  Ru10  1  0.160377  0.750000  0.434189  1
  Ru  Ru11  1  0.836228  0.250000  0.566265  1
