# generated using pymatgen
data_YMnAlO5
_symmetry_space_group_name_H-M   'P 1'
_cell_length_a   5.66934800
_cell_length_b   7.28170000
_cell_length_c   8.44670600
_cell_angle_alpha   89.99985240
_cell_angle_beta   90.00002021
_cell_angle_gamma   90.00001574
_symmetry_Int_Tables_number   1
_chemical_formula_structural   YMnAlO5
_chemical_formula_sum   'Y4 Mn4 Al4 O20'
_cell_volume   348.70106723
_cell_formula_units_Z   4
loop_
 _symmetry_equiv_pos_site_id
 _symmetry_equiv_pos_as_xyz
  1  'x, y, z'
loop_
 _atom_site_type_symbol
 _atom_site_label
 _atom_site_symmetry_multiplicity
 _atom_site_fract_x
 _atom_site_fract_y
 _atom_site_fract_z
 _atom_site_occupancy
  Y  Y0  1  0.000000  0.633191  0.331215  1
  Y  Y1  1  0.000000  0.366809  0.668785  1
  Y  Y2  1  0.000000  0.133189  0.168784  1
  Y  Y3  1  0.000000  0.866811  0.831216  1
  Mn  Mn4  1  0.254263  0.500001  0.000000  1
  Mn  Mn5  1  0.745717  0.999999  0.499999  1
  Mn  Mn6  1  0.745738  0.499999  0.000000  1
  Mn  Mn7  1  0.254285  0.000001  0.500000  1
  Al  Al8  1  0.499999  0.892573  0.141892  1
  Al  Al9  1  0.500001  0.107427  0.858109  1
  Al  Al10  1  0.500000  0.392573  0.358108  1
  Al  Al11  1  0.500000  0.607428  0.641892  1
  O  O12  1  0.280511  0.500000  0.500000  1
  O  O13  1  0.719487  0.000000  0.000000  1
  O  O14  1  0.719489  0.500000  0.500000  1
  O  O15  1  0.280511  0.000000  0.000000  1
  O  O16  1  0.000000  0.662656  0.056307  1
  O  O17  1  0.000000  0.337344  0.943692  1
  O  O18  1  0.000000  0.162657  0.443691  1
  O  O19  1  0.000000  0.837343  0.556310  1
  O  O20  1  0.500000  0.657879  0.071229  1
  O  O21  1  0.500000  0.342122  0.928770  1
  O  O22  1  0.500000  0.157878  0.428773  1
  O  O23  1  0.500000  0.842122  0.571227  1
  O  O24  1  0.251133  0.895040  0.289645  1
  O  O25  1  0.251132  0.104961  0.710355  1
  O  O26  1  0.748870  0.395037  0.210357  1
  O  O27  1  0.748871  0.604962  0.789644  1
  O  O28  1  0.748867  0.104960  0.710355  1
  O  O29  1  0.748867  0.895039  0.289645  1
  O  O30  1  0.251130  0.604962  0.789644  1
  O  O31  1  0.251130  0.395038  0.210356  1
