# generated using pymatgen
data_Yb(Ga2Au)2
_symmetry_space_group_name_H-M   'P 1'
_cell_length_a   4.46917500
_cell_length_b   7.04546718
_cell_length_c   9.02822937
_cell_angle_alpha   71.40943084
_cell_angle_beta   90.00000000
_cell_angle_gamma   90.00000000
_symmetry_Int_Tables_number   1
_chemical_formula_structural   Yb(Ga2Au)2
_chemical_formula_sum   'Yb2 Ga8 Au4'
_cell_volume   269.44245134
_cell_formula_units_Z   2
loop_
 _symmetry_equiv_pos_site_id
 _symmetry_equiv_pos_as_xyz
  1  'x, y, z'
loop_
 _atom_site_type_symbol
 _atom_site_label
 _atom_site_symmetry_multiplicity
 _atom_site_fract_x
 _atom_site_fract_y
 _atom_site_fract_z
 _atom_site_occupancy
  Yb  Yb0  1  0.750000  0.848892  0.784137  1
  Yb  Yb1  1  0.250000  0.151108  0.215863  1
  Ga  Ga2  1  0.250000  0.107580  0.871675  1
  Ga  Ga3  1  0.750000  0.892420  0.128325  1
  Ga  Ga4  1  0.250000  0.111045  0.579253  1
  Ga  Ga5  1  0.750000  0.888955  0.420747  1
  Ga  Ga6  1  0.250000  0.514925  0.371660  1
  Ga  Ga7  1  0.750000  0.485075  0.628340  1
  Ga  Ga8  1  0.250000  0.507395  0.864446  1
  Ga  Ga9  1  0.750000  0.492605  0.135554  1
  Au  Au10  1  0.250000  0.725252  0.063146  1
  Au  Au11  1  0.750000  0.274748  0.936854  1
  Au  Au12  1  0.250000  0.735303  0.562908  1
  Au  Au13  1  0.750000  0.264697  0.437092  1
