# generated using pymatgen
data_Tb3Th(Tc3Ge4)2
_symmetry_space_group_name_H-M   'P 1'
_cell_length_a   8.32381089
_cell_length_b   5.76010247
_cell_length_c   7.04490743
_cell_angle_alpha   76.36428944
_cell_angle_beta   90.17742468
_cell_angle_gamma   90.19437085
_symmetry_Int_Tables_number   1
_chemical_formula_structural   Tb3Th(Tc3Ge4)2
_chemical_formula_sum   'Tb3 Th1 Tc6 Ge8'
_cell_volume   328.25190781
_cell_formula_units_Z   1
loop_
 _symmetry_equiv_pos_site_id
 _symmetry_equiv_pos_as_xyz
  1  'x, y, z'
loop_
 _atom_site_type_symbol
 _atom_site_label
 _atom_site_symmetry_multiplicity
 _atom_site_fract_x
 _atom_site_fract_y
 _atom_site_fract_z
 _atom_site_occupancy
  Tb  Tb0  1  0.057481  0.423472  0.754628  1
  Tb  Tb1  1  0.439706  0.925667  0.753383  1
  Tb  Tb2  1  0.940386  0.577048  0.245202  1
  Th  Th3  1  0.555284  0.077556  0.247393  1
  Tc  Tc4  1  0.212114  0.108953  0.116515  1
  Tc  Tc5  1  0.705946  0.381132  0.891470  1
  Tc  Tc6  1  0.795576  0.890330  0.884114  1
  Tc  Tc7  1  0.294771  0.613149  0.111125  1
  Tc  Tc8  1  0.999904  0.999157  0.498778  1
  Tc  Tc9  1  0.500681  0.500147  0.500048  1
  Ge  Ge10  1  0.908523  0.120471  0.125682  1
  Ge  Ge11  1  0.400622  0.385047  0.867481  1
  Ge  Ge12  1  0.097053  0.877523  0.875301  1
  Ge  Ge13  1  0.597561  0.624444  0.119969  1
  Ge  Ge14  1  0.750539  0.224416  0.583400  1
  Ge  Ge15  1  0.242239  0.285553  0.418213  1
  Ge  Ge16  1  0.247412  0.769608  0.421312  1
  Ge  Ge17  1  0.754202  0.716328  0.585986  1
