# generated using pymatgen
data_DyPa(ZnRh)2
_symmetry_space_group_name_H-M   'P 1'
_cell_length_a   3.82570400
_cell_length_b   7.14463936
_cell_length_c   8.41138954
_cell_angle_alpha   91.77672140
_cell_angle_beta   90.00000000
_cell_angle_gamma   90.00000000
_symmetry_Int_Tables_number   1
_chemical_formula_structural   DyPa(ZnRh)2
_chemical_formula_sum   'Dy2 Pa2 Zn4 Rh4'
_cell_volume   229.80029477
_cell_formula_units_Z   2
loop_
 _symmetry_equiv_pos_site_id
 _symmetry_equiv_pos_as_xyz
  1  'x, y, z'
loop_
 _atom_site_type_symbol
 _atom_site_label
 _atom_site_symmetry_multiplicity
 _atom_site_fract_x
 _atom_site_fract_y
 _atom_site_fract_z
 _atom_site_occupancy
  Dy  Dy0  1  0.250000  0.057695  0.314472  1
  Dy  Dy1  1  0.750000  0.942295  0.685523  1
  Pa  Pa2  1  0.250000  0.552383  0.189601  1
  Pa  Pa3  1  0.750000  0.447635  0.810405  1
  Zn  Zn4  1  0.250000  0.116206  0.938640  1
  Zn  Zn5  1  0.750000  0.883786  0.061359  1
  Zn  Zn6  1  0.250000  0.630393  0.558450  1
  Zn  Zn7  1  0.750000  0.369590  0.441549  1
  Rh  Rh8  1  0.750000  0.746651  0.355506  1
  Rh  Rh9  1  0.250000  0.253403  0.644539  1
  Rh  Rh10  1  0.750000  0.283597  0.121550  1
  Rh  Rh11  1  0.250000  0.716366  0.878406  1
