# generated using pymatgen
data_Ba2H7Ir
_symmetry_space_group_name_H-M   'P 1'
_cell_length_a   8.63764749
_cell_length_b   8.87071899
_cell_length_c   8.87071796
_cell_angle_alpha   109.25463097
_cell_angle_beta   109.48289044
_cell_angle_gamma   70.51714222
_symmetry_Int_Tables_number   1
_chemical_formula_structural   Ba2H7Ir
_chemical_formula_sum   'Ba8 H28 Ir4'
_cell_volume   585.53987881
_cell_formula_units_Z   4
loop_
 _symmetry_equiv_pos_site_id
 _symmetry_equiv_pos_as_xyz
  1  'x, y, z'
loop_
 _atom_site_type_symbol
 _atom_site_label
 _atom_site_symmetry_multiplicity
 _atom_site_fract_x
 _atom_site_fract_y
 _atom_site_fract_z
 _atom_site_occupancy
  Ba  Ba0  1  0.975832  0.761742  0.069452  1
  Ba  Ba1  1  0.524169  0.569451  0.261741  1
  Ba  Ba2  1  0.523595  0.070976  0.282928  1
  Ba  Ba3  1  0.023596  0.217073  0.429024  1
  Ba  Ba4  1  0.976404  0.782927  0.570976  1
  Ba  Ba5  1  0.476404  0.929025  0.717072  1
  Ba  Ba6  1  0.475831  0.430548  0.738260  1
  Ba  Ba7  1  0.024168  0.238259  0.930548  1
  H  H8  1  0.675078  0.999388  0.020359  1
  H  H9  1  0.723231  0.367333  0.040128  1
  H  H10  1  0.514074  0.752100  0.040806  1
  H  H11  1  0.908746  0.109068  0.095618  1
  H  H12  1  0.223231  0.459872  0.132667  1
  H  H13  1  0.279638  0.884094  0.170594  1
  H  H14  1  0.686248  0.247743  0.222448  1
  H  H15  1  0.186247  0.277552  0.252257  1
  H  H16  1  0.985927  0.540805  0.252100  1
  H  H17  1  0.874099  0.953553  0.346176  1
  H  H18  1  0.220362  0.670594  0.384094  1
  H  H19  1  0.408745  0.404382  0.390933  1
  H  H20  1  0.625900  0.846175  0.453553  1
  H  H21  1  0.824922  0.520359  0.499388  1
  H  H22  1  0.175078  0.479642  0.500613  1
  H  H23  1  0.374100  0.153825  0.546447  1
  H  H24  1  0.591255  0.595618  0.609068  1
  H  H25  1  0.779637  0.329406  0.615906  1
  H  H26  1  0.125901  0.046447  0.653824  1
  H  H27  1  0.014073  0.459195  0.747900  1
  H  H28  1  0.813753  0.722448  0.747743  1
  H  H29  1  0.313752  0.752257  0.777552  1
  H  H30  1  0.720362  0.115906  0.829406  1
  H  H31  1  0.776770  0.540128  0.867334  1
  H  H32  1  0.091255  0.890933  0.904381  1
  H  H33  1  0.485927  0.247900  0.959195  1
  H  H34  1  0.276769  0.632667  0.959873  1
  H  H35  1  0.324923  0.000612  0.979641  1
  Ir  Ir36  1  0.698883  0.182294  0.026109  1
  Ir  Ir37  1  0.198883  0.473891  0.317706  1
  Ir  Ir38  1  0.801116  0.526109  0.682295  1
  Ir  Ir39  1  0.301116  0.817706  0.973891  1
