# generated using pymatgen
data_TbPr8LuPb8
_symmetry_space_group_name_H-M   'P 1'
_cell_length_a   8.40452100
_cell_length_b   8.52220400
_cell_length_c   16.26206000
_cell_angle_alpha   90.00000000
_cell_angle_beta   90.00000000
_cell_angle_gamma   90.00000000
_symmetry_Int_Tables_number   1
_chemical_formula_structural   TbPr8LuPb8
_chemical_formula_sum   'Tb2 Pr16 Lu2 Pb16'
_cell_volume   1164.77073838
_cell_formula_units_Z   2
loop_
 _symmetry_equiv_pos_site_id
 _symmetry_equiv_pos_as_xyz
  1  'x, y, z'
loop_
 _atom_site_type_symbol
 _atom_site_label
 _atom_site_symmetry_multiplicity
 _atom_site_fract_x
 _atom_site_fract_y
 _atom_site_fract_z
 _atom_site_occupancy
  Tb  Tb0  1  0.293023  0.497143  0.250000  1
  Tb  Tb1  1  0.206977  0.997143  0.750000  1
  Pr  Pr2  1  0.468799  0.822731  0.400003  1
  Pr  Pr3  1  0.031201  0.322731  0.900003  1
  Pr  Pr4  1  0.031201  0.322731  0.599997  1
  Pr  Pr5  1  0.875473  0.840638  0.880321  1
  Pr  Pr6  1  0.468799  0.822731  0.099997  1
  Pr  Pr7  1  0.376852  0.658286  0.879934  1
  Pr  Pr8  1  0.624527  0.340638  0.119679  1
  Pr  Pr9  1  0.624527  0.340638  0.380321  1
  Pr  Pr10  1  0.531733  0.178345  0.599623  1
  Pr  Pr11  1  0.376852  0.658286  0.620066  1
  Pr  Pr12  1  0.531733  0.178345  0.900377  1
  Pr  Pr13  1  0.968267  0.678345  0.400377  1
  Pr  Pr14  1  0.968267  0.678345  0.099623  1
  Pr  Pr15  1  0.123148  0.158286  0.120066  1
  Pr  Pr16  1  0.875473  0.840638  0.619679  1
  Pr  Pr17  1  0.123148  0.158286  0.379934  1
  Lu  Lu18  1  0.791742  0.003742  0.250000  1
  Lu  Lu19  1  0.708258  0.503742  0.750000  1
  Pb  Pb20  1  0.841313  0.154509  0.750000  1
  Pb  Pb21  1  0.717140  0.531175  0.545897  1
  Pb  Pb22  1  0.929034  0.375815  0.250000  1
  Pb  Pb23  1  0.217063  0.968001  0.954775  1
  Pb  Pb24  1  0.282937  0.468001  0.045225  1
  Pb  Pb25  1  0.570966  0.875815  0.750000  1
  Pb  Pb26  1  0.342219  0.347107  0.750000  1
  Pb  Pb27  1  0.069125  0.623334  0.750000  1
  Pb  Pb28  1  0.782860  0.031175  0.454103  1
  Pb  Pb29  1  0.282937  0.468001  0.454775  1
  Pb  Pb30  1  0.157781  0.847107  0.250000  1
  Pb  Pb31  1  0.217063  0.968001  0.545225  1
  Pb  Pb32  1  0.782860  0.031175  0.045897  1
  Pb  Pb33  1  0.658687  0.654509  0.250000  1
  Pb  Pb34  1  0.717140  0.531175  0.954103  1
  Pb  Pb35  1  0.430875  0.123334  0.250000  1
