# generated using pymatgen
data_Tb4Er6SnPb7
_symmetry_space_group_name_H-M   'P 1'
_cell_length_a   8.16793600
_cell_length_b   8.24844200
_cell_length_c   15.58841200
_cell_angle_alpha   90.00000000
_cell_angle_beta   90.00000000
_cell_angle_gamma   90.00000000
_symmetry_Int_Tables_number   1
_chemical_formula_structural   Tb4Er6SnPb7
_chemical_formula_sum   'Tb8 Er12 Sn2 Pb14'
_cell_volume   1050.23412776
_cell_formula_units_Z   2
loop_
 _symmetry_equiv_pos_site_id
 _symmetry_equiv_pos_as_xyz
  1  'x, y, z'
loop_
 _atom_site_type_symbol
 _atom_site_label
 _atom_site_symmetry_multiplicity
 _atom_site_fract_x
 _atom_site_fract_y
 _atom_site_fract_z
 _atom_site_occupancy
  Tb  Tb0  1  0.534495  0.324360  0.899474  1
  Tb  Tb1  1  0.034495  0.175640  0.600526  1
  Tb  Tb2  1  0.465486  0.676954  0.400286  1
  Tb  Tb3  1  0.965486  0.823046  0.099714  1
  Tb  Tb4  1  0.465486  0.676954  0.099714  1
  Tb  Tb5  1  0.965486  0.823046  0.400286  1
  Tb  Tb6  1  0.534495  0.324360  0.600526  1
  Tb  Tb7  1  0.034495  0.175640  0.899474  1
  Er  Er8  1  0.376309  0.839512  0.877454  1
  Er  Er9  1  0.876309  0.660488  0.622546  1
  Er  Er10  1  0.623665  0.159036  0.379160  1
  Er  Er11  1  0.123665  0.340964  0.120840  1
  Er  Er12  1  0.623665  0.159036  0.120840  1
  Er  Er13  1  0.123665  0.340964  0.379160  1
  Er  Er14  1  0.376309  0.839512  0.622546  1
  Er  Er15  1  0.876309  0.660488  0.877454  1
  Er  Er16  1  0.209290  0.507547  0.750000  1
  Er  Er17  1  0.709290  0.992453  0.750000  1
  Er  Er18  1  0.792070  0.495308  0.250000  1
  Er  Er19  1  0.292070  0.004692  0.250000  1
  Sn  Sn20  1  0.572239  0.626803  0.750000  1
  Sn  Sn21  1  0.072239  0.873197  0.750000  1
  Pb  Pb22  1  0.283048  0.033995  0.042472  1
  Pb  Pb23  1  0.783048  0.466005  0.457528  1
  Pb  Pb24  1  0.716865  0.965731  0.542670  1
  Pb  Pb25  1  0.216865  0.534269  0.957330  1
  Pb  Pb26  1  0.716865  0.965731  0.957330  1
  Pb  Pb27  1  0.216865  0.534269  0.542670  1
  Pb  Pb28  1  0.283048  0.033995  0.457528  1
  Pb  Pb29  1  0.783048  0.466005  0.042472  1
  Pb  Pb30  1  0.428835  0.372900  0.250000  1
  Pb  Pb31  1  0.928835  0.127100  0.250000  1
  Pb  Pb32  1  0.343637  0.150943  0.750000  1
  Pb  Pb33  1  0.843637  0.349057  0.750000  1
  Pb  Pb34  1  0.654194  0.847579  0.250000  1
  Pb  Pb35  1  0.154194  0.652421  0.250000  1
