# generated using pymatgen
data_Lu10Tl5NiIrPb
_symmetry_space_group_name_H-M   'P 1'
_cell_length_a   8.99898193
_cell_length_b   8.99898248
_cell_length_c   6.57411243
_cell_angle_alpha   90.02077647
_cell_angle_beta   90.02077457
_cell_angle_gamma   119.74785309
_symmetry_Int_Tables_number   1
_chemical_formula_structural   Lu10Tl5NiIrPb
_chemical_formula_sum   'Lu10 Tl5 Ni1 Ir1 Pb1'
_cell_volume   462.22378413
_cell_formula_units_Z   1
loop_
 _symmetry_equiv_pos_site_id
 _symmetry_equiv_pos_as_xyz
  1  'x, y, z'
loop_
 _atom_site_type_symbol
 _atom_site_label
 _atom_site_symmetry_multiplicity
 _atom_site_fract_x
 _atom_site_fract_y
 _atom_site_fract_z
 _atom_site_occupancy
  Lu  Lu0  1  0.240642  0.999936  0.252509  1
  Lu  Lu1  1  0.761148  0.000492  0.747959  1
  Lu  Lu2  1  0.999936  0.240642  0.252509  1
  Lu  Lu3  1  0.332250  0.666440  0.499122  1
  Lu  Lu4  1  0.666440  0.332250  0.499122  1
  Lu  Lu5  1  0.666548  0.332201  0.001016  1
  Lu  Lu6  1  0.000492  0.761148  0.747959  1
  Lu  Lu7  1  0.239707  0.239707  0.747137  1
  Lu  Lu8  1  0.332201  0.666548  0.001016  1
  Lu  Lu9  1  0.760243  0.760243  0.251940  1
  Tl  Tl10  1  0.403527  0.000173  0.748743  1
  Tl  Tl11  1  0.000173  0.403527  0.748743  1
  Tl  Tl12  1  0.401405  0.401405  0.252261  1
  Tl  Tl13  1  0.596848  0.998928  0.251562  1
  Tl  Tl14  1  0.998928  0.596848  0.251562  1
  Ni  Ni15  1  0.001116  0.001116  0.499217  1
  Ir  Ir16  1  0.001353  0.001353  0.000618  1
  Pb  Pb17  1  0.597044  0.597044  0.747005  1
