# generated using pymatgen
data_Sc5U(Co3P2)6
_symmetry_space_group_name_H-M   'P 1'
_cell_length_a   3.62099900
_cell_length_b   10.42021600
_cell_length_c   11.93288600
_cell_angle_alpha   90.00000000
_cell_angle_beta   90.00000000
_cell_angle_gamma   90.00000000
_symmetry_Int_Tables_number   1
_chemical_formula_structural   Sc5U(Co3P2)6
_chemical_formula_sum   'Sc5 U1 Co18 P12'
_cell_volume   450.24678254
_cell_formula_units_Z   1
loop_
 _symmetry_equiv_pos_site_id
 _symmetry_equiv_pos_as_xyz
  1  'x, y, z'
loop_
 _atom_site_type_symbol
 _atom_site_label
 _atom_site_symmetry_multiplicity
 _atom_site_fract_x
 _atom_site_fract_y
 _atom_site_fract_z
 _atom_site_occupancy
  Sc  Sc0  1  0.500000  0.000000  0.475914  1
  Sc  Sc1  1  0.500000  0.817899  0.206754  1
  Sc  Sc2  1  0.500000  0.182101  0.206754  1
  Sc  Sc3  1  0.000000  0.683393  0.795455  1
  Sc  Sc4  1  0.000000  0.316607  0.795455  1
  U  U5  1  0.000000  0.500000  0.531807  1
  Co  Co6  1  0.500000  0.500000  0.158513  1
  Co  Co7  1  0.000000  0.000000  0.839603  1
  Co  Co8  1  0.500000  0.500000  0.696493  1
  Co  Co9  1  0.000000  0.000000  0.297415  1
  Co  Co10  1  0.000000  0.500000  0.985911  1
  Co  Co11  1  0.500000  0.000000  0.014683  1
  Co  Co12  1  0.500000  0.333143  0.992497  1
  Co  Co13  1  0.500000  0.666857  0.992497  1
  Co  Co14  1  0.000000  0.166703  0.006275  1
  Co  Co15  1  0.000000  0.833297  0.006275  1
  Co  Co16  1  0.500000  0.297904  0.431407  1
  Co  Co17  1  0.500000  0.702096  0.431407  1
  Co  Co18  1  0.000000  0.198941  0.568327  1
  Co  Co19  1  0.000000  0.801059  0.568327  1
  Co  Co20  1  0.500000  0.878404  0.710213  1
  Co  Co21  1  0.500000  0.121596  0.710213  1
  Co  Co22  1  0.000000  0.623078  0.290831  1
  Co  Co23  1  0.000000  0.376922  0.290831  1
  P  P24  1  0.500000  0.500000  0.877396  1
  P  P25  1  0.000000  0.000000  0.120884  1
  P  P26  1  0.500000  0.500000  0.346777  1
  P  P27  1  0.000000  0.000000  0.650208  1
  P  P28  1  0.500000  0.306818  0.619087  1
  P  P29  1  0.500000  0.693182  0.619087  1
  P  P30  1  0.000000  0.184749  0.381353  1
  P  P31  1  0.000000  0.815251  0.381353  1
  P  P32  1  0.500000  0.845353  0.891295  1
  P  P33  1  0.500000  0.154647  0.891295  1
  P  P34  1  0.000000  0.655778  0.108703  1
  P  P35  1  0.000000  0.344222  0.108703  1
