# generated using pymatgen
data_MoPt3F24
_symmetry_space_group_name_H-M   'P 1'
_cell_length_a   5.23947817
_cell_length_b   9.05983900
_cell_length_c   10.13703932
_cell_angle_alpha   89.99965974
_cell_angle_beta   90.02884235
_cell_angle_gamma   89.99957725
_symmetry_Int_Tables_number   1
_chemical_formula_structural   MoPt3F24
_chemical_formula_sum   'Mo1 Pt3 F24'
_cell_volume   481.19332135
_cell_formula_units_Z   1
loop_
 _symmetry_equiv_pos_site_id
 _symmetry_equiv_pos_as_xyz
  1  'x, y, z'
loop_
 _atom_site_type_symbol
 _atom_site_label
 _atom_site_symmetry_multiplicity
 _atom_site_fract_x
 _atom_site_fract_y
 _atom_site_fract_z
 _atom_site_occupancy
  Mo  Mo0  1  0.431808  0.250000  0.366082  1
  Pt  Pt1  1  0.068137  0.250000  0.866101  1
  Pt  Pt2  1  0.568142  0.750000  0.634052  1
  Pt  Pt3  1  0.931619  0.750000  0.133809  1
  F  F4  1  0.202650  0.750000  0.009599  1
  F  F5  1  0.397637  0.898256  0.732433  1
  F  F6  1  0.102377  0.601712  0.232413  1
  F  F7  1  0.297279  0.750000  0.509505  1
  F  F8  1  0.662136  0.750000  0.259097  1
  F  F9  1  0.897638  0.398329  0.767648  1
  F  F10  1  0.166431  0.250000  0.242806  1
  F  F11  1  0.397637  0.601744  0.732433  1
  F  F12  1  0.838088  0.750000  0.759057  1
  F  F13  1  0.263046  0.104630  0.463318  1
  F  F14  1  0.599511  0.395976  0.269223  1
  F  F15  1  0.739758  0.897707  0.535069  1
  F  F16  1  0.338002  0.250000  0.741036  1
  F  F17  1  0.102374  0.898285  0.232411  1
  F  F18  1  0.263046  0.395371  0.463318  1
  F  F19  1  0.239677  0.102170  0.964908  1
  F  F20  1  0.698500  0.250000  0.488402  1
  F  F21  1  0.797153  0.250000  0.990424  1
  F  F22  1  0.897638  0.101671  0.767649  1
  F  F23  1  0.239677  0.397830  0.964908  1
  F  F24  1  0.760385  0.602215  0.035006  1
  F  F25  1  0.760382  0.897787  0.035004  1
  F  F26  1  0.739760  0.602293  0.535069  1
  F  F27  1  0.599511  0.104024  0.269223  1
