# generated using pymatgen
data_Ta4Mn(CoS6)2
_symmetry_space_group_name_H-M   'P 1'
_cell_length_a   6.98576852
_cell_length_b   6.98576864
_cell_length_c   18.64687041
_cell_angle_alpha   68.80809318
_cell_angle_beta   68.80809360
_cell_angle_gamma   27.30899853
_symmetry_Int_Tables_number   1
_chemical_formula_structural   Ta4Mn(CoS6)2
_chemical_formula_sum   'Ta4 Mn1 Co2 S12'
_cell_volume   387.52793846
_cell_formula_units_Z   1
loop_
 _symmetry_equiv_pos_site_id
 _symmetry_equiv_pos_as_xyz
  1  'x, y, z'
loop_
 _atom_site_type_symbol
 _atom_site_label
 _atom_site_symmetry_multiplicity
 _atom_site_fract_x
 _atom_site_fract_y
 _atom_site_fract_z
 _atom_site_occupancy
  Ta  Ta0  1  0.620682  0.620682  0.852708  1
  Ta  Ta1  1  0.379318  0.379318  0.147292  1
  Ta  Ta2  1  0.743821  0.743821  0.589903  1
  Ta  Ta3  1  0.256179  0.256179  0.410097  1
  Mn  Mn4  1  0.000000  0.000000  0.000000  1
  Co  Co5  1  0.230627  0.230627  0.718134  1
  Co  Co6  1  0.769373  0.769373  0.281866  1
  S  S7  1  0.973499  0.973499  0.886199  1
  S  S8  1  0.026501  0.026501  0.113801  1
  S  S9  1  0.632809  0.632809  0.395507  1
  S  S10  1  0.367191  0.367191  0.604493  1
  S  S11  1  0.135042  0.135042  0.551458  1
  S  S12  1  0.864958  0.864958  0.448542  1
  S  S13  1  0.802910  0.802910  0.765107  1
  S  S14  1  0.197090  0.197090  0.234893  1
  S  S15  1  0.178267  0.178267  0.928987  1
  S  S16  1  0.821733  0.821733  0.071013  1
  S  S17  1  0.611965  0.611965  0.720878  1
  S  S18  1  0.388035  0.388035  0.279122  1
