# generated using pymatgen
data_ErMnSbO6
_symmetry_space_group_name_H-M   'P 1'
_cell_length_a   5.12973880
_cell_length_b   5.12973413
_cell_length_c   4.88085319
_cell_angle_alpha   90.02379427
_cell_angle_beta   90.02379625
_cell_angle_gamma   119.93348596
_symmetry_Int_Tables_number   1
_chemical_formula_structural   ErMnSbO6
_chemical_formula_sum   'Er1 Mn1 Sb1 O6'
_cell_volume   111.30304022
_cell_formula_units_Z   1
loop_
 _symmetry_equiv_pos_site_id
 _symmetry_equiv_pos_as_xyz
  1  'x, y, z'
loop_
 _atom_site_type_symbol
 _atom_site_label
 _atom_site_symmetry_multiplicity
 _atom_site_fract_x
 _atom_site_fract_y
 _atom_site_fract_z
 _atom_site_occupancy
  Er  Er0  1  0.517541  0.482462  0.500003  1
  Mn  Mn1  1  0.850425  0.149572  0.000003  1
  Sb  Sb2  1  0.184225  0.815779  0.000002  1
  O  O3  1  0.152952  0.128095  0.222070  1
  O  O4  1  0.527784  0.848203  0.222905  1
  O  O5  1  0.873038  0.472963  0.222794  1
  O  O6  1  0.527042  0.126966  0.777214  1
  O  O7  1  0.151803  0.472219  0.777102  1
  O  O8  1  0.871904  0.847050  0.777936  1
