# generated using pymatgen
data_Dy5HoEr4(CoSb2)2
_symmetry_space_group_name_H-M   'P 1'
_cell_length_a   7.84732800
_cell_length_b   8.74868500
_cell_length_c   12.16908400
_cell_angle_alpha   90.00000000
_cell_angle_beta   90.00000000
_cell_angle_gamma   90.00000000
_symmetry_Int_Tables_number   1
_chemical_formula_structural   Dy5HoEr4(CoSb2)2
_chemical_formula_sum   'Dy10 Ho2 Er8 Co4 Sb8'
_cell_volume   835.45386841
_cell_formula_units_Z   2
loop_
 _symmetry_equiv_pos_site_id
 _symmetry_equiv_pos_as_xyz
  1  'x, y, z'
loop_
 _atom_site_type_symbol
 _atom_site_label
 _atom_site_symmetry_multiplicity
 _atom_site_fract_x
 _atom_site_fract_y
 _atom_site_fract_z
 _atom_site_occupancy
  Dy  Dy0  1  0.845217  0.250000  0.796898  1
  Dy  Dy1  1  0.654783  0.250000  0.296898  1
  Dy  Dy2  1  0.452916  0.750000  0.998184  1
  Dy  Dy3  1  0.047084  0.750000  0.498184  1
  Dy  Dy4  1  0.546919  0.250000  0.001807  1
  Dy  Dy5  1  0.953081  0.250000  0.501807  1
  Dy  Dy6  1  0.620738  0.750000  0.307465  1
  Dy  Dy7  1  0.879262  0.750000  0.807465  1
  Dy  Dy8  1  0.379212  0.250000  0.692519  1
  Dy  Dy9  1  0.120788  0.250000  0.192519  1
  Ho  Ho10  1  0.154814  0.750000  0.203028  1
  Ho  Ho11  1  0.345186  0.750000  0.703028  1
  Er  Er12  1  0.822591  0.536164  0.065167  1
  Er  Er13  1  0.677409  0.963836  0.565167  1
  Er  Er14  1  0.177491  0.036001  0.934878  1
  Er  Er15  1  0.322509  0.463999  0.434878  1
  Er  Er16  1  0.177491  0.463999  0.934878  1
  Er  Er17  1  0.322509  0.036001  0.434878  1
  Er  Er18  1  0.822591  0.963836  0.065167  1
  Er  Er19  1  0.677409  0.536164  0.565167  1
  Co  Co20  1  0.433967  0.750000  0.491086  1
  Co  Co21  1  0.066033  0.750000  0.991086  1
  Co  Co22  1  0.566023  0.250000  0.509007  1
  Co  Co23  1  0.933977  0.250000  0.009007  1
  Sb  Sb24  1  0.929029  0.509051  0.326802  1
  Sb  Sb25  1  0.570971  0.990949  0.826802  1
  Sb  Sb26  1  0.071220  0.008817  0.673156  1
  Sb  Sb27  1  0.428780  0.491183  0.173156  1
  Sb  Sb28  1  0.071220  0.491183  0.673156  1
  Sb  Sb29  1  0.428780  0.008817  0.173156  1
  Sb  Sb30  1  0.929029  0.990949  0.326802  1
  Sb  Sb31  1  0.570971  0.509051  0.826802  1
