# generated using pymatgen
data_Hf2Ta2TiSi4
_symmetry_space_group_name_H-M   'P 1'
_cell_length_a   6.83410591
_cell_length_b   6.83169153
_cell_length_c   12.59791432
_cell_angle_alpha   89.92564471
_cell_angle_beta   90.06975621
_cell_angle_gamma   90.00533165
_symmetry_Int_Tables_number   1
_chemical_formula_structural   Hf2Ta2TiSi4
_chemical_formula_sum   'Hf8 Ta8 Ti4 Si16'
_cell_volume   588.17683234
_cell_formula_units_Z   4
loop_
 _symmetry_equiv_pos_site_id
 _symmetry_equiv_pos_as_xyz
  1  'x, y, z'
loop_
 _atom_site_type_symbol
 _atom_site_label
 _atom_site_symmetry_multiplicity
 _atom_site_fract_x
 _atom_site_fract_y
 _atom_site_fract_z
 _atom_site_occupancy
  Hf  Hf0  1  0.342184  0.000627  0.469623  1
  Hf  Hf1  1  0.499346  0.842708  0.718782  1
  Hf  Hf2  1  0.498716  0.157342  0.220304  1
  Hf  Hf3  1  0.842880  0.500450  0.281102  1
  Hf  Hf4  1  0.157612  0.499710  0.780028  1
  Hf  Hf5  1  0.658117  0.999073  0.970085  1
  Hf  Hf6  1  0.000399  0.341781  0.529824  1
  Hf  Hf7  1  0.999269  0.659776  0.030105  1
  Ta  Ta8  1  0.330799  0.330115  0.000140  1
  Ta  Ta9  1  0.170031  0.830007  0.250905  1
  Ta  Ta10  1  0.830155  0.170713  0.749479  1
  Ta  Ta11  1  0.151800  0.004250  0.874006  1
  Ta  Ta12  1  0.497576  0.651115  0.124330  1
  Ta  Ta13  1  0.502546  0.348217  0.623198  1
  Ta  Ta14  1  0.651615  0.496823  0.875860  1
  Ta  Ta15  1  0.348347  0.502398  0.376491  1
  Ti  Ti16  1  0.669122  0.669109  0.499747  1
  Ti  Ti17  1  0.847926  0.996076  0.374008  1
  Ti  Ti18  1  0.004564  0.151623  0.125976  1
  Ti  Ti19  1  0.996328  0.847680  0.626016  1
  Si  Si20  1  0.204740  0.133592  0.675193  1
  Si  Si21  1  0.362417  0.707221  0.927394  1
  Si  Si22  1  0.640198  0.291462  0.426918  1
  Si  Si23  1  0.709927  0.360067  0.074623  1
  Si  Si24  1  0.292165  0.640399  0.572411  1
  Si  Si25  1  0.795618  0.866986  0.178734  1
  Si  Si26  1  0.132590  0.204345  0.322752  1
  Si  Si27  1  0.862837  0.794041  0.820268  1
  Si  Si28  1  0.296496  0.956459  0.065632  1
  Si  Si29  1  0.548467  0.799775  0.316913  1
  Si  Si30  1  0.455380  0.200465  0.813111  1
  Si  Si31  1  0.800019  0.548107  0.682442  1
  Si  Si32  1  0.198552  0.452899  0.185990  1
  Si  Si33  1  0.705061  0.040873  0.561807  1
  Si  Si34  1  0.955204  0.298852  0.937880  1
  Si  Si35  1  0.040996  0.704866  0.437925  1
