# generated using pymatgen
data_ErTm18MgIr12
_symmetry_space_group_name_H-M   'P 1'
_cell_length_a   10.71566101
_cell_length_b   10.71564201
_cell_length_c   6.26624201
_cell_angle_alpha   89.99594361
_cell_angle_beta   90.00296240
_cell_angle_gamma   90.00250241
_symmetry_Int_Tables_number   1
_chemical_formula_structural   ErTm18MgIr12
_chemical_formula_sum   'Er1 Tm18 Mg1 Ir12'
_cell_volume   719.52240815
_cell_formula_units_Z   1
loop_
 _symmetry_equiv_pos_site_id
 _symmetry_equiv_pos_as_xyz
  1  'x, y, z'
loop_
 _atom_site_type_symbol
 _atom_site_label
 _atom_site_symmetry_multiplicity
 _atom_site_fract_x
 _atom_site_fract_y
 _atom_site_fract_z
 _atom_site_occupancy
  Er  Er0  1  0.284114  0.084695  0.377688  1
  Tm  Tm1  1  0.290880  0.912289  0.879018  1
  Tm  Tm2  1  0.709138  0.087649  0.879019  1
  Tm  Tm3  1  0.715606  0.915514  0.377813  1
  Tm  Tm4  1  0.588306  0.791979  0.877405  1
  Tm  Tm5  1  0.587260  0.207959  0.376162  1
  Tm  Tm6  1  0.412884  0.791984  0.376172  1
  Tm  Tm7  1  0.411763  0.208026  0.877399  1
  Tm  Tm8  1  0.207926  0.412862  0.623851  1
  Tm  Tm9  1  0.207985  0.588281  0.122580  1
  Tm  Tm10  1  0.792007  0.411706  0.122581  1
  Tm  Tm11  1  0.792074  0.587156  0.623835  1
  Tm  Tm12  1  0.912358  0.709127  0.120987  1
  Tm  Tm13  1  0.915520  0.284415  0.622164  1
  Tm  Tm14  1  0.084478  0.715578  0.622196  1
  Tm  Tm15  1  0.087570  0.290935  0.120908  1
  Tm  Tm16  1  0.999982  0.999990  0.999966  1
  Tm  Tm17  1  0.500005  0.499995  0.999978  1
  Tm  Tm18  1  0.500024  0.500007  0.500035  1
  Mg  Mg19  1  0.999921  0.999965  0.500031  1
  Ir  Ir20  1  0.845958  0.154743  0.246894  1
  Ir  Ir21  1  0.845237  0.845937  0.753112  1
  Ir  Ir22  1  0.154659  0.154090  0.753475  1
  Ir  Ir23  1  0.153976  0.845089  0.246801  1
  Ir  Ir24  1  0.654148  0.346214  0.748733  1
  Ir  Ir25  1  0.653784  0.654144  0.251255  1
  Ir  Ir26  1  0.346259  0.346031  0.251183  1
  Ir  Ir27  1  0.345861  0.653777  0.748732  1
  Ir  Ir28  1  0.500147  0.999925  0.124454  1
  Ir  Ir29  1  0.500164  0.999931  0.621036  1
  Ir  Ir30  1  0.999999  0.500000  0.875405  1
  Ir  Ir31  1  0.000006  0.500009  0.379131  1
