# generated using pymatgen
data_LiNp7H24
_symmetry_space_group_name_H-M   'P 1'
_cell_length_a   6.64580700
_cell_length_b   6.58888400
_cell_length_c   6.58888400
_cell_angle_alpha   90.00000000
_cell_angle_beta   90.00000000
_cell_angle_gamma   90.00000000
_symmetry_Int_Tables_number   1
_chemical_formula_structural   LiNp7H24
_chemical_formula_sum   'Li1 Np7 H24'
_cell_volume   288.51702688
_cell_formula_units_Z   1
loop_
 _symmetry_equiv_pos_site_id
 _symmetry_equiv_pos_as_xyz
  1  'x, y, z'
loop_
 _atom_site_type_symbol
 _atom_site_label
 _atom_site_symmetry_multiplicity
 _atom_site_fract_x
 _atom_site_fract_y
 _atom_site_fract_z
 _atom_site_occupancy
  Li  Li0  1  0.250000  0.000000  0.500000  1
  Np  Np1  1  0.001404  0.000000  0.000000  1
  Np  Np2  1  0.498596  0.500000  0.500000  1
  Np  Np3  1  0.750000  0.000000  0.500000  1
  Np  Np4  1  0.001356  0.500000  0.253231  1
  Np  Np5  1  0.001356  0.500000  0.746769  1
  Np  Np6  1  0.498644  0.753231  0.000000  1
  Np  Np7  1  0.498644  0.246769  0.000000  1
  H  H8  1  0.983766  0.158256  0.295179  1
  H  H9  1  0.516234  0.204821  0.658256  1
  H  H10  1  0.516234  0.795179  0.341744  1
  H  H11  1  0.805309  0.653629  0.500000  1
  H  H12  1  0.191304  0.651738  0.500000  1
  H  H13  1  0.343848  0.500000  0.803860  1
  H  H14  1  0.654338  0.500000  0.804624  1
  H  H15  1  0.308696  0.000000  0.151738  1
  H  H16  1  0.156152  0.303860  0.000000  1
  H  H17  1  0.845662  0.695376  0.000000  1
  H  H18  1  0.308696  0.000000  0.848262  1
  H  H19  1  0.845662  0.304624  0.000000  1
  H  H20  1  0.694691  0.000000  0.153629  1
  H  H21  1  0.694691  0.000000  0.846371  1
  H  H22  1  0.156152  0.696140  0.000000  1
  H  H23  1  0.983766  0.841744  0.704821  1
  H  H24  1  0.983766  0.158256  0.704821  1
  H  H25  1  0.983766  0.841744  0.295179  1
  H  H26  1  0.654338  0.500000  0.195376  1
  H  H27  1  0.343848  0.500000  0.196140  1
  H  H28  1  0.805309  0.346371  0.500000  1
  H  H29  1  0.191304  0.348262  0.500000  1
  H  H30  1  0.516234  0.795179  0.658256  1
  H  H31  1  0.516234  0.204821  0.341744  1
