# generated using pymatgen
data_LiFeNiAs2Pd
_symmetry_space_group_name_H-M   'P 1'
_cell_length_a   3.72793600
_cell_length_b   3.72795500
_cell_length_c   6.12761600
_cell_angle_alpha   90.00000000
_cell_angle_beta   90.00000000
_cell_angle_gamma   90.00000000
_symmetry_Int_Tables_number   1
_chemical_formula_structural   LiFeNiAs2Pd
_chemical_formula_sum   'Li1 Fe1 Ni1 As2 Pd1'
_cell_volume   85.15901917
_cell_formula_units_Z   1
loop_
 _symmetry_equiv_pos_site_id
 _symmetry_equiv_pos_as_xyz
  1  'x, y, z'
loop_
 _atom_site_type_symbol
 _atom_site_label
 _atom_site_symmetry_multiplicity
 _atom_site_fract_x
 _atom_site_fract_y
 _atom_site_fract_z
 _atom_site_occupancy
  Li  Li0  1  0.500000  0.000000  0.843933  1
  Fe  Fe1  1  0.500000  0.500000  0.500473  1
  Ni  Ni2  1  0.000000  0.000000  0.505473  1
  As  As3  1  0.000000  0.500000  0.737749  1
  As  As4  1  0.500000  0.000000  0.262172  1
  Pd  Pd5  1  0.000000  0.500000  0.150200  1
