# generated using pymatgen
data_Ce3Mg3Ir2Pd
_symmetry_space_group_name_H-M   'P 1'
_cell_length_a   7.52101400
_cell_length_b   7.52101334
_cell_length_c   3.99675900
_cell_angle_alpha   90.00000000
_cell_angle_beta   90.00000000
_cell_angle_gamma   119.99999411
_symmetry_Int_Tables_number   1
_chemical_formula_structural   Ce3Mg3Ir2Pd
_chemical_formula_sum   'Ce3 Mg3 Ir2 Pd1'
_cell_volume   195.79039162
_cell_formula_units_Z   1
loop_
 _symmetry_equiv_pos_site_id
 _symmetry_equiv_pos_as_xyz
  1  'x, y, z'
loop_
 _atom_site_type_symbol
 _atom_site_label
 _atom_site_symmetry_multiplicity
 _atom_site_fract_x
 _atom_site_fract_y
 _atom_site_fract_z
 _atom_site_occupancy
  Ce  Ce0  1  0.000000  0.576988  0.500000  1
  Ce  Ce1  1  0.576988  0.000000  0.500000  1
  Ce  Ce2  1  0.423012  0.423012  0.500000  1
  Mg  Mg3  1  0.757349  0.757349  0.000000  1
  Mg  Mg4  1  0.242651  0.000000  0.000000  1
  Mg  Mg5  1  0.000000  0.242651  0.000000  1
  Ir  Ir6  1  0.666667  0.333333  0.000000  1
  Ir  Ir7  1  0.333333  0.666667  0.000000  1
  Pd  Pd8  1  0.000000  0.000000  0.500000  1
