# generated using pymatgen
data_Ho5Sc3Ir4
_symmetry_space_group_name_H-M   'P 1'
_cell_length_a   4.32542800
_cell_length_b   7.18324175
_cell_length_c   8.65328640
_cell_angle_alpha   89.33503091
_cell_angle_beta   90.00000000
_cell_angle_gamma   90.00000000
_symmetry_Int_Tables_number   1
_chemical_formula_structural   Ho5Sc3Ir4
_chemical_formula_sum   'Ho5 Sc3 Ir4'
_cell_volume   268.84464979
_cell_formula_units_Z   1
loop_
 _symmetry_equiv_pos_site_id
 _symmetry_equiv_pos_as_xyz
  1  'x, y, z'
loop_
 _atom_site_type_symbol
 _atom_site_label
 _atom_site_symmetry_multiplicity
 _atom_site_fract_x
 _atom_site_fract_y
 _atom_site_fract_z
 _atom_site_occupancy
  Ho  Ho0  1  0.250000  0.996815  0.333250  1
  Ho  Ho1  1  0.750000  0.018736  0.677113  1
  Ho  Ho2  1  0.250000  0.481128  0.160175  1
  Ho  Ho3  1  0.750000  0.516943  0.826146  1
  Ho  Ho4  1  0.750000  0.643813  0.426106  1
  Sc  Sc5  1  0.250000  0.356329  0.571921  1
  Sc  Sc6  1  0.750000  0.137879  0.068587  1
  Sc  Sc7  1  0.250000  0.858647  0.931986  1
  Ir  Ir8  1  0.250000  0.238549  0.897570  1
  Ir  Ir9  1  0.750000  0.755645  0.092544  1
  Ir  Ir10  1  0.250000  0.745202  0.612099  1
  Ir  Ir11  1  0.750000  0.250314  0.402504  1
