# generated using pymatgen
data_Ca5Nd8Dy7Si16
_symmetry_space_group_name_H-M   'P 1'
_cell_length_a   7.50189336
_cell_length_b   7.86984226
_cell_length_c   14.94197671
_cell_angle_alpha   89.96225123
_cell_angle_beta   90.11086542
_cell_angle_gamma   90.07890385
_symmetry_Int_Tables_number   1
_chemical_formula_structural   Ca5Nd8Dy7Si16
_chemical_formula_sum   'Ca5 Nd8 Dy7 Si16'
_cell_volume   882.15246282
_cell_formula_units_Z   1
loop_
 _symmetry_equiv_pos_site_id
 _symmetry_equiv_pos_as_xyz
  1  'x, y, z'
loop_
 _atom_site_type_symbol
 _atom_site_label
 _atom_site_symmetry_multiplicity
 _atom_site_fract_x
 _atom_site_fract_y
 _atom_site_fract_z
 _atom_site_occupancy
  Ca  Ca0  1  0.650325  0.988451  0.250228  1
  Ca  Ca1  1  0.149670  0.511296  0.250128  1
  Ca  Ca2  1  0.849761  0.491136  0.750850  1
  Ca  Ca3  1  0.352164  0.010127  0.750629  1
  Ca  Ca4  1  0.682138  0.820247  0.878893  1
  Nd  Nd5  1  0.973309  0.817855  0.098821  1
  Nd  Nd6  1  0.472622  0.681688  0.401577  1
  Nd  Nd7  1  0.527696  0.318044  0.901317  1
  Nd  Nd8  1  0.026344  0.181750  0.596955  1
  Nd  Nd9  1  0.027027  0.182723  0.901421  1
  Nd  Nd10  1  0.527646  0.317590  0.598219  1
  Nd  Nd11  1  0.472350  0.682891  0.099063  1
  Nd  Nd12  1  0.972888  0.817947  0.401153  1
  Dy  Dy13  1  0.179201  0.682478  0.622260  1
  Dy  Dy14  1  0.819093  0.319450  0.123159  1
  Dy  Dy15  1  0.319049  0.180883  0.377440  1
  Dy  Dy16  1  0.319215  0.180452  0.123524  1
  Dy  Dy17  1  0.819004  0.318872  0.377333  1
  Dy  Dy18  1  0.180323  0.680679  0.876818  1
  Dy  Dy19  1  0.680498  0.818102  0.622469  1
  Si  Si20  1  0.762979  0.613486  0.249973  1
  Si  Si21  1  0.261811  0.886587  0.250337  1
  Si  Si22  1  0.741061  0.118260  0.747550  1
  Si  Si23  1  0.236887  0.385883  0.749394  1
  Si  Si24  1  0.027615  0.106345  0.249907  1
  Si  Si25  1  0.527386  0.394760  0.249895  1
  Si  Si26  1  0.469554  0.600953  0.747717  1
  Si  Si27  1  0.974092  0.895253  0.747626  1
  Si  Si28  1  0.858460  0.525380  0.963814  1
  Si  Si29  1  0.353253  0.968496  0.536144  1
  Si  Si30  1  0.642880  0.033863  0.038768  1
  Si  Si31  1  0.147236  0.467958  0.464437  1
  Si  Si32  1  0.147841  0.467913  0.036606  1
  Si  Si33  1  0.647068  0.031215  0.464222  1
  Si  Si34  1  0.348848  0.968675  0.965629  1
  Si  Si35  1  0.852704  0.532312  0.535723  1
