# generated using pymatgen
data_Y7Tm(AgRh)2
_symmetry_space_group_name_H-M   'P 1'
_cell_length_a   9.53243410
_cell_length_b   9.53293929
_cell_length_c   9.56505785
_cell_angle_alpha   60.48910229
_cell_angle_beta   60.40813235
_cell_angle_gamma   60.33665297
_symmetry_Int_Tables_number   1
_chemical_formula_structural   Y7Tm(AgRh)2
_chemical_formula_sum   'Y14 Tm2 Ag4 Rh4'
_cell_volume   620.32924773
_cell_formula_units_Z   2
loop_
 _symmetry_equiv_pos_site_id
 _symmetry_equiv_pos_as_xyz
  1  'x, y, z'
loop_
 _atom_site_type_symbol
 _atom_site_label
 _atom_site_symmetry_multiplicity
 _atom_site_fract_x
 _atom_site_fract_y
 _atom_site_fract_z
 _atom_site_occupancy
  Y  Y0  1  0.065165  0.065346  0.434626  1
  Y  Y1  1  0.436889  0.063465  0.436193  1
  Y  Y2  1  0.063734  0.436589  0.064242  1
  Y  Y3  1  0.059561  0.646434  0.646261  1
  Y  Y4  1  0.437813  0.437892  0.062732  1
  Y  Y5  1  0.646429  0.059534  0.646330  1
  Y  Y6  1  0.188550  0.812787  0.188303  1
  Y  Y7  1  0.187477  0.187742  0.814044  1
  Y  Y8  1  0.811714  0.811615  0.189264  1
  Y  Y9  1  0.436425  0.063848  0.064175  1
  Y  Y10  1  0.812930  0.188584  0.188103  1
  Y  Y11  1  0.063493  0.436930  0.436098  1
  Y  Y12  1  0.812689  0.188439  0.812718  1
  Y  Y13  1  0.188403  0.812672  0.812786  1
  Tm  Tm14  1  0.647383  0.647477  0.056597  1
  Tm  Tm15  1  0.646880  0.647062  0.647206  1
  Ag  Ag16  1  0.418588  0.418574  0.415958  1
  Ag  Ag17  1  0.744497  0.419445  0.416763  1
  Ag  Ag18  1  0.419502  0.744502  0.416780  1
  Ag  Ag19  1  0.418423  0.418326  0.745414  1
  Rh  Rh20  1  0.852958  0.852908  0.433447  1
  Rh  Rh21  1  0.854345  0.854168  0.859854  1
  Rh  Rh22  1  0.435013  0.850961  0.855938  1
  Rh  Rh23  1  0.851139  0.434702  0.856172  1
