# generated using pymatgen
data_K16Ti5Ge3P4(O4F9)4
_symmetry_space_group_name_H-M   'P 1'
_cell_length_a   11.16271500
_cell_length_b   5.93705218
_cell_length_c   20.49010500
_cell_angle_alpha   74.14203170
_cell_angle_beta   90.00000000
_cell_angle_gamma   90.00000000
_symmetry_Int_Tables_number   1
_chemical_formula_structural   K16Ti5Ge3P4(O4F9)4
_chemical_formula_sum   'K16 Ti5 Ge3 P4 O16 F36'
_cell_volume   1306.27250363
_cell_formula_units_Z   1
loop_
 _symmetry_equiv_pos_site_id
 _symmetry_equiv_pos_as_xyz
  1  'x, y, z'
loop_
 _atom_site_type_symbol
 _atom_site_label
 _atom_site_symmetry_multiplicity
 _atom_site_fract_x
 _atom_site_fract_y
 _atom_site_fract_z
 _atom_site_occupancy
  K  K0  1  0.046399  0.658049  0.832150  1
  K  K1  1  0.452486  0.656738  0.333017  1
  K  K2  1  0.267865  0.457024  0.516182  1
  K  K3  1  0.731901  0.542105  0.485230  1
  K  K4  1  0.756120  0.131659  0.857516  1
  K  K5  1  0.768028  0.544977  0.982782  1
  K  K6  1  0.456391  0.644432  0.847157  1
  K  K7  1  0.045135  0.643220  0.348013  1
  K  K8  1  0.244130  0.868603  0.142543  1
  K  K9  1  0.956232  0.355939  0.652547  1
  K  K10  1  0.542820  0.355118  0.152712  1
  K  K11  1  0.546453  0.342199  0.667499  1
  K  K12  1  0.256029  0.868540  0.642230  1
  K  K13  1  0.232009  0.457450  0.016199  1
  K  K14  1  0.744251  0.128304  0.359515  1
  K  K15  1  0.955366  0.340162  0.167865  1
  Ti  Ti16  1  0.000064  0.999999  0.500029  1
  Ti  Ti17  1  0.499310  0.000846  0.999241  1
  Ti  Ti18  1  0.000695  0.001634  0.999000  1
  Ti  Ti19  1  0.753500  0.720062  0.254813  1
  Ti  Ti20  1  0.499874  0.000044  0.500068  1
  Ge  Ge21  1  0.747147  0.724003  0.753085  1
  Ge  Ge22  1  0.252917  0.276087  0.246865  1
  Ge  Ge23  1  0.247102  0.276133  0.746714  1
  P  P24  1  0.752203  0.953260  0.593975  1
  P  P25  1  0.252247  0.046779  0.905697  1
  P  P26  1  0.747725  0.957075  0.091029  1
  P  P27  1  0.247845  0.046771  0.406146  1
  O  O28  1  0.159520  0.082922  0.959644  1
  O  O29  1  0.376522  0.119353  0.929487  1
  O  O30  1  0.749518  0.202223  0.099159  1
  O  O31  1  0.623244  0.882552  0.068360  1
  O  O32  1  0.840227  0.921829  0.037015  1
  O  O33  1  0.249715  0.801439  0.398165  1
  O  O34  1  0.341103  0.082885  0.459805  1
  O  O35  1  0.218585  0.242354  0.839037  1
  O  O36  1  0.718984  0.757237  0.660748  1
  O  O37  1  0.280891  0.242483  0.339270  1
  O  O38  1  0.123535  0.118352  0.430186  1
  O  O39  1  0.250561  0.801165  0.898026  1
  O  O40  1  0.658737  0.917812  0.540305  1
  O  O41  1  0.750525  0.198215  0.602206  1
  O  O42  1  0.876439  0.881560  0.569891  1
  O  O43  1  0.779194  0.766234  0.158845  1
  F  F44  1  0.958937  0.850816  0.931590  1
  F  F45  1  0.437255  0.714937  0.557073  1
  F  F46  1  0.769211  0.666429  0.846710  1
  F  F47  1  0.133932  0.057582  0.258045  1
  F  F48  1  0.130815  0.506631  0.726878  1
  F  F49  1  0.140639  0.507598  0.243264  1
  F  F50  1  0.042480  0.148951  0.067324  1
  F  F51  1  0.366363  0.057786  0.758276  1
  F  F52  1  0.902178  0.257701  0.456050  1
  F  F53  1  0.939459  0.287973  0.942067  1
  F  F54  1  0.456562  0.149856  0.567573  1
  F  F55  1  0.866354  0.942317  0.741782  1
  F  F56  1  0.369060  0.506902  0.226871  1
  F  F57  1  0.359475  0.507190  0.743416  1
  F  F58  1  0.928089  0.826376  0.444560  1
  F  F59  1  0.869156  0.944865  0.262106  1
  F  F60  1  0.729467  0.665688  0.351015  1
  F  F61  1  0.097963  0.742156  0.544284  1
  F  F62  1  0.072418  0.173147  0.555717  1
  F  F63  1  0.401708  0.742946  0.043916  1
  F  F64  1  0.542451  0.850036  0.432717  1
  F  F65  1  0.562366  0.284830  0.443289  1
  F  F66  1  0.631131  0.944732  0.242150  1
  F  F67  1  0.269280  0.333637  0.653179  1
  F  F68  1  0.427372  0.173093  0.055366  1
  F  F69  1  0.859539  0.492801  0.756572  1
  F  F70  1  0.134692  0.056789  0.740691  1
  F  F71  1  0.061399  0.716117  0.056848  1
  F  F72  1  0.230680  0.333928  0.153127  1
  F  F73  1  0.872828  0.481074  0.275733  1
  F  F74  1  0.634696  0.943183  0.759240  1
  F  F75  1  0.637813  0.479719  0.260028  1
  F  F76  1  0.597339  0.258794  0.955337  1
  F  F77  1  0.365175  0.056927  0.240615  1
  F  F78  1  0.571331  0.827211  0.943618  1
  F  F79  1  0.630845  0.493460  0.773004  1
