# generated using pymatgen
data_YbHfTlF7
_symmetry_space_group_name_H-M   'P 1'
_cell_length_a   6.55086800
_cell_length_b   6.55086843
_cell_length_c   8.51853000
_cell_angle_alpha   90.00000000
_cell_angle_beta   90.00000000
_cell_angle_gamma   116.84280495
_symmetry_Int_Tables_number   1
_chemical_formula_structural   YbHfTlF7
_chemical_formula_sum   'Yb2 Hf2 Tl2 F14'
_cell_volume   326.17323305
_cell_formula_units_Z   2
loop_
 _symmetry_equiv_pos_site_id
 _symmetry_equiv_pos_as_xyz
  1  'x, y, z'
loop_
 _atom_site_type_symbol
 _atom_site_label
 _atom_site_symmetry_multiplicity
 _atom_site_fract_x
 _atom_site_fract_y
 _atom_site_fract_z
 _atom_site_occupancy
  Yb  Yb0  1  0.308392  0.691608  0.750000  1
  Yb  Yb1  1  0.691608  0.308392  0.250000  1
  Hf  Hf2  1  0.693004  0.306996  0.750000  1
  Hf  Hf3  1  0.306996  0.693004  0.250000  1
  Tl  Tl4  1  0.000000  0.000000  0.000000  1
  Tl  Tl5  1  0.000000  0.000000  0.500000  1
  F  F6  1  0.348633  0.062157  0.750000  1
  F  F7  1  0.651367  0.937843  0.250000  1
  F  F8  1  0.937843  0.651367  0.750000  1
  F  F9  1  0.062157  0.348633  0.250000  1
  F  F10  1  0.510205  0.489795  0.750000  1
  F  F11  1  0.489795  0.510205  0.250000  1
  F  F12  1  0.702206  0.297794  0.986927  1
  F  F13  1  0.297794  0.702206  0.013073  1
  F  F14  1  0.297794  0.702206  0.486927  1
  F  F15  1  0.702206  0.297794  0.513073  1
  F  F16  1  0.670205  0.975603  0.750000  1
  F  F17  1  0.329795  0.024397  0.250000  1
  F  F18  1  0.024397  0.329795  0.750000  1
  F  F19  1  0.975603  0.670205  0.250000  1
