# generated using pymatgen
data_LiAc2ZnIr2
_symmetry_space_group_name_H-M   'P 1'
_cell_length_a   7.35146200
_cell_length_b   4.25880500
_cell_length_c   8.68233700
_cell_angle_alpha   90.00000000
_cell_angle_beta   90.00000000
_cell_angle_gamma   90.00000000
_symmetry_Int_Tables_number   1
_chemical_formula_structural   LiAc2ZnIr2
_chemical_formula_sum   'Li2 Ac4 Zn2 Ir4'
_cell_volume   271.83045414
_cell_formula_units_Z   2
loop_
 _symmetry_equiv_pos_site_id
 _symmetry_equiv_pos_as_xyz
  1  'x, y, z'
loop_
 _atom_site_type_symbol
 _atom_site_label
 _atom_site_symmetry_multiplicity
 _atom_site_fract_x
 _atom_site_fract_y
 _atom_site_fract_z
 _atom_site_occupancy
  Li  Li0  1  0.624802  0.250000  0.551723  1
  Li  Li1  1  0.124802  0.250000  0.948277  1
  Ac  Ac2  1  0.037856  0.250000  0.314483  1
  Ac  Ac3  1  0.537856  0.250000  0.185517  1
  Ac  Ac4  1  0.960465  0.750000  0.682898  1
  Ac  Ac5  1  0.460465  0.750000  0.817102  1
  Zn  Zn6  1  0.375387  0.750000  0.446373  1
  Zn  Zn7  1  0.875387  0.750000  0.053627  1
  Ir  Ir8  1  0.260714  0.250000  0.613767  1
  Ir  Ir9  1  0.760714  0.250000  0.886233  1
  Ir  Ir10  1  0.740777  0.750000  0.373001  1
  Ir  Ir11  1  0.240777  0.750000  0.126999  1
