# generated using pymatgen
data_DyHo11OsRh3
_symmetry_space_group_name_H-M   'P 1'
_cell_length_a   6.36574612
_cell_length_b   7.23431116
_cell_length_c   9.19816100
_cell_angle_alpha   90.00000000
_cell_angle_beta   90.00000000
_cell_angle_gamma   90.11374067
_symmetry_Int_Tables_number   1
_chemical_formula_structural   DyHo11OsRh3
_chemical_formula_sum   'Dy1 Ho11 Os1 Rh3'
_cell_volume   423.59092772
_cell_formula_units_Z   1
loop_
 _symmetry_equiv_pos_site_id
 _symmetry_equiv_pos_as_xyz
  1  'x, y, z'
loop_
 _atom_site_type_symbol
 _atom_site_label
 _atom_site_symmetry_multiplicity
 _atom_site_fract_x
 _atom_site_fract_y
 _atom_site_fract_z
 _atom_site_occupancy
  Dy  Dy0  1  0.872833  0.536841  0.250000  1
  Ho  Ho1  1  0.332752  0.677388  0.058220  1
  Ho  Ho2  1  0.171462  0.178525  0.437094  1
  Ho  Ho3  1  0.671975  0.323512  0.563844  1
  Ho  Ho4  1  0.824994  0.819181  0.935144  1
  Ho  Ho5  1  0.671975  0.323512  0.936156  1
  Ho  Ho6  1  0.824994  0.819181  0.564856  1
  Ho  Ho7  1  0.332752  0.677388  0.441780  1
  Ho  Ho8  1  0.171462  0.178525  0.062906  1
  Ho  Ho9  1  0.630830  0.035196  0.250000  1
  Ho  Ho10  1  0.127994  0.464598  0.750000  1
  Ho  Ho11  1  0.371715  0.966194  0.750000  1
  Os  Os12  1  0.537114  0.614816  0.750000  1
  Rh  Rh13  1  0.047054  0.886132  0.250000  1
  Rh  Rh14  1  0.455361  0.384788  0.250000  1
  Rh  Rh15  1  0.954734  0.114225  0.750000  1
