# generated using pymatgen
data_LaHo4Nb3(Co4P3)4
_symmetry_space_group_name_H-M   'P 1'
_cell_length_a   12.22751900
_cell_length_b   12.22752005
_cell_length_c   3.70914800
_cell_angle_alpha   90.00000000
_cell_angle_beta   90.00000000
_cell_angle_gamma   119.99999987
_symmetry_Int_Tables_number   1
_chemical_formula_structural   LaHo4Nb3(Co4P3)4
_chemical_formula_sum   'La1 Ho4 Nb3 Co16 P12'
_cell_volume   480.26564888
_cell_formula_units_Z   1
loop_
 _symmetry_equiv_pos_site_id
 _symmetry_equiv_pos_as_xyz
  1  'x, y, z'
loop_
 _atom_site_type_symbol
 _atom_site_label
 _atom_site_symmetry_multiplicity
 _atom_site_fract_x
 _atom_site_fract_y
 _atom_site_fract_z
 _atom_site_occupancy
  La  La0  1  0.333333  0.666667  0.000000  1
  Ho  Ho1  1  0.816552  0.999934  0.500000  1
  Ho  Ho2  1  0.000066  0.816618  0.500000  1
  Ho  Ho3  1  0.183382  0.183448  0.500000  1
  Ho  Ho4  1  0.666667  0.333333  0.000000  1
  Nb  Nb5  1  0.445457  0.002254  0.000000  1
  Nb  Nb6  1  0.997746  0.443204  0.000000  1
  Nb  Nb7  1  0.556796  0.554543  0.000000  1
  Co  Co8  1  0.278873  0.002467  0.500000  1
  Co  Co9  1  0.997533  0.276406  0.500000  1
  Co  Co10  1  0.723594  0.721127  0.500000  1
  Co  Co11  1  0.629989  0.804550  0.000000  1
  Co  Co12  1  0.195450  0.825439  0.000000  1
  Co  Co13  1  0.174561  0.370011  0.000000  1
  Co  Co14  1  0.373558  0.177451  0.000000  1
  Co  Co15  1  0.803892  0.626442  0.000000  1
  Co  Co16  1  0.822549  0.196108  0.000000  1
  Co  Co17  1  0.524077  0.876829  0.500000  1
  Co  Co18  1  0.123171  0.647248  0.500000  1
  Co  Co19  1  0.352752  0.475923  0.500000  1
  Co  Co20  1  0.481105  0.353152  0.500000  1
  Co  Co21  1  0.872048  0.518895  0.500000  1
  Co  Co22  1  0.646848  0.127952  0.500000  1
  Co  Co23  1  0.000000  0.000000  0.000000  1
  P  P24  1  0.177929  0.001339  0.000000  1
  P  P25  1  0.998661  0.176591  0.000000  1
  P  P26  1  0.823409  0.822071  0.000000  1
  P  P27  1  0.527421  0.690182  0.500000  1
  P  P28  1  0.309818  0.837238  0.500000  1
  P  P29  1  0.162762  0.472579  0.500000  1
  P  P30  1  0.479939  0.169006  0.500000  1
  P  P31  1  0.689067  0.520061  0.500000  1
  P  P32  1  0.830994  0.310933  0.500000  1
  P  P33  1  0.644139  0.999867  0.000000  1
  P  P34  1  0.000133  0.644272  0.000000  1
  P  P35  1  0.355728  0.355861  0.000000  1
