# generated using pymatgen
data_Tb9Lu(RuRh)2
_symmetry_space_group_name_H-M   'P 1'
_cell_length_a   6.40748414
_cell_length_b   7.23532183
_cell_length_c   8.58038329
_cell_angle_alpha   96.63952121
_cell_angle_beta   112.37781209
_cell_angle_gamma   90.05654592
_symmetry_Int_Tables_number   1
_chemical_formula_structural   Tb9Lu(RuRh)2
_chemical_formula_sum   'Tb9 Lu1 Ru2 Rh2'
_cell_volume   364.92649582
_cell_formula_units_Z   1
loop_
 _symmetry_equiv_pos_site_id
 _symmetry_equiv_pos_as_xyz
  1  'x, y, z'
loop_
 _atom_site_type_symbol
 _atom_site_label
 _atom_site_symmetry_multiplicity
 _atom_site_fract_x
 _atom_site_fract_y
 _atom_site_fract_z
 _atom_site_occupancy
  Tb  Tb0  1  0.523595  0.080319  0.816255  1
  Tb  Tb1  1  0.477884  0.917233  0.183466  1
  Tb  Tb2  1  0.711693  0.416883  0.188156  1
  Tb  Tb3  1  0.290195  0.585313  0.812301  1
  Tb  Tb4  1  0.287982  0.311859  0.434290  1
  Tb  Tb5  1  0.711101  0.688669  0.566974  1
  Tb  Tb6  1  0.857160  0.184113  0.563436  1
  Tb  Tb7  1  0.140944  0.815055  0.435051  1
  Tb  Tb8  1  0.076575  0.247918  0.999083  1
  Lu  Lu9  1  0.925845  0.752095  0.001020  1
  Ru  Ru10  1  0.103257  0.923790  0.783093  1
  Ru  Ru11  1  0.895083  0.073785  0.216218  1
  Rh  Rh12  1  0.319796  0.575003  0.222088  1
  Rh  Rh13  1  0.678889  0.427965  0.778568  1
