# generated using pymatgen
data_Ac3PrBrN2Cl5
_symmetry_space_group_name_H-M   'P 1'
_cell_length_a   8.69277034
_cell_length_b   8.59305846
_cell_length_c   8.59305794
_cell_angle_alpha   136.55993087
_cell_angle_beta   131.27111307
_cell_angle_gamma   67.11649118
_symmetry_Int_Tables_number   1
_chemical_formula_structural   Ac3PrBrN2Cl5
_chemical_formula_sum   'Ac3 Pr1 Br1 N2 Cl5'
_cell_volume   326.64083836
_cell_formula_units_Z   1
loop_
 _symmetry_equiv_pos_site_id
 _symmetry_equiv_pos_as_xyz
  1  'x, y, z'
loop_
 _atom_site_type_symbol
 _atom_site_label
 _atom_site_symmetry_multiplicity
 _atom_site_fract_x
 _atom_site_fract_y
 _atom_site_fract_z
 _atom_site_occupancy
  Ac  Ac0  1  0.079870  0.902741  0.177129  1
  Ac  Ac1  1  0.904690  0.092741  0.811951  1
  Ac  Ac2  1  0.277694  0.595850  0.681843  1
  Pr  Pr3  1  0.751505  0.415297  0.336207  1
  Br  Br4  1  0.390298  0.203418  0.186881  1
  N  N5  1  0.000256  0.748721  0.747656  1
  N  N6  1  0.000256  0.252600  0.251534  1
  Cl  Cl7  1  0.621484  0.802730  0.818753  1
  Cl  Cl8  1  0.497560  0.246384  0.755420  1
  Cl  Cl9  1  0.497560  0.742141  0.251177  1
  Cl  Cl10  1  0.005908  0.695501  0.310407  1
  Cl  Cl11  1  0.972917  0.301873  0.671043  1
