# generated using pymatgen
data_CsLaTbY8(C2I9)2
_symmetry_space_group_name_H-M   'P 1'
_cell_length_a   11.57107371
_cell_length_b   11.59362517
_cell_length_c   11.58793235
_cell_angle_alpha   113.35168543
_cell_angle_beta   86.72922585
_cell_angle_gamma   120.04002512
_symmetry_Int_Tables_number   1
_chemical_formula_structural   CsLaTbY8(C2I9)2
_chemical_formula_sum   'Cs1 La1 Tb1 Y8 C4 I18'
_cell_volume   1215.78657090
_cell_formula_units_Z   1
loop_
 _symmetry_equiv_pos_site_id
 _symmetry_equiv_pos_as_xyz
  1  'x, y, z'
loop_
 _atom_site_type_symbol
 _atom_site_label
 _atom_site_symmetry_multiplicity
 _atom_site_fract_x
 _atom_site_fract_y
 _atom_site_fract_z
 _atom_site_occupancy
  Cs  Cs0  1  0.500555  0.002959  0.500225  1
  La  La1  1  0.665208  0.718215  0.703130  1
  Tb  Tb2  1  0.896034  0.055077  0.999322  1
  Y  Y3  1  0.275891  0.350756  0.016624  1
  Y  Y4  1  0.093501  0.386832  0.290131  1
  Y  Y5  1  0.965819  0.038528  0.322526  1
  Y  Y6  1  0.905631  0.612850  0.709581  1
  Y  Y7  1  0.103779  0.945010  0.000588  1
  Y  Y8  1  0.036715  0.962689  0.679049  1
  Y  Y9  1  0.320114  0.272871  0.286455  1
  Y  Y10  1  0.726640  0.650613  0.985454  1
  C  C11  1  0.150869  0.217564  0.120020  1
  C  C12  1  0.849110  0.782371  0.879925  1
  C  C13  1  0.923809  0.857404  0.804820  1
  C  C14  1  0.076009  0.142292  0.195159  1
  I  I15  1  0.446823  0.525078  0.840238  1
  I  I16  1  0.379469  0.038993  0.156142  1
  I  I17  1  0.786974  0.862878  0.497725  1
  I  I18  1  0.841724  0.310398  0.154827  1
  I  I19  1  0.548232  0.469172  0.168793  1
  I  I20  1  0.221532  0.145020  0.497879  1
  I  I21  1  0.316086  0.096785  0.831023  1
  I  I22  1  0.685443  0.904258  0.169388  1
  I  I23  1  0.975057  0.758067  0.169171  1
  I  I24  1  0.937143  0.298398  0.499265  1
  I  I25  1  0.026123  0.242089  0.831854  1
  I  I26  1  0.065717  0.703003  0.501483  1
  I  I27  1  0.260070  0.618420  0.184811  1
  I  I28  1  0.740775  0.382615  0.817294  1
  I  I29  1  0.645012  0.422709  0.493791  1
  I  I30  1  0.158799  0.691407  0.846466  1
  I  I31  1  0.618583  0.972146  0.848724  1
  I  I32  1  0.356753  0.562535  0.498118  1
