# generated using pymatgen
data_Pr3NdAl15(GaIr2)3
_symmetry_space_group_name_H-M   'P 1'
_cell_length_a   7.60564004
_cell_length_b   7.60689435
_cell_length_c   9.68938500
_cell_angle_alpha   90.00000000
_cell_angle_beta   90.00000000
_cell_angle_gamma   119.28252192
_symmetry_Int_Tables_number   1
_chemical_formula_structural   Pr3NdAl15(GaIr2)3
_chemical_formula_sum   'Pr3 Nd1 Al15 Ga3 Ir6'
_cell_volume   488.95024405
_cell_formula_units_Z   1
loop_
 _symmetry_equiv_pos_site_id
 _symmetry_equiv_pos_as_xyz
  1  'x, y, z'
loop_
 _atom_site_type_symbol
 _atom_site_label
 _atom_site_symmetry_multiplicity
 _atom_site_fract_x
 _atom_site_fract_y
 _atom_site_fract_z
 _atom_site_occupancy
  Pr  Pr0  1  0.998272  0.674752  0.250000  1
  Pr  Pr1  1  0.005012  0.325188  0.750000  1
  Pr  Pr2  1  0.669641  0.990716  0.250000  1
  Nd  Nd3  1  0.324684  0.003643  0.750000  1
  Al  Al4  1  0.003452  0.335653  0.070773  1
  Al  Al5  1  0.997245  0.663817  0.927679  1
  Al  Al6  1  0.997245  0.663817  0.572321  1
  Al  Al7  1  0.336833  0.005804  0.429413  1
  Al  Al8  1  0.003452  0.335653  0.429227  1
  Al  Al9  1  0.663197  0.997440  0.572108  1
  Al  Al10  1  0.663197  0.997440  0.927892  1
  Al  Al11  1  0.336833  0.005804  0.070587  1
  Al  Al12  1  0.335265  0.335243  0.551833  1
  Al  Al13  1  0.665748  0.665159  0.455519  1
  Al  Al14  1  0.665748  0.665159  0.044481  1
  Al  Al15  1  0.335265  0.335243  0.948167  1
  Al  Al16  1  0.661782  0.451675  0.750000  1
  Al  Al17  1  0.547998  0.339408  0.250000  1
  Al  Al18  1  0.452397  0.662709  0.750000  1
  Ga  Ga19  1  0.133686  0.134220  0.250000  1
  Ga  Ga20  1  0.863272  0.862498  0.750000  1
  Ga  Ga21  1  0.338536  0.543190  0.250000  1
  Ir  Ir22  1  0.670584  0.330314  0.000080  1
  Ir  Ir23  1  0.329826  0.672116  0.997802  1
  Ir  Ir24  1  0.329826  0.672116  0.502198  1
  Ir  Ir25  1  0.670584  0.330314  0.499920  1
  Ir  Ir26  1  0.000209  0.000454  0.999419  1
  Ir  Ir27  1  0.000209  0.000454  0.500581  1
