# generated using pymatgen
data_Ce3PtAu5
_symmetry_space_group_name_H-M   'P 1'
_cell_length_a   7.88996200
_cell_length_b   7.88996178
_cell_length_c   3.74215700
_cell_angle_alpha   90.00000000
_cell_angle_beta   90.00000000
_cell_angle_gamma   119.99998305
_symmetry_Int_Tables_number   1
_chemical_formula_structural   Ce3PtAu5
_chemical_formula_sum   'Ce3 Pt1 Au5'
_cell_volume   201.74487953
_cell_formula_units_Z   1
loop_
 _symmetry_equiv_pos_site_id
 _symmetry_equiv_pos_as_xyz
  1  'x, y, z'
loop_
 _atom_site_type_symbol
 _atom_site_label
 _atom_site_symmetry_multiplicity
 _atom_site_fract_x
 _atom_site_fract_y
 _atom_site_fract_z
 _atom_site_occupancy
  Ce  Ce0  1  0.387560  0.400717  0.000000  1
  Ce  Ce1  1  0.599283  0.986844  0.000000  1
  Ce  Ce2  1  0.013156  0.612440  0.000000  1
  Pt  Pt3  1  0.333333  0.666667  0.500000  1
  Au  Au4  1  0.724525  0.722340  0.500000  1
  Au  Au5  1  0.277660  0.002185  0.500000  1
  Au  Au6  1  0.997815  0.275475  0.500000  1
  Au  Au7  1  0.666667  0.333333  0.500000  1
  Au  Au8  1  0.000000  0.000000  0.000000  1
