# generated using pymatgen
data_KRb(SnBi)2
_symmetry_space_group_name_H-M   'P 1'
_cell_length_a   6.68672732
_cell_length_b   6.68672595
_cell_length_c   6.68672734
_cell_angle_alpha   123.13783075
_cell_angle_beta   117.21401926
_cell_angle_gamma   89.77251467
_symmetry_Int_Tables_number   1
_chemical_formula_structural   KRb(SnBi)2
_chemical_formula_sum   'K1 Rb1 Sn2 Bi2'
_cell_volume   210.13786802
_cell_formula_units_Z   1
loop_
 _symmetry_equiv_pos_site_id
 _symmetry_equiv_pos_as_xyz
  1  'x, y, z'
loop_
 _atom_site_type_symbol
 _atom_site_label
 _atom_site_symmetry_multiplicity
 _atom_site_fract_x
 _atom_site_fract_y
 _atom_site_fract_z
 _atom_site_occupancy
  K  K0  1  0.252168  0.752168  0.500000  1
  Rb  Rb1  1  0.001217  0.001217  0.000000  1
  Sn  Sn2  1  0.625249  0.375384  0.750135  1
  Sn  Sn3  1  0.625249  0.875114  0.249865  1
  Bi  Bi4  1  0.621400  0.373057  0.248343  1
  Bi  Bi5  1  0.124715  0.373057  0.751657  1
