# generated using pymatgen
data_Dy11In9NiAu3
_symmetry_space_group_name_H-M   'P 1'
_cell_length_a   13.25203004
_cell_length_b   13.26174299
_cell_length_c   3.65389100
_cell_angle_alpha   90.00000000
_cell_angle_beta   90.00000000
_cell_angle_gamma   110.51573182
_symmetry_Int_Tables_number   1
_chemical_formula_structural   Dy11In9NiAu3
_chemical_formula_sum   'Dy11 In9 Ni1 Au3'
_cell_volume   601.42521126
_cell_formula_units_Z   1
loop_
 _symmetry_equiv_pos_site_id
 _symmetry_equiv_pos_as_xyz
  1  'x, y, z'
loop_
 _atom_site_type_symbol
 _atom_site_label
 _atom_site_symmetry_multiplicity
 _atom_site_fract_x
 _atom_site_fract_y
 _atom_site_fract_z
 _atom_site_occupancy
  Dy  Dy0  1  0.068441  0.416460  0.000000  1
  Dy  Dy1  1  0.932803  0.585627  0.000000  1
  Dy  Dy2  1  0.415138  0.065065  0.000000  1
  Dy  Dy3  1  0.580580  0.920280  0.000000  1
  Dy  Dy4  1  0.632727  0.368050  0.000000  1
  Dy  Dy5  1  0.380510  0.639613  0.000000  1
  Dy  Dy6  1  0.840049  0.158247  0.000000  1
  Dy  Dy7  1  0.160362  0.840614  0.000000  1
  Dy  Dy8  1  0.998112  0.999573  0.000000  1
  Dy  Dy9  1  0.304208  0.304729  0.000000  1
  Dy  Dy10  1  0.684744  0.698988  0.000000  1
  In  In11  1  0.845907  0.366542  0.500000  1
  In  In12  1  0.158553  0.634173  0.500000  1
  In  In13  1  0.368574  0.841978  0.500000  1
  In  In14  1  0.632513  0.150854  0.500000  1
  In  In15  1  0.067832  0.213955  0.500000  1
  In  In16  1  0.928917  0.784970  0.500000  1
  In  In17  1  0.213966  0.068288  0.500000  1
  In  In18  1  0.781345  0.927294  0.500000  1
  In  In19  1  0.501814  0.505574  0.500000  1
  Ni  Ni20  1  0.548668  0.753346  0.500000  1
  Au  Au21  1  0.253152  0.455496  0.500000  1
  Au  Au22  1  0.748953  0.550627  0.500000  1
  Au  Au23  1  0.452131  0.249657  0.500000  1
