# generated using pymatgen
data_Tb2Y3Lu3(CdPt)2
_symmetry_space_group_name_H-M   'P 1'
_cell_length_a   9.63069566
_cell_length_b   9.63069639
_cell_length_c   9.63069600
_cell_angle_alpha   60.00000135
_cell_angle_beta   59.99999883
_cell_angle_gamma   60.00000372
_symmetry_Int_Tables_number   1
_chemical_formula_structural   Tb2Y3Lu3(CdPt)2
_chemical_formula_sum   'Tb4 Y6 Lu6 Cd4 Pt4'
_cell_volume   631.62315125
_cell_formula_units_Z   2
loop_
 _symmetry_equiv_pos_site_id
 _symmetry_equiv_pos_as_xyz
  1  'x, y, z'
loop_
 _atom_site_type_symbol
 _atom_site_label
 _atom_site_symmetry_multiplicity
 _atom_site_fract_x
 _atom_site_fract_y
 _atom_site_fract_z
 _atom_site_occupancy
  Tb  Tb0  1  0.352844  0.352844  0.352844  1
  Tb  Tb1  1  0.352844  0.352844  0.941469  1
  Tb  Tb2  1  0.352844  0.941469  0.352844  1
  Tb  Tb3  1  0.941469  0.352844  0.352844  1
  Y  Y4  1  0.936519  0.563481  0.563481  1
  Y  Y5  1  0.563481  0.936519  0.936519  1
  Y  Y6  1  0.563481  0.936519  0.563481  1
  Y  Y7  1  0.936519  0.563481  0.936519  1
  Y  Y8  1  0.563481  0.563481  0.936519  1
  Y  Y9  1  0.936519  0.936519  0.563481  1
  Lu  Lu10  1  0.812783  0.187217  0.187217  1
  Lu  Lu11  1  0.187217  0.812783  0.812783  1
  Lu  Lu12  1  0.187217  0.812783  0.187217  1
  Lu  Lu13  1  0.812783  0.187217  0.812783  1
  Lu  Lu14  1  0.187217  0.187217  0.812783  1
  Lu  Lu15  1  0.812783  0.812783  0.187217  1
  Cd  Cd16  1  0.581645  0.581645  0.581645  1
  Cd  Cd17  1  0.581645  0.581645  0.255067  1
  Cd  Cd18  1  0.581645  0.255067  0.581645  1
  Cd  Cd19  1  0.255067  0.581645  0.581645  1
  Pt  Pt20  1  0.141707  0.141707  0.141707  1
  Pt  Pt21  1  0.141707  0.141707  0.574879  1
  Pt  Pt22  1  0.141707  0.574879  0.141707  1
  Pt  Pt23  1  0.574879  0.141707  0.141707  1
