# generated using pymatgen
data_Cs6TbCeBr12
_symmetry_space_group_name_H-M   'P 1'
_cell_length_a   10.07069412
_cell_length_b   10.09349823
_cell_length_c   8.40189100
_cell_angle_alpha   90.00000000
_cell_angle_beta   90.00000000
_cell_angle_gamma   89.71051167
_symmetry_Int_Tables_number   1
_chemical_formula_structural   Cs6TbCeBr12
_chemical_formula_sum   'Cs6 Tb1 Ce1 Br12'
_cell_volume   854.02899543
_cell_formula_units_Z   1
loop_
 _symmetry_equiv_pos_site_id
 _symmetry_equiv_pos_as_xyz
  1  'x, y, z'
loop_
 _atom_site_type_symbol
 _atom_site_label
 _atom_site_symmetry_multiplicity
 _atom_site_fract_x
 _atom_site_fract_y
 _atom_site_fract_z
 _atom_site_occupancy
  Cs  Cs0  1  0.000000  0.000000  0.500000  1
  Cs  Cs1  1  0.000000  0.000000  0.000000  1
  Cs  Cs2  1  0.234339  0.583735  0.500000  1
  Cs  Cs3  1  0.765661  0.416265  0.500000  1
  Cs  Cs4  1  0.415716  0.236351  0.000000  1
  Cs  Cs5  1  0.584284  0.763649  0.000000  1
  Tb  Tb6  1  0.000000  0.500000  0.000000  1
  Ce  Ce7  1  0.500000  0.000000  0.500000  1
  Br  Br8  1  0.697823  0.058720  0.746456  1
  Br  Br9  1  0.302177  0.941280  0.746456  1
  Br  Br10  1  0.942889  0.691331  0.239080  1
  Br  Br11  1  0.057111  0.308669  0.239080  1
  Br  Br12  1  0.302177  0.941280  0.253544  1
  Br  Br13  1  0.697823  0.058720  0.253544  1
  Br  Br14  1  0.057111  0.308669  0.760920  1
  Br  Br15  1  0.942889  0.691331  0.760920  1
  Br  Br16  1  0.571672  0.720296  0.500000  1
  Br  Br17  1  0.428328  0.279704  0.500000  1
  Br  Br18  1  0.271108  0.569762  0.000000  1
  Br  Br19  1  0.728892  0.430238  0.000000  1
