# generated using pymatgen
data_Ca12Ag3Ru
_symmetry_space_group_name_H-M   'P 1'
_cell_length_a   6.72579705
_cell_length_b   8.01404980
_cell_length_c   9.82839900
_cell_angle_alpha   90.00000000
_cell_angle_beta   90.00000000
_cell_angle_gamma   90.79815480
_symmetry_Int_Tables_number   1
_chemical_formula_structural   Ca12Ag3Ru
_chemical_formula_sum   'Ca12 Ag3 Ru1'
_cell_volume   529.70788041
_cell_formula_units_Z   1
loop_
 _symmetry_equiv_pos_site_id
 _symmetry_equiv_pos_as_xyz
  1  'x, y, z'
loop_
 _atom_site_type_symbol
 _atom_site_label
 _atom_site_symmetry_multiplicity
 _atom_site_fract_x
 _atom_site_fract_y
 _atom_site_fract_z
 _atom_site_occupancy
  Ca  Ca0  1  0.348370  0.675876  0.050231  1
  Ca  Ca1  1  0.152915  0.172870  0.442672  1
  Ca  Ca2  1  0.654493  0.344549  0.571661  1
  Ca  Ca3  1  0.829771  0.809770  0.930542  1
  Ca  Ca4  1  0.654493  0.344549  0.928339  1
  Ca  Ca5  1  0.829771  0.809770  0.569458  1
  Ca  Ca6  1  0.348370  0.675876  0.449769  1
  Ca  Ca7  1  0.152915  0.172870  0.057328  1
  Ca  Ca8  1  0.869446  0.530800  0.250000  1
  Ca  Ca9  1  0.635939  0.036633  0.250000  1
  Ca  Ca10  1  0.154184  0.472825  0.750000  1
  Ca  Ca11  1  0.377297  0.948006  0.750000  1
  Ag  Ag12  1  0.058795  0.876947  0.250000  1
  Ag  Ag13  1  0.438248  0.381354  0.250000  1
  Ag  Ag14  1  0.951960  0.120724  0.750000  1
  Ru  Ru15  1  0.543031  0.626579  0.750000  1
