# generated using pymatgen
data_Dy5Er3In3Fe
_symmetry_space_group_name_H-M   'P 1'
_cell_length_a   10.29685800
_cell_length_b   10.29685921
_cell_length_c   7.07603200
_cell_angle_alpha   90.00000000
_cell_angle_beta   90.00000000
_cell_angle_gamma   119.99999612
_symmetry_Int_Tables_number   1
_chemical_formula_structural   Dy5Er3In3Fe
_chemical_formula_sum   'Dy10 Er6 In6 Fe2'
_cell_volume   649.72553437
_cell_formula_units_Z   2
loop_
 _symmetry_equiv_pos_site_id
 _symmetry_equiv_pos_as_xyz
  1  'x, y, z'
loop_
 _atom_site_type_symbol
 _atom_site_label
 _atom_site_symmetry_multiplicity
 _atom_site_fract_x
 _atom_site_fract_y
 _atom_site_fract_z
 _atom_site_occupancy
  Dy  Dy0  1  0.333333  0.666667  0.821131  1
  Dy  Dy1  1  0.666667  0.333333  0.321131  1
  Dy  Dy2  1  0.463294  0.536706  0.212494  1
  Dy  Dy3  1  0.073412  0.536706  0.212494  1
  Dy  Dy4  1  0.463294  0.926588  0.212494  1
  Dy  Dy5  1  0.536706  0.463294  0.712494  1
  Dy  Dy6  1  0.926588  0.463294  0.712494  1
  Dy  Dy7  1  0.536706  0.073412  0.712494  1
  Dy  Dy8  1  0.000000  0.000000  0.226413  1
  Dy  Dy9  1  0.000000  0.000000  0.726413  1
  Er  Er10  1  0.178105  0.821895  0.508224  1
  Er  Er11  1  0.643789  0.821895  0.508224  1
  Er  Er12  1  0.178105  0.356211  0.508224  1
  Er  Er13  1  0.821895  0.178105  0.008224  1
  Er  Er14  1  0.356211  0.178105  0.008224  1
  Er  Er15  1  0.821895  0.643789  0.008224  1
  In  In16  1  0.163073  0.836927  0.961966  1
  In  In17  1  0.673854  0.836927  0.961966  1
  In  In18  1  0.163073  0.326146  0.961966  1
  In  In19  1  0.836927  0.163073  0.461966  1
  In  In20  1  0.326146  0.163073  0.461966  1
  In  In21  1  0.836927  0.673854  0.461966  1
  Fe  Fe22  1  0.333333  0.666667  0.441822  1
  Fe  Fe23  1  0.666667  0.333333  0.941822  1
