# generated using pymatgen
data_RbNbTeO5
_symmetry_space_group_name_H-M   'P 1'
_cell_length_a   7.53165400
_cell_length_b   8.15829600
_cell_length_c   9.06270600
_cell_angle_alpha   90.00000000
_cell_angle_beta   90.00000000
_cell_angle_gamma   90.00000000
_symmetry_Int_Tables_number   1
_chemical_formula_structural   RbNbTeO5
_chemical_formula_sum   'Rb4 Nb4 Te4 O20'
_cell_volume   556.86216350
_cell_formula_units_Z   4
loop_
 _symmetry_equiv_pos_site_id
 _symmetry_equiv_pos_as_xyz
  1  'x, y, z'
loop_
 _atom_site_type_symbol
 _atom_site_label
 _atom_site_symmetry_multiplicity
 _atom_site_fract_x
 _atom_site_fract_y
 _atom_site_fract_z
 _atom_site_occupancy
  Rb  Rb0  1  0.978529  0.898780  0.895327  1
  Rb  Rb1  1  0.478529  0.898780  0.604673  1
  Rb  Rb2  1  0.521471  0.398780  0.395327  1
  Rb  Rb3  1  0.021471  0.398780  0.104673  1
  Nb  Nb4  1  0.283978  0.784666  0.248833  1
  Nb  Nb5  1  0.216022  0.284667  0.748833  1
  Nb  Nb6  1  0.783978  0.784666  0.251167  1
  Nb  Nb7  1  0.716022  0.284667  0.751167  1
  Te  Te8  1  0.985462  0.090092  0.464816  1
  Te  Te9  1  0.014538  0.590092  0.535184  1
  Te  Te10  1  0.514538  0.590092  0.964816  1
  Te  Te11  1  0.485462  0.090092  0.035184  1
  O  O12  1  0.946361  0.255562  0.826158  1
  O  O13  1  0.127429  0.050346  0.631708  1
  O  O14  1  0.053639  0.755562  0.173842  1
  O  O15  1  0.872571  0.550346  0.368292  1
  O  O16  1  0.268774  0.994208  0.321628  1
  O  O17  1  0.553639  0.755562  0.326158  1
  O  O18  1  0.901598  0.863675  0.451057  1
  O  O19  1  0.231226  0.494208  0.821628  1
  O  O20  1  0.446361  0.255562  0.673842  1
  O  O21  1  0.598402  0.363675  0.951057  1
  O  O22  1  0.265924  0.149669  0.932702  1
  O  O23  1  0.372571  0.550346  0.131708  1
  O  O24  1  0.734076  0.649669  0.067298  1
  O  O25  1  0.401598  0.863675  0.048943  1
  O  O26  1  0.765924  0.149669  0.567298  1
  O  O27  1  0.731226  0.494208  0.678372  1
  O  O28  1  0.627429  0.050346  0.868292  1
  O  O29  1  0.768774  0.994208  0.178372  1
  O  O30  1  0.234076  0.649669  0.432702  1
  O  O31  1  0.098402  0.363675  0.548943  1
