# generated using pymatgen
data_DyAl3Ga
_symmetry_space_group_name_H-M   'P 1'
_cell_length_a   7.90786246
_cell_length_b   7.86084030
_cell_length_c   7.86083939
_cell_angle_alpha   148.02134066
_cell_angle_beta   132.78737841
_cell_angle_gamma   58.10074323
_symmetry_Int_Tables_number   1
_chemical_formula_structural   DyAl3Ga
_chemical_formula_sum   'Dy2 Al6 Ga2'
_cell_volume   188.48091301
_cell_formula_units_Z   2
loop_
 _symmetry_equiv_pos_site_id
 _symmetry_equiv_pos_as_xyz
  1  'x, y, z'
loop_
 _atom_site_type_symbol
 _atom_site_label
 _atom_site_symmetry_multiplicity
 _atom_site_fract_x
 _atom_site_fract_y
 _atom_site_fract_z
 _atom_site_occupancy
  Dy  Dy0  1  0.635791  0.884091  0.751700  1
  Dy  Dy1  1  0.364209  0.115909  0.248300  1
  Al  Al2  1  0.000000  0.500000  0.500000  1
  Al  Al3  1  0.500000  0.500000  0.000000  1
  Al  Al4  1  0.854763  0.106682  0.748081  1
  Al  Al5  1  0.145237  0.893318  0.251919  1
  Al  Al6  1  0.148670  0.698387  0.450283  1
  Al  Al7  1  0.851330  0.301613  0.549717  1
  Ga  Ga8  1  0.275701  0.303583  0.972118  1
  Ga  Ga9  1  0.724299  0.696417  0.027882  1
