# generated using pymatgen
data_LuZr3(FeB4)4
_symmetry_space_group_name_H-M   'P 1'
_cell_length_a   3.28485500
_cell_length_b   5.79490295
_cell_length_c   11.22276607
_cell_angle_alpha   90.03940139
_cell_angle_beta   90.00000000
_cell_angle_gamma   90.00000000
_symmetry_Int_Tables_number   1
_chemical_formula_structural   LuZr3(FeB4)4
_chemical_formula_sum   'Lu1 Zr3 Fe4 B16'
_cell_volume   213.62996962
_cell_formula_units_Z   1
loop_
 _symmetry_equiv_pos_site_id
 _symmetry_equiv_pos_as_xyz
  1  'x, y, z'
loop_
 _atom_site_type_symbol
 _atom_site_label
 _atom_site_symmetry_multiplicity
 _atom_site_fract_x
 _atom_site_fract_y
 _atom_site_fract_z
 _atom_site_occupancy
  Lu  Lu0  1  0.500000  0.871129  0.350131  1
  Zr  Zr1  1  0.500000  0.372740  0.148688  1
  Zr  Zr2  1  0.500000  0.628394  0.850515  1
  Zr  Zr3  1  0.500000  0.129576  0.650330  1
  Fe  Fe4  1  0.500000  0.366218  0.411237  1
  Fe  Fe5  1  0.500000  0.632073  0.591702  1
  Fe  Fe6  1  0.500000  0.133853  0.909480  1
  Fe  Fe7  1  0.500000  0.866662  0.088294  1
  B  B8  1  0.000000  0.113494  0.046512  1
  B  B9  1  0.000000  0.886365  0.953173  1
  B  B10  1  0.000000  0.386441  0.546945  1
  B  B11  1  0.000000  0.612372  0.453845  1
  B  B12  1  0.000000  0.135694  0.468743  1
  B  B13  1  0.000000  0.864316  0.532398  1
  B  B14  1  0.000000  0.365436  0.967393  1
  B  B15  1  0.000000  0.634333  0.031911  1
  B  B16  1  0.000000  0.025482  0.191868  1
  B  B17  1  0.000000  0.974591  0.807199  1
  B  B18  1  0.000000  0.475052  0.693176  1
  B  B19  1  0.000000  0.523904  0.307440  1
  B  B20  1  0.000000  0.213913  0.313840  1
  B  B21  1  0.000000  0.787760  0.686116  1
  B  B22  1  0.000000  0.287886  0.813681  1
  B  B23  1  0.000000  0.712317  0.185386  1
