# generated using pymatgen
data_KO4
_symmetry_space_group_name_H-M   'P 1'
_cell_length_a   5.24768451
_cell_length_b   4.80492701
_cell_length_c   8.29376645
_cell_angle_alpha   90.00687723
_cell_angle_beta   125.79572946
_cell_angle_gamma   89.99704239
_symmetry_Int_Tables_number   1
_chemical_formula_structural   KO4
_chemical_formula_sum   'K2 O8'
_cell_volume   169.62297788
_cell_formula_units_Z   2
loop_
 _symmetry_equiv_pos_site_id
 _symmetry_equiv_pos_as_xyz
  1  'x, y, z'
loop_
 _atom_site_type_symbol
 _atom_site_label
 _atom_site_symmetry_multiplicity
 _atom_site_fract_x
 _atom_site_fract_y
 _atom_site_fract_z
 _atom_site_occupancy
  K  K0  1  0.999936  0.203440  0.250112  1
  K  K1  1  0.999977  0.796611  0.750066  1
  O  O2  1  0.339726  0.327411  0.012612  1
  O  O3  1  0.609636  0.690365  0.121865  1
  O  O4  1  0.390304  0.690184  0.378154  1
  O  O5  1  0.660268  0.327304  0.487233  1
  O  O6  1  0.339842  0.672627  0.512599  1
  O  O7  1  0.609737  0.309681  0.621954  1
  O  O8  1  0.390347  0.309736  0.878121  1
  O  O9  1  0.660228  0.672643  0.987289  1
