# generated using pymatgen
data_Ho3V(Co4As3)2
_symmetry_space_group_name_H-M   'P 1'
_cell_length_a   3.80688500
_cell_length_b   10.94905300
_cell_length_c   12.68281000
_cell_angle_alpha   90.00000000
_cell_angle_beta   90.00000000
_cell_angle_gamma   90.00000000
_symmetry_Int_Tables_number   1
_chemical_formula_structural   Ho3V(Co4As3)2
_chemical_formula_sum   'Ho6 V2 Co16 As12'
_cell_volume   528.64216760
_cell_formula_units_Z   2
loop_
 _symmetry_equiv_pos_site_id
 _symmetry_equiv_pos_as_xyz
  1  'x, y, z'
loop_
 _atom_site_type_symbol
 _atom_site_label
 _atom_site_symmetry_multiplicity
 _atom_site_fract_x
 _atom_site_fract_y
 _atom_site_fract_z
 _atom_site_occupancy
  Ho  Ho0  1  0.000000  0.500000  0.526840  1
  Ho  Ho1  1  0.500000  0.000000  0.473160  1
  Ho  Ho2  1  0.500000  0.819936  0.204657  1
  Ho  Ho3  1  0.500000  0.180064  0.204657  1
  Ho  Ho4  1  0.000000  0.680064  0.795343  1
  Ho  Ho5  1  0.000000  0.319936  0.795343  1
  V  V6  1  0.500000  0.500000  0.153910  1
  V  V7  1  0.000000  0.000000  0.846090  1
  Co  Co8  1  0.000000  0.500000  0.987902  1
  Co  Co9  1  0.500000  0.000000  0.012098  1
  Co  Co10  1  0.500000  0.297186  0.431422  1
  Co  Co11  1  0.500000  0.702814  0.431422  1
  Co  Co12  1  0.000000  0.202814  0.568578  1
  Co  Co13  1  0.000000  0.797186  0.568578  1
  Co  Co14  1  0.500000  0.879383  0.705836  1
  Co  Co15  1  0.500000  0.120617  0.705836  1
  Co  Co16  1  0.000000  0.620617  0.294164  1
  Co  Co17  1  0.000000  0.379383  0.294164  1
  Co  Co18  1  0.500000  0.332835  0.994781  1
  Co  Co19  1  0.500000  0.667165  0.994781  1
  Co  Co20  1  0.000000  0.167165  0.005219  1
  Co  Co21  1  0.000000  0.832835  0.005219  1
  Co  Co22  1  0.500000  0.500000  0.701364  1
  Co  Co23  1  0.000000  0.000000  0.298636  1
  As  As24  1  0.500000  0.312801  0.616426  1
  As  As25  1  0.500000  0.687199  0.616426  1
  As  As26  1  0.000000  0.187199  0.383574  1
  As  As27  1  0.000000  0.812801  0.383574  1
  As  As28  1  0.500000  0.500000  0.880635  1
  As  As29  1  0.000000  0.000000  0.119365  1
  As  As30  1  0.500000  0.844580  0.888991  1
  As  As31  1  0.500000  0.155420  0.888991  1
  As  As32  1  0.000000  0.655420  0.111009  1
  As  As33  1  0.000000  0.344580  0.111009  1
  As  As34  1  0.500000  0.500000  0.351325  1
  As  As35  1  0.000000  0.000000  0.648675  1
