# generated using pymatgen
data_Cs3(AgO2)2
_symmetry_space_group_name_H-M   'P 1'
_cell_length_a   6.21681602
_cell_length_b   6.21681604
_cell_length_c   12.37968400
_cell_angle_alpha   90.00000000
_cell_angle_beta   90.00000000
_cell_angle_gamma   114.87706789
_symmetry_Int_Tables_number   1
_chemical_formula_structural   Cs3(AgO2)2
_chemical_formula_sum   'Cs6 Ag4 O8'
_cell_volume   434.06482747
_cell_formula_units_Z   2
loop_
 _symmetry_equiv_pos_site_id
 _symmetry_equiv_pos_as_xyz
  1  'x, y, z'
loop_
 _atom_site_type_symbol
 _atom_site_label
 _atom_site_symmetry_multiplicity
 _atom_site_fract_x
 _atom_site_fract_y
 _atom_site_fract_z
 _atom_site_occupancy
  Cs  Cs0  1  0.655324  0.344676  0.571641  1
  Cs  Cs1  1  0.344676  0.655324  0.428359  1
  Cs  Cs2  1  0.655324  0.344676  0.928359  1
  Cs  Cs3  1  0.344676  0.655324  0.071641  1
  Cs  Cs4  1  0.309428  0.690572  0.750000  1
  Cs  Cs5  1  0.690572  0.309428  0.250000  1
  Ag  Ag6  1  0.000000  0.000000  0.500000  1
  Ag  Ag7  1  0.000000  0.000000  0.000000  1
  Ag  Ag8  1  0.940820  0.059180  0.750000  1
  Ag  Ag9  1  0.059180  0.940820  0.250000  1
  O  O10  1  0.855765  0.731737  0.388112  1
  O  O11  1  0.731737  0.855765  0.611888  1
  O  O12  1  0.855765  0.731737  0.111888  1
  O  O13  1  0.731737  0.855765  0.888112  1
  O  O14  1  0.144235  0.268263  0.611888  1
  O  O15  1  0.268263  0.144235  0.388112  1
  O  O16  1  0.144235  0.268263  0.888112  1
  O  O17  1  0.268263  0.144235  0.111888  1
