# generated using pymatgen
data_Dy4Y2ReB14Os
_symmetry_space_group_name_H-M   'P 1'
_cell_length_a   8.07725601
_cell_length_b   8.07725613
_cell_length_c   9.33939500
_cell_angle_alpha   90.00000000
_cell_angle_beta   90.00000000
_cell_angle_gamma   154.72169196
_symmetry_Int_Tables_number   1
_chemical_formula_structural   Dy4Y2ReB14Os
_chemical_formula_sum   'Dy4 Y2 Re1 B14 Os1'
_cell_volume   260.18972218
_cell_formula_units_Z   1
loop_
 _symmetry_equiv_pos_site_id
 _symmetry_equiv_pos_as_xyz
  1  'x, y, z'
loop_
 _atom_site_type_symbol
 _atom_site_label
 _atom_site_symmetry_multiplicity
 _atom_site_fract_x
 _atom_site_fract_y
 _atom_site_fract_z
 _atom_site_occupancy
  Dy  Dy0  1  0.894557  0.105443  0.440007  1
  Dy  Dy1  1  0.105542  0.894458  0.561023  1
  Dy  Dy2  1  0.894557  0.105443  0.059993  1
  Dy  Dy3  1  0.105542  0.894458  0.938977  1
  Y  Y4  1  0.243804  0.756196  0.250000  1
  Y  Y5  1  0.756630  0.243370  0.750000  1
  Re  Re6  1  0.947243  0.052757  0.750000  1
  B  B7  1  0.726887  0.273113  0.465262  1
  B  B8  1  0.272495  0.727505  0.533458  1
  B  B9  1  0.726887  0.273113  0.034738  1
  B  B10  1  0.272495  0.727505  0.966542  1
  B  B11  1  0.631618  0.368382  0.151124  1
  B  B12  1  0.367853  0.632147  0.849160  1
  B  B13  1  0.631618  0.368382  0.348876  1
  B  B14  1  0.367853  0.632147  0.650840  1
  B  B15  1  0.520806  0.479194  0.096303  1
  B  B16  1  0.479236  0.520764  0.904446  1
  B  B17  1  0.520806  0.479194  0.403697  1
  B  B18  1  0.479236  0.520764  0.595554  1
  B  B19  1  0.457246  0.542754  0.250000  1
  B  B20  1  0.543277  0.456723  0.750000  1
  Os  Os21  1  0.053814  0.946186  0.250000  1
