# generated using pymatgen
data_Sc4Al4Re3Ni
_symmetry_space_group_name_H-M   'P 1'
_cell_length_a   5.24968323
_cell_length_b   5.24968410
_cell_length_c   8.60152600
_cell_angle_alpha   90.00000000
_cell_angle_beta   90.00000000
_cell_angle_gamma   119.07332294
_symmetry_Int_Tables_number   1
_chemical_formula_structural   Sc4Al4Re3Ni
_chemical_formula_sum   'Sc4 Al4 Re3 Ni1'
_cell_volume   207.18222692
_cell_formula_units_Z   1
loop_
 _symmetry_equiv_pos_site_id
 _symmetry_equiv_pos_as_xyz
  1  'x, y, z'
loop_
 _atom_site_type_symbol
 _atom_site_label
 _atom_site_symmetry_multiplicity
 _atom_site_fract_x
 _atom_site_fract_y
 _atom_site_fract_z
 _atom_site_occupancy
  Sc  Sc0  1  0.333706  0.666294  0.192559  1
  Sc  Sc1  1  0.665972  0.334028  0.322554  1
  Sc  Sc2  1  0.665972  0.334028  0.677446  1
  Sc  Sc3  1  0.333706  0.666294  0.807441  1
  Al  Al4  1  0.992066  0.007934  0.244468  1
  Al  Al5  1  0.992066  0.007934  0.755532  1
  Al  Al6  1  0.837279  0.645664  0.000000  1
  Al  Al7  1  0.354336  0.162721  0.000000  1
  Re  Re8  1  0.165733  0.346642  0.500000  1
  Re  Re9  1  0.653358  0.834267  0.500000  1
  Re  Re10  1  0.166308  0.833692  0.500000  1
  Ni  Ni11  1  0.839449  0.160551  0.000000  1
