# generated using pymatgen
data_SmHo5(RuI3)2
_symmetry_space_group_name_H-M   'P 1'
_cell_length_a   4.21804800
_cell_length_b   8.91827418
_cell_length_c   12.34262601
_cell_angle_alpha   94.16946792
_cell_angle_beta   90.00000000
_cell_angle_gamma   90.00000000
_symmetry_Int_Tables_number   1
_chemical_formula_structural   SmHo5(RuI3)2
_chemical_formula_sum   'Sm1 Ho5 Ru2 I6'
_cell_volume   463.07247141
_cell_formula_units_Z   1
loop_
 _symmetry_equiv_pos_site_id
 _symmetry_equiv_pos_as_xyz
  1  'x, y, z'
loop_
 _atom_site_type_symbol
 _atom_site_label
 _atom_site_symmetry_multiplicity
 _atom_site_fract_x
 _atom_site_fract_y
 _atom_site_fract_z
 _atom_site_occupancy
  Sm  Sm0  1  0.750000  0.268844  0.602855  1
  Ho  Ho1  1  0.250000  0.739878  0.397379  1
  Ho  Ho2  1  0.750000  0.873210  0.624672  1
  Ho  Ho3  1  0.250000  0.126569  0.373450  1
  Ho  Ho4  1  0.750000  0.896081  0.186928  1
  Ho  Ho5  1  0.250000  0.099232  0.814063  1
  Ru  Ru6  1  0.750000  0.944214  0.406900  1
  Ru  Ru7  1  0.250000  0.055492  0.592407  1
  I  I8  1  0.750000  0.424627  0.364379  1
  I  I9  1  0.250000  0.581054  0.633641  1
  I  I10  1  0.750000  0.861244  0.890137  1
  I  I11  1  0.250000  0.133776  0.109256  1
  I  I12  1  0.750000  0.350747  0.867480  1
  I  I13  1  0.250000  0.645032  0.136454  1
