# generated using pymatgen
data_CaErNp2F12
_symmetry_space_group_name_H-M   'P 1'
_cell_length_a   4.40497600
_cell_length_b   6.51278818
_cell_length_c   6.93071900
_cell_angle_alpha   90.00000000
_cell_angle_beta   90.00000000
_cell_angle_gamma   90.25436085
_symmetry_Int_Tables_number   1
_chemical_formula_structural   CaErNp2F12
_chemical_formula_sum   'Ca1 Er1 Np2 F12'
_cell_volume   198.83118985
_cell_formula_units_Z   1
loop_
 _symmetry_equiv_pos_site_id
 _symmetry_equiv_pos_as_xyz
  1  'x, y, z'
loop_
 _atom_site_type_symbol
 _atom_site_label
 _atom_site_symmetry_multiplicity
 _atom_site_fract_x
 _atom_site_fract_y
 _atom_site_fract_z
 _atom_site_occupancy
  Ca  Ca0  1  0.946179  0.630032  0.750000  1
  Er  Er1  1  0.060801  0.371867  0.250000  1
  Np  Np2  1  0.446935  0.861284  0.250000  1
  Np  Np3  1  0.559037  0.140380  0.750000  1
  F  F4  1  0.082714  0.986546  0.750000  1
  F  F5  1  0.579606  0.507919  0.250000  1
  F  F6  1  0.422585  0.474100  0.750000  1
  F  F7  1  0.918954  0.030986  0.250000  1
  F  F8  1  0.380750  0.170491  0.069267  1
  F  F9  1  0.890966  0.328560  0.945678  1
  F  F10  1  0.107070  0.661549  0.428995  1
  F  F11  1  0.612807  0.837843  0.563751  1
  F  F12  1  0.612807  0.837843  0.936249  1
  F  F13  1  0.107070  0.661549  0.071005  1
  F  F14  1  0.890966  0.328560  0.554322  1
  F  F15  1  0.380750  0.170491  0.430733  1
