# generated using pymatgen
data_Pr16Hg4Ir3Pt
_symmetry_space_group_name_H-M   'P 1'
_cell_length_a   10.01715833
_cell_length_b   10.01715791
_cell_length_c   10.01715910
_cell_angle_alpha   60.20390033
_cell_angle_beta   60.20390290
_cell_angle_gamma   60.20390036
_symmetry_Int_Tables_number   1
_chemical_formula_structural   Pr16Hg4Ir3Pt
_chemical_formula_sum   'Pr16 Hg4 Ir3 Pt1'
_cell_volume   714.03441140
_cell_formula_units_Z   1
loop_
 _symmetry_equiv_pos_site_id
 _symmetry_equiv_pos_as_xyz
  1  'x, y, z'
loop_
 _atom_site_type_symbol
 _atom_site_label
 _atom_site_symmetry_multiplicity
 _atom_site_fract_x
 _atom_site_fract_y
 _atom_site_fract_z
 _atom_site_occupancy
  Pr  Pr0  1  0.347904  0.347904  0.347904  1
  Pr  Pr1  1  0.352830  0.352830  0.946778  1
  Pr  Pr2  1  0.352830  0.946778  0.352830  1
  Pr  Pr3  1  0.946778  0.352830  0.352830  1
  Pr  Pr4  1  0.805224  0.190986  0.190986  1
  Pr  Pr5  1  0.189472  0.808913  0.808913  1
  Pr  Pr6  1  0.190986  0.805224  0.190986  1
  Pr  Pr7  1  0.808913  0.189472  0.808913  1
  Pr  Pr8  1  0.190986  0.190986  0.805224  1
  Pr  Pr9  1  0.808913  0.808913  0.189472  1
  Pr  Pr10  1  0.940693  0.561598  0.561598  1
  Pr  Pr11  1  0.561641  0.939333  0.939333  1
  Pr  Pr12  1  0.561598  0.940693  0.561598  1
  Pr  Pr13  1  0.939333  0.561641  0.939333  1
  Pr  Pr14  1  0.561598  0.561598  0.940693  1
  Pr  Pr15  1  0.939333  0.939333  0.561641  1
  Hg  Hg16  1  0.584049  0.584049  0.584049  1
  Hg  Hg17  1  0.584050  0.584050  0.248253  1
  Hg  Hg18  1  0.584050  0.248253  0.584050  1
  Hg  Hg19  1  0.248253  0.584050  0.584050  1
  Ir  Ir20  1  0.142160  0.142160  0.573577  1
  Ir  Ir21  1  0.142160  0.573577  0.142160  1
  Ir  Ir22  1  0.573577  0.142160  0.142160  1
  Pt  Pt23  1  0.142670  0.142670  0.142670  1
