# generated using pymatgen
data_Th4NiRu2Rh
_symmetry_space_group_name_H-M   'P 1'
_cell_length_a   4.09353400
_cell_length_b   6.04512656
_cell_length_c   14.80750739
_cell_angle_alpha   90.04943430
_cell_angle_beta   90.00000000
_cell_angle_gamma   90.00000000
_symmetry_Int_Tables_number   1
_chemical_formula_structural   Th4NiRu2Rh
_chemical_formula_sum   'Th8 Ni2 Ru4 Rh2'
_cell_volume   366.42542122
_cell_formula_units_Z   2
loop_
 _symmetry_equiv_pos_site_id
 _symmetry_equiv_pos_as_xyz
  1  'x, y, z'
loop_
 _atom_site_type_symbol
 _atom_site_label
 _atom_site_symmetry_multiplicity
 _atom_site_fract_x
 _atom_site_fract_y
 _atom_site_fract_z
 _atom_site_occupancy
  Th  Th0  1  0.250000  0.546710  0.285801  1
  Th  Th1  1  0.750000  0.450440  0.716283  1
  Th  Th2  1  0.250000  0.951080  0.784979  1
  Th  Th3  1  0.250000  0.759382  0.538187  1
  Th  Th4  1  0.250000  0.744963  0.031703  1
  Th  Th5  1  0.750000  0.254920  0.962445  1
  Th  Th6  1  0.750000  0.049134  0.215747  1
  Th  Th7  1  0.750000  0.240789  0.464280  1
  Ni  Ni8  1  0.250000  0.233873  0.100822  1
  Ni  Ni9  1  0.250000  0.266530  0.601039  1
  Ru  Ru10  1  0.250000  0.069374  0.347867  1
  Ru  Ru11  1  0.250000  0.435665  0.848376  1
  Ru  Ru12  1  0.750000  0.945405  0.646322  1
  Ru  Ru13  1  0.750000  0.784120  0.904843  1
  Rh  Rh14  1  0.750000  0.547501  0.148045  1
  Rh  Rh15  1  0.750000  0.720114  0.403258  1
