# generated using pymatgen
data_Nd10OsRh5
_symmetry_space_group_name_H-M   'P 1'
_cell_length_a   11.27369000
_cell_length_b   11.27369000
_cell_length_c   6.59458200
_cell_angle_alpha   90.00000000
_cell_angle_beta   90.00000000
_cell_angle_gamma   90.00000000
_symmetry_Int_Tables_number   1
_chemical_formula_structural   Nd10OsRh5
_chemical_formula_sum   'Nd20 Os2 Rh10'
_cell_volume   838.14556243
_cell_formula_units_Z   2
loop_
 _symmetry_equiv_pos_site_id
 _symmetry_equiv_pos_as_xyz
  1  'x, y, z'
loop_
 _atom_site_type_symbol
 _atom_site_label
 _atom_site_symmetry_multiplicity
 _atom_site_fract_x
 _atom_site_fract_y
 _atom_site_fract_z
 _atom_site_occupancy
  Nd  Nd0  1  0.088951  0.292908  0.119694  1
  Nd  Nd1  1  0.792908  0.411049  0.119694  1
  Nd  Nd2  1  0.207092  0.588951  0.119694  1
  Nd  Nd3  1  0.911049  0.707092  0.119694  1
  Nd  Nd4  1  0.411049  0.792908  0.380306  1
  Nd  Nd5  1  0.588951  0.207092  0.380306  1
  Nd  Nd6  1  0.292908  0.088951  0.380306  1
  Nd  Nd7  1  0.707092  0.911049  0.380306  1
  Nd  Nd8  1  0.410714  0.207284  0.885281  1
  Nd  Nd9  1  0.707284  0.089286  0.885281  1
  Nd  Nd10  1  0.292716  0.910714  0.885281  1
  Nd  Nd11  1  0.589286  0.792716  0.885281  1
  Nd  Nd12  1  0.089286  0.707284  0.614719  1
  Nd  Nd13  1  0.910714  0.292716  0.614719  1
  Nd  Nd14  1  0.207284  0.410714  0.614719  1
  Nd  Nd15  1  0.792716  0.589286  0.614719  1
  Nd  Nd16  1  0.000000  0.000000  0.999513  1
  Nd  Nd17  1  0.500000  0.500000  0.999513  1
  Nd  Nd18  1  0.500000  0.500000  0.500487  1
  Nd  Nd19  1  0.000000  0.000000  0.500487  1
  Os  Os20  1  0.000000  0.500000  0.377387  1
  Os  Os21  1  0.500000  0.000000  0.122613  1
  Rh  Rh22  1  0.153351  0.846649  0.250000  1
  Rh  Rh23  1  0.346649  0.346649  0.250000  1
  Rh  Rh24  1  0.653351  0.653351  0.250000  1
  Rh  Rh25  1  0.846649  0.153351  0.250000  1
  Rh  Rh26  1  0.347102  0.652898  0.750000  1
  Rh  Rh27  1  0.152898  0.152898  0.750000  1
  Rh  Rh28  1  0.847102  0.847102  0.750000  1
  Rh  Rh29  1  0.652898  0.347102  0.750000  1
  Rh  Rh30  1  0.500000  0.000000  0.621272  1
  Rh  Rh31  1  0.000000  0.500000  0.878728  1
