# generated using pymatgen
data_Tb3Ho5Hf9Si16W3
_symmetry_space_group_name_H-M   'P 1'
_cell_length_a   7.18496382
_cell_length_b   7.18443685
_cell_length_c   13.15302129
_cell_angle_alpha   90.09058316
_cell_angle_beta   90.11040003
_cell_angle_gamma   90.09636792
_symmetry_Int_Tables_number   1
_chemical_formula_structural   Tb3Ho5Hf9Si16W3
_chemical_formula_sum   'Tb3 Ho5 Hf9 Si16 W3'
_cell_volume   678.95481852
_cell_formula_units_Z   1
loop_
 _symmetry_equiv_pos_site_id
 _symmetry_equiv_pos_as_xyz
  1  'x, y, z'
loop_
 _atom_site_type_symbol
 _atom_site_label
 _atom_site_symmetry_multiplicity
 _atom_site_fract_x
 _atom_site_fract_y
 _atom_site_fract_z
 _atom_site_occupancy
  Tb  Tb0  1  0.497680  0.154126  0.532154  1
  Tb  Tb1  1  0.343356  0.996024  0.785267  1
  Tb  Tb2  1  0.655907  0.001124  0.284337  1
  Ho  Ho3  1  0.999481  0.344650  0.215223  1
  Ho  Ho4  1  0.003207  0.656126  0.714708  1
  Ho  Ho5  1  0.154431  0.500125  0.463890  1
  Ho  Ho6  1  0.499921  0.845355  0.036013  1
  Ho  Ho7  1  0.846525  0.501743  0.967755  1
  Hf  Hf8  1  0.675631  0.325040  0.750154  1
  Hf  Hf9  1  0.146656  0.993082  0.373366  1
  Hf  Hf10  1  0.854798  0.004244  0.876654  1
  Hf  Hf11  1  0.505694  0.649185  0.621319  1
  Hf  Hf12  1  0.350855  0.494724  0.878797  1
  Hf  Hf13  1  0.493141  0.352726  0.125431  1
  Hf  Hf14  1  0.647641  0.506794  0.374329  1
  Hf  Hf15  1  0.995746  0.145184  0.623441  1
  Hf  Hf16  1  0.006569  0.853253  0.126401  1
  Si  Si17  1  0.359388  0.298797  0.316709  1
  Si  Si18  1  0.639314  0.704528  0.817673  1
  Si  Si19  1  0.202343  0.860040  0.565773  1
  Si  Si20  1  0.138838  0.796312  0.934437  1
  Si  Si21  1  0.797843  0.139438  0.067323  1
  Si  Si22  1  0.862129  0.203170  0.432794  1
  Si  Si23  1  0.294254  0.362547  0.682666  1
  Si  Si24  1  0.702078  0.639307  0.182780  1
  Si  Si25  1  0.295999  0.050575  0.183751  1
  Si  Si26  1  0.705268  0.947000  0.682109  1
  Si  Si27  1  0.448478  0.794961  0.432225  1
  Si  Si28  1  0.203624  0.550656  0.067867  1
  Si  Si29  1  0.547570  0.202435  0.936390  1
  Si  Si30  1  0.798474  0.453494  0.563910  1
  Si  Si31  1  0.051841  0.296343  0.818104  1
  Si  Si32  1  0.950083  0.702832  0.315946  1
  W  W33  1  0.176527  0.175538  0.001736  1
  W  W34  1  0.825124  0.822800  0.498626  1
  W  W35  1  0.323586  0.675726  0.249942  1
