# generated using pymatgen
data_Tm5Lu7Fe3Hg2
_symmetry_space_group_name_H-M   'P 1'
_cell_length_a   8.15797141
_cell_length_b   8.15537771
_cell_length_c   8.15797085
_cell_angle_alpha   108.42688579
_cell_angle_beta   108.44375161
_cell_angle_gamma   111.57689656
_symmetry_Int_Tables_number   1
_chemical_formula_structural   Tm5Lu7Fe3Hg2
_chemical_formula_sum   'Tm5 Lu7 Fe3 Hg2'
_cell_volume   417.32606168
_cell_formula_units_Z   1
loop_
 _symmetry_equiv_pos_site_id
 _symmetry_equiv_pos_as_xyz
  1  'x, y, z'
loop_
 _atom_site_type_symbol
 _atom_site_label
 _atom_site_symmetry_multiplicity
 _atom_site_fract_x
 _atom_site_fract_y
 _atom_site_fract_z
 _atom_site_occupancy
  Tm  Tm0  1  0.308197  0.308049  0.616385  1
  Tm  Tm1  1  0.692125  0.691979  0.383777  1
  Tm  Tm2  1  0.691663  0.308049  0.999852  1
  Tm  Tm3  1  0.308204  0.691979  0.999855  1
  Tm  Tm4  1  0.188544  0.426742  0.238198  1
  Lu  Lu5  1  0.811602  0.573666  0.762064  1
  Lu  Lu6  1  0.188391  0.950418  0.762028  1
  Lu  Lu7  1  0.950152  0.188180  0.761662  1
  Lu  Lu8  1  0.811399  0.049379  0.237980  1
  Lu  Lu9  1  0.049582  0.811794  0.237983  1
  Lu  Lu10  1  0.426518  0.188180  0.238027  1
  Lu  Lu11  1  0.573811  0.811794  0.762214  1
  Fe  Fe12  1  0.381743  0.381666  0.999923  1
  Fe  Fe13  1  0.618380  0.618373  0.999993  1
  Fe  Fe14  1  0.999869  0.999722  0.999853  1
  Hg  Hg15  1  0.999819  0.500023  0.500204  1
  Hg  Hg16  1  0.500001  0.000004  0.500003  1
