# generated using pymatgen
data_Tb2Mn2Fe9P7W
_symmetry_space_group_name_H-M   'P 1'
_cell_length_a   9.13118823
_cell_length_b   9.05989921
_cell_length_c   3.64189300
_cell_angle_alpha   90.00000000
_cell_angle_beta   90.00000000
_cell_angle_gamma   119.72517365
_symmetry_Int_Tables_number   1
_chemical_formula_structural   Tb2Mn2Fe9P7W
_chemical_formula_sum   'Tb2 Mn2 Fe9 P7 W1'
_cell_volume   261.64023583
_cell_formula_units_Z   1
loop_
 _symmetry_equiv_pos_site_id
 _symmetry_equiv_pos_as_xyz
  1  'x, y, z'
loop_
 _atom_site_type_symbol
 _atom_site_label
 _atom_site_symmetry_multiplicity
 _atom_site_fract_x
 _atom_site_fract_y
 _atom_site_fract_z
 _atom_site_occupancy
  Tb  Tb0  1  0.662120  0.330525  0.000000  1
  Tb  Tb1  1  0.335450  0.667777  0.500000  1
  Mn  Mn2  1  0.781507  0.896512  0.500000  1
  Mn  Mn3  1  0.119107  0.220995  0.500000  1
  Fe  Fe4  1  0.052566  0.623611  0.000000  1
  Fe  Fe5  1  0.576997  0.943578  0.000000  1
  Fe  Fe6  1  0.368015  0.424227  0.000000  1
  Fe  Fe7  1  0.271995  0.120883  0.000000  1
  Fe  Fe8  1  0.841562  0.726668  0.000000  1
  Fe  Fe9  1  0.880157  0.155563  0.000000  1
  Fe  Fe10  1  0.437667  0.053040  0.500000  1
  Fe  Fe11  1  0.612319  0.564848  0.500000  1
  Fe  Fe12  1  0.954249  0.389085  0.500000  1
  P  P13  1  0.312878  0.896130  0.000000  1
  P  P14  1  0.585634  0.696009  0.000000  1
  P  P15  1  0.114358  0.408917  0.000000  1
  P  P16  1  0.406683  0.291219  0.500000  1
  P  P17  1  0.872652  0.589245  0.500000  1
  P  P18  1  0.711594  0.115991  0.500000  1
  P  P19  1  0.997511  0.002092  0.000000  1
  W  W20  1  0.104978  0.883086  0.500000  1
