# generated using pymatgen
data_Dy5Ho3(Si3Pt)4
_symmetry_space_group_name_H-M   'P 1'
_cell_length_a   8.18479200
_cell_length_b   8.18479268
_cell_length_c   7.92734800
_cell_angle_alpha   90.00000000
_cell_angle_beta   90.00000000
_cell_angle_gamma   120.00000535
_symmetry_Int_Tables_number   1
_chemical_formula_structural   Dy5Ho3(Si3Pt)4
_chemical_formula_sum   'Dy5 Ho3 Si12 Pt4'
_cell_volume   459.91106888
_cell_formula_units_Z   1
loop_
 _symmetry_equiv_pos_site_id
 _symmetry_equiv_pos_as_xyz
  1  'x, y, z'
loop_
 _atom_site_type_symbol
 _atom_site_label
 _atom_site_symmetry_multiplicity
 _atom_site_fract_x
 _atom_site_fract_y
 _atom_site_fract_z
 _atom_site_occupancy
  Dy  Dy0  1  0.000000  0.000000  0.250000  1
  Dy  Dy1  1  0.000000  0.000000  0.750000  1
  Dy  Dy2  1  0.510020  0.489980  0.250000  1
  Dy  Dy3  1  0.510020  0.020039  0.250000  1
  Dy  Dy4  1  0.979961  0.489980  0.250000  1
  Ho  Ho5  1  0.489895  0.510105  0.750000  1
  Ho  Ho6  1  0.489895  0.979789  0.750000  1
  Ho  Ho7  1  0.020211  0.510105  0.750000  1
  Si  Si8  1  0.165271  0.834729  0.499072  1
  Si  Si9  1  0.165271  0.330540  0.499072  1
  Si  Si10  1  0.669460  0.834729  0.499072  1
  Si  Si11  1  0.834712  0.165288  0.501518  1
  Si  Si12  1  0.834712  0.669427  0.501518  1
  Si  Si13  1  0.330573  0.165288  0.501518  1
  Si  Si14  1  0.834712  0.165288  0.998482  1
  Si  Si15  1  0.834712  0.669427  0.998482  1
  Si  Si16  1  0.330573  0.165288  0.998482  1
  Si  Si17  1  0.165271  0.834729  0.000928  1
  Si  Si18  1  0.165271  0.330540  0.000928  1
  Si  Si19  1  0.669460  0.834729  0.000928  1
  Pt  Pt20  1  0.333333  0.666667  0.466584  1
  Pt  Pt21  1  0.666667  0.333333  0.536151  1
  Pt  Pt22  1  0.666667  0.333333  0.963849  1
  Pt  Pt23  1  0.333333  0.666667  0.033416  1
