# generated using pymatgen
data_Tb8Re9Si16Mo3
_symmetry_space_group_name_H-M   'P 1'
_cell_length_a   6.78944012
_cell_length_b   6.78943995
_cell_length_c   12.95751000
_cell_angle_alpha   90.04390345
_cell_angle_beta   90.04389948
_cell_angle_gamma   89.95980677
_symmetry_Int_Tables_number   1
_chemical_formula_structural   Tb8Re9Si16Mo3
_chemical_formula_sum   'Tb8 Re9 Si16 Mo3'
_cell_volume   597.29531014
_cell_formula_units_Z   1
loop_
 _symmetry_equiv_pos_site_id
 _symmetry_equiv_pos_as_xyz
  1  'x, y, z'
loop_
 _atom_site_type_symbol
 _atom_site_label
 _atom_site_symmetry_multiplicity
 _atom_site_fract_x
 _atom_site_fract_y
 _atom_site_fract_z
 _atom_site_occupancy
  Tb  Tb0  1  0.010726  0.668454  0.030619  1
  Tb  Tb1  1  0.988416  0.331765  0.531411  1
  Tb  Tb2  1  0.331546  0.989274  0.469381  1
  Tb  Tb3  1  0.164930  0.490852  0.779966  1
  Tb  Tb4  1  0.833863  0.507575  0.279948  1
  Tb  Tb5  1  0.492425  0.166137  0.220052  1
  Tb  Tb6  1  0.509148  0.835070  0.720034  1
  Tb  Tb7  1  0.668235  0.011584  0.968589  1
  Re  Re8  1  0.007018  0.808998  0.630701  1
  Re  Re9  1  0.993689  0.187982  0.129330  1
  Re  Re10  1  0.812018  0.006311  0.370670  1
  Re  Re11  1  0.309822  0.487628  0.381717  1
  Re  Re12  1  0.690581  0.516072  0.881883  1
  Re  Re13  1  0.483928  0.309419  0.618117  1
  Re  Re14  1  0.512372  0.690178  0.118283  1
  Re  Re15  1  0.191002  0.992982  0.869299  1
  Re  Re16  1  0.838572  0.161428  0.750000  1
  Si  Si17  1  0.017069  0.719047  0.439650  1
  Si  Si18  1  0.611848  0.299487  0.432871  1
  Si  Si19  1  0.388477  0.700480  0.932355  1
  Si  Si20  1  0.194767  0.108609  0.683265  1
  Si  Si21  1  0.299520  0.611523  0.567645  1
  Si  Si22  1  0.700513  0.388152  0.067129  1
  Si  Si23  1  0.802601  0.888784  0.183165  1
  Si  Si24  1  0.111216  0.197399  0.316835  1
  Si  Si25  1  0.982863  0.279871  0.938456  1
  Si  Si26  1  0.720129  0.017137  0.561544  1
  Si  Si27  1  0.225636  0.483224  0.189642  1
  Si  Si28  1  0.770650  0.512904  0.690968  1
  Si  Si29  1  0.487096  0.229350  0.809032  1
  Si  Si30  1  0.516776  0.774364  0.310358  1
  Si  Si31  1  0.280953  0.982931  0.060350  1
  Si  Si32  1  0.891391  0.805233  0.816735  1
  Mo  Mo33  1  0.659347  0.660232  0.499920  1
  Mo  Mo34  1  0.161092  0.838908  0.250000  1
  Mo  Mo35  1  0.339768  0.340653  0.000080  1
