# generated using pymatgen
data_Er4TmRe2BC6
_symmetry_space_group_name_H-M   'P 1'
_cell_length_a   8.25354956
_cell_length_b   8.25354874
_cell_length_c   3.38464500
_cell_angle_alpha   90.00000000
_cell_angle_beta   90.00000000
_cell_angle_gamma   122.13320642
_symmetry_Int_Tables_number   1
_chemical_formula_structural   Er4TmRe2BC6
_chemical_formula_sum   'Er4 Tm1 Re2 B1 C6'
_cell_volume   195.24617535
_cell_formula_units_Z   1
loop_
 _symmetry_equiv_pos_site_id
 _symmetry_equiv_pos_as_xyz
  1  'x, y, z'
loop_
 _atom_site_type_symbol
 _atom_site_label
 _atom_site_symmetry_multiplicity
 _atom_site_fract_x
 _atom_site_fract_y
 _atom_site_fract_z
 _atom_site_occupancy
  Er  Er0  1  0.078773  0.330310  0.500000  1
  Er  Er1  1  0.921227  0.669690  0.500000  1
  Er  Er2  1  0.669690  0.921227  0.500000  1
  Er  Er3  1  0.330310  0.078773  0.500000  1
  Tm  Tm4  1  0.500000  0.500000  0.000000  1
  Re  Re5  1  0.714626  0.285374  0.000000  1
  Re  Re6  1  0.285374  0.714626  0.000000  1
  B  B7  1  0.000000  0.000000  0.000000  1
  C  C8  1  0.625896  0.374104  0.500000  1
  C  C9  1  0.374104  0.625896  0.500000  1
  C  C10  1  0.183768  0.183768  0.000000  1
  C  C11  1  0.816232  0.816232  0.000000  1
  C  C12  1  0.000000  0.500000  0.000000  1
  C  C13  1  0.500000  0.000000  0.000000  1
