# generated using pymatgen
data_Yb7Ho(Si4W3)4
_symmetry_space_group_name_H-M   'P 1'
_cell_length_a   6.72204847
_cell_length_b   6.90951884
_cell_length_c   13.03035783
_cell_angle_alpha   89.92665366
_cell_angle_beta   90.01999728
_cell_angle_gamma   89.92692968
_symmetry_Int_Tables_number   1
_chemical_formula_structural   Yb7Ho(Si4W3)4
_chemical_formula_sum   'Yb7 Ho1 Si16 W12'
_cell_volume   605.20854533
_cell_formula_units_Z   1
loop_
 _symmetry_equiv_pos_site_id
 _symmetry_equiv_pos_as_xyz
  1  'x, y, z'
loop_
 _atom_site_type_symbol
 _atom_site_label
 _atom_site_symmetry_multiplicity
 _atom_site_fract_x
 _atom_site_fract_y
 _atom_site_fract_z
 _atom_site_occupancy
  Yb  Yb0  1  0.497650  0.332982  0.090210  1
  Yb  Yb1  1  0.997711  0.167288  0.409640  1
  Yb  Yb2  1  0.502139  0.667332  0.590637  1
  Yb  Yb3  1  0.002084  0.830752  0.907898  1
  Yb  Yb4  1  0.502149  0.667529  0.908949  1
  Yb  Yb5  1  0.002206  0.832398  0.590578  1
  Yb  Yb6  1  0.497714  0.333048  0.409920  1
  Ho  Ho7  1  0.998240  0.169711  0.092730  1
  Si  Si8  1  0.801125  0.635071  0.749743  1
  Si  Si9  1  0.301720  0.864377  0.749864  1
  Si  Si10  1  0.199548  0.365412  0.251152  1
  Si  Si11  1  0.696141  0.136017  0.251101  1
  Si  Si12  1  0.537551  0.378556  0.750140  1
  Si  Si13  1  0.037504  0.120698  0.749663  1
  Si  Si14  1  0.462614  0.622777  0.249352  1
  Si  Si15  1  0.962257  0.876871  0.250566  1
  Si  Si16  1  0.661607  0.042414  0.544733  1
  Si  Si17  1  0.162330  0.458561  0.955375  1
  Si  Si18  1  0.338293  0.957166  0.044347  1
  Si  Si19  1  0.838281  0.542549  0.455411  1
  Si  Si20  1  0.338455  0.957411  0.455514  1
  Si  Si21  1  0.837517  0.543612  0.044036  1
  Si  Si22  1  0.662676  0.041321  0.955109  1
  Si  Si23  1  0.161745  0.457755  0.544721  1
  W  W24  1  0.661847  0.010903  0.750196  1
  W  W25  1  0.161919  0.488692  0.750256  1
  W  W26  1  0.336911  0.990113  0.249623  1
  W  W27  1  0.837355  0.508925  0.249077  1
  W  W28  1  0.837217  0.332160  0.627505  1
  W  W29  1  0.336173  0.167386  0.873036  1
  W  W30  1  0.162759  0.667183  0.126512  1
  W  W31  1  0.663054  0.832328  0.372487  1
  W  W32  1  0.163232  0.667769  0.372299  1
  W  W33  1  0.665086  0.834261  0.126793  1
  W  W34  1  0.838054  0.331217  0.873423  1
  W  W35  1  0.337139  0.167453  0.627405  1
