# generated using pymatgen
data_La2SmNbO7
_symmetry_space_group_name_H-M   'P 1'
_cell_length_a   6.72237022
_cell_length_b   6.72237134
_cell_length_c   7.80808200
_cell_angle_alpha   90.00000000
_cell_angle_beta   90.00000000
_cell_angle_gamma   108.90362448
_symmetry_Int_Tables_number   1
_chemical_formula_structural   La2SmNbO7
_chemical_formula_sum   'La4 Sm2 Nb2 O14'
_cell_volume   333.81834966
_cell_formula_units_Z   2
loop_
 _symmetry_equiv_pos_site_id
 _symmetry_equiv_pos_as_xyz
  1  'x, y, z'
loop_
 _atom_site_type_symbol
 _atom_site_label
 _atom_site_symmetry_multiplicity
 _atom_site_fract_x
 _atom_site_fract_y
 _atom_site_fract_z
 _atom_site_occupancy
  La  La0  1  0.473062  0.473062  0.500000  1
  La  La1  1  0.473062  0.473062  0.000000  1
  La  La2  1  0.531521  0.994869  0.750000  1
  La  La3  1  0.994869  0.531521  0.250000  1
  Sm  Sm4  1  0.462437  0.997180  0.250000  1
  Sm  Sm5  1  0.997180  0.462437  0.750000  1
  Nb  Nb6  1  0.996724  0.996724  0.500000  1
  Nb  Nb7  1  0.996724  0.996724  0.000000  1
  O  O8  1  0.697821  0.947637  0.459754  1
  O  O9  1  0.947637  0.697821  0.540246  1
  O  O10  1  0.697821  0.947637  0.040246  1
  O  O11  1  0.947637  0.697821  0.959754  1
  O  O12  1  0.322565  0.076243  0.521039  1
  O  O13  1  0.076243  0.322565  0.478961  1
  O  O14  1  0.322565  0.076243  0.978961  1
  O  O15  1  0.076243  0.322565  0.021039  1
  O  O16  1  0.942810  0.060629  0.750000  1
  O  O17  1  0.060629  0.942810  0.250000  1
  O  O18  1  0.361868  0.623115  0.750000  1
  O  O19  1  0.623115  0.361868  0.250000  1
  O  O20  1  0.637460  0.360009  0.750000  1
  O  O21  1  0.360009  0.637460  0.250000  1
