# generated using pymatgen
data_Ba3LiGaAg10
_symmetry_space_group_name_H-M   'P 1'
_cell_length_a   9.99685100
_cell_length_b   9.99685082
_cell_length_c   8.51049000
_cell_angle_alpha   90.00000000
_cell_angle_beta   90.00000000
_cell_angle_gamma   119.99999730
_symmetry_Int_Tables_number   1
_chemical_formula_structural   Ba3LiGaAg10
_chemical_formula_sum   'Ba6 Li2 Ga2 Ag20'
_cell_volume   736.56595190
_cell_formula_units_Z   2
loop_
 _symmetry_equiv_pos_site_id
 _symmetry_equiv_pos_as_xyz
  1  'x, y, z'
loop_
 _atom_site_type_symbol
 _atom_site_label
 _atom_site_symmetry_multiplicity
 _atom_site_fract_x
 _atom_site_fract_y
 _atom_site_fract_z
 _atom_site_occupancy
  Ba  Ba0  1  0.523721  0.047442  0.249790  1
  Ba  Ba1  1  0.476279  0.952558  0.750210  1
  Ba  Ba2  1  0.952558  0.476279  0.249790  1
  Ba  Ba3  1  0.047442  0.523721  0.750210  1
  Ba  Ba4  1  0.523721  0.476279  0.249790  1
  Ba  Ba5  1  0.476279  0.523721  0.750210  1
  Li  Li6  1  0.000000  0.000000  0.000000  1
  Li  Li7  1  0.000000  0.000000  0.500000  1
  Ga  Ga8  1  0.666667  0.333333  0.581710  1
  Ga  Ga9  1  0.333333  0.666667  0.418290  1
  Ag  Ag10  1  0.164161  0.328323  0.062285  1
  Ag  Ag11  1  0.835839  0.671677  0.937715  1
  Ag  Ag12  1  0.671677  0.835839  0.062285  1
  Ag  Ag13  1  0.829129  0.658256  0.563122  1
  Ag  Ag14  1  0.328323  0.164161  0.937715  1
  Ag  Ag15  1  0.170871  0.341744  0.436878  1
  Ag  Ag16  1  0.164161  0.835839  0.062285  1
  Ag  Ag17  1  0.341744  0.170871  0.563122  1
  Ag  Ag18  1  0.835839  0.164161  0.937715  1
  Ag  Ag19  1  0.658256  0.829129  0.436878  1
  Ag  Ag20  1  0.829129  0.170871  0.563122  1
  Ag  Ag21  1  0.170871  0.829129  0.436878  1
  Ag  Ag22  1  0.900292  0.800584  0.254100  1
  Ag  Ag23  1  0.099708  0.199416  0.745900  1
  Ag  Ag24  1  0.199416  0.099708  0.254100  1
  Ag  Ag25  1  0.800584  0.900292  0.745900  1
  Ag  Ag26  1  0.900292  0.099708  0.254100  1
  Ag  Ag27  1  0.099708  0.900292  0.745900  1
  Ag  Ag28  1  0.333333  0.666667  0.086843  1
  Ag  Ag29  1  0.666667  0.333333  0.913157  1
