# generated using pymatgen
data_Tb2ErSi3P3Pd20
_symmetry_space_group_name_H-M   'P 1'
_cell_length_a   8.69243882
_cell_length_b   8.69726723
_cell_length_c   8.69726800
_cell_angle_alpha   59.99999707
_cell_angle_beta   59.98162049
_cell_angle_gamma   59.98162284
_symmetry_Int_Tables_number   1
_chemical_formula_structural   Tb2ErSi3P3Pd20
_chemical_formula_sum   'Tb2 Er1 Si3 P3 Pd20'
_cell_volume   464.80587037
_cell_formula_units_Z   1
loop_
 _symmetry_equiv_pos_site_id
 _symmetry_equiv_pos_as_xyz
  1  'x, y, z'
loop_
 _atom_site_type_symbol
 _atom_site_label
 _atom_site_symmetry_multiplicity
 _atom_site_fract_x
 _atom_site_fract_y
 _atom_site_fract_z
 _atom_site_occupancy
  Tb  Tb0  1  0.752295  0.749235  0.749235  1
  Tb  Tb1  1  0.251852  0.249383  0.249383  1
  Er  Er2  1  0.997711  0.000763  0.000763  1
  Si  Si3  1  0.735358  0.266233  0.266233  1
  Si  Si4  1  0.735358  0.732177  0.266233  1
  Si  Si5  1  0.735358  0.266233  0.732177  1
  P  P6  1  0.266262  0.735490  0.262759  1
  P  P7  1  0.266262  0.735490  0.735490  1
  P  P8  1  0.266262  0.262759  0.735490  1
  Pd  Pd9  1  0.344070  0.001032  0.001032  1
  Pd  Pd10  1  0.000658  0.655556  0.346272  1
  Pd  Pd11  1  0.344070  0.001032  0.653866  1
  Pd  Pd12  1  0.000658  0.655556  0.997515  1
  Pd  Pd13  1  0.653883  0.344458  0.000830  1
  Pd  Pd14  1  0.614163  0.616885  0.152068  1
  Pd  Pd15  1  0.383035  0.846571  0.385197  1
  Pd  Pd16  1  0.154866  0.615045  0.615045  1
  Pd  Pd17  1  0.653883  0.000830  0.344458  1
  Pd  Pd18  1  0.000658  0.346272  0.655556  1
  Pd  Pd19  1  0.653883  0.000830  0.000830  1
  Pd  Pd20  1  0.000658  0.997515  0.346272  1
  Pd  Pd21  1  0.614163  0.152068  0.616885  1
  Pd  Pd22  1  0.344070  0.653866  0.001032  1
  Pd  Pd23  1  0.383035  0.385197  0.385197  1
  Pd  Pd24  1  0.614163  0.616885  0.616885  1
  Pd  Pd25  1  0.383035  0.385197  0.846571  1
  Pd  Pd26  1  0.000658  0.997515  0.655556  1
  Pd  Pd27  1  0.849020  0.383660  0.383660  1
  Pd  Pd28  1  0.000658  0.346272  0.997515  1
