# generated using pymatgen
data_Ho7Zr(Si3Pt)4
_symmetry_space_group_name_H-M   'P 1'
_cell_length_a   8.16147000
_cell_length_b   8.16147019
_cell_length_c   7.81563000
_cell_angle_alpha   90.00000000
_cell_angle_beta   90.00000000
_cell_angle_gamma   120.00000732
_symmetry_Int_Tables_number   1
_chemical_formula_structural   Ho7Zr(Si3Pt)4
_chemical_formula_sum   'Ho7 Zr1 Si12 Pt4'
_cell_volume   450.84927794
_cell_formula_units_Z   1
loop_
 _symmetry_equiv_pos_site_id
 _symmetry_equiv_pos_as_xyz
  1  'x, y, z'
loop_
 _atom_site_type_symbol
 _atom_site_label
 _atom_site_symmetry_multiplicity
 _atom_site_fract_x
 _atom_site_fract_y
 _atom_site_fract_z
 _atom_site_occupancy
  Ho  Ho0  1  0.000000  0.000000  0.750000  1
  Ho  Ho1  1  0.510351  0.489649  0.250000  1
  Ho  Ho2  1  0.510351  0.020702  0.250000  1
  Ho  Ho3  1  0.979298  0.489649  0.250000  1
  Ho  Ho4  1  0.490006  0.509994  0.750000  1
  Ho  Ho5  1  0.490006  0.980013  0.750000  1
  Ho  Ho6  1  0.019987  0.509994  0.750000  1
  Zr  Zr7  1  0.000000  0.000000  0.250000  1
  Si  Si8  1  0.164426  0.835574  0.492633  1
  Si  Si9  1  0.164426  0.328849  0.492633  1
  Si  Si10  1  0.671151  0.835574  0.492633  1
  Si  Si11  1  0.835608  0.164392  0.502238  1
  Si  Si12  1  0.835608  0.671218  0.502238  1
  Si  Si13  1  0.328782  0.164392  0.502238  1
  Si  Si14  1  0.835608  0.164392  0.997762  1
  Si  Si15  1  0.835608  0.671218  0.997762  1
  Si  Si16  1  0.328782  0.164392  0.997762  1
  Si  Si17  1  0.164426  0.835574  0.007367  1
  Si  Si18  1  0.164426  0.328849  0.007367  1
  Si  Si19  1  0.671151  0.835574  0.007367  1
  Pt  Pt20  1  0.333333  0.666667  0.465388  1
  Pt  Pt21  1  0.666667  0.333333  0.528512  1
  Pt  Pt22  1  0.666667  0.333333  0.971488  1
  Pt  Pt23  1  0.333333  0.666667  0.034612  1
