# generated using pymatgen
data_La4AlCoSi6
_symmetry_space_group_name_H-M   'P 1'
_cell_length_a   8.21450500
_cell_length_b   8.21450524
_cell_length_c   4.41378500
_cell_angle_alpha   90.00000000
_cell_angle_beta   90.00000000
_cell_angle_gamma   120.00000305
_symmetry_Int_Tables_number   1
_chemical_formula_structural   La4AlCoSi6
_chemical_formula_sum   'La4 Al1 Co1 Si6'
_cell_volume   257.93162967
_cell_formula_units_Z   1
loop_
 _symmetry_equiv_pos_site_id
 _symmetry_equiv_pos_as_xyz
  1  'x, y, z'
loop_
 _atom_site_type_symbol
 _atom_site_label
 _atom_site_symmetry_multiplicity
 _atom_site_fract_x
 _atom_site_fract_y
 _atom_site_fract_z
 _atom_site_occupancy
  La  La0  1  0.504954  0.495046  0.000000  1
  La  La1  1  0.990091  0.495046  0.000000  1
  La  La2  1  0.504954  0.009909  0.000000  1
  La  La3  1  0.000000  0.000000  0.000000  1
  Al  Al4  1  0.333333  0.666667  0.500000  1
  Co  Co5  1  0.666667  0.333333  0.500000  1
  Si  Si6  1  0.824906  0.649811  0.500000  1
  Si  Si7  1  0.160555  0.839445  0.500000  1
  Si  Si8  1  0.678891  0.839445  0.500000  1
  Si  Si9  1  0.160555  0.321109  0.500000  1
  Si  Si10  1  0.824906  0.175094  0.500000  1
  Si  Si11  1  0.350189  0.175094  0.500000  1
