# generated using pymatgen
data_Ho2Pa2PdPt3
_symmetry_space_group_name_H-M   'P 1'
_cell_length_a   4.51710400
_cell_length_b   5.67065731
_cell_length_c   6.92685018
_cell_angle_alpha   90.35805650
_cell_angle_beta   90.00000000
_cell_angle_gamma   90.00000000
_symmetry_Int_Tables_number   1
_chemical_formula_structural   Ho2Pa2PdPt3
_chemical_formula_sum   'Ho2 Pa2 Pd1 Pt3'
_cell_volume   177.42744836
_cell_formula_units_Z   1
loop_
 _symmetry_equiv_pos_site_id
 _symmetry_equiv_pos_as_xyz
  1  'x, y, z'
loop_
 _atom_site_type_symbol
 _atom_site_label
 _atom_site_symmetry_multiplicity
 _atom_site_fract_x
 _atom_site_fract_y
 _atom_site_fract_z
 _atom_site_occupancy
  Ho  Ho0  1  0.750000  0.647391  0.316411  1
  Ho  Ho1  1  0.750000  0.850516  0.821770  1
  Pa  Pa2  1  0.250000  0.351922  0.685188  1
  Pa  Pa3  1  0.250000  0.148506  0.182589  1
  Pd  Pd4  1  0.250000  0.844095  0.545175  1
  Pt  Pt5  1  0.250000  0.661223  0.045184  1
  Pt  Pt6  1  0.750000  0.164872  0.453485  1
  Pt  Pt7  1  0.750000  0.331475  0.950200  1
