# generated using pymatgen
data_TmPa(H3Os)2
_symmetry_space_group_name_H-M   'P 1'
_cell_length_a   5.96318565
_cell_length_b   5.96318494
_cell_length_c   4.66089000
_cell_angle_alpha   90.00000000
_cell_angle_beta   90.00000000
_cell_angle_gamma   142.41657399
_symmetry_Int_Tables_number   1
_chemical_formula_structural   TmPa(H3Os)2
_chemical_formula_sum   'Tm1 Pa1 H6 Os2'
_cell_volume   101.08703407
_cell_formula_units_Z   1
loop_
 _symmetry_equiv_pos_site_id
 _symmetry_equiv_pos_as_xyz
  1  'x, y, z'
loop_
 _atom_site_type_symbol
 _atom_site_label
 _atom_site_symmetry_multiplicity
 _atom_site_fract_x
 _atom_site_fract_y
 _atom_site_fract_z
 _atom_site_occupancy
  Tm  Tm0  1  0.865548  0.134452  0.750001  1
  Pa  Pa1  1  0.119061  0.880939  0.250000  1
  H  H2  1  0.310760  0.689241  0.995257  1
  H  H3  1  0.912834  0.087167  0.250000  1
  H  H4  1  0.310760  0.689241  0.504744  1
  H  H5  1  0.694661  0.305340  0.488553  1
  H  H6  1  0.083477  0.916524  0.750001  1
  H  H7  1  0.694661  0.305340  0.011446  1
  Os  Os8  1  0.421250  0.578751  0.250000  1
  Os  Os9  1  0.586993  0.413008  0.750001  1
