# generated using pymatgen
data_CeSc4Bi3
_symmetry_space_group_name_H-M   'P 1'
_cell_length_a   7.99996700
_cell_length_b   9.10774000
_cell_length_c   11.75937000
_cell_angle_alpha   90.00000000
_cell_angle_beta   90.00000000
_cell_angle_gamma   90.00000000
_symmetry_Int_Tables_number   1
_chemical_formula_structural   CeSc4Bi3
_chemical_formula_sum   'Ce4 Sc16 Bi12'
_cell_volume   856.80674185
_cell_formula_units_Z   4
loop_
 _symmetry_equiv_pos_site_id
 _symmetry_equiv_pos_as_xyz
  1  'x, y, z'
loop_
 _atom_site_type_symbol
 _atom_site_label
 _atom_site_symmetry_multiplicity
 _atom_site_fract_x
 _atom_site_fract_y
 _atom_site_fract_z
 _atom_site_occupancy
  Ce  Ce0  1  0.318141  0.250000  0.220488  1
  Ce  Ce1  1  0.818141  0.250000  0.279512  1
  Ce  Ce2  1  0.681859  0.750000  0.779512  1
  Ce  Ce3  1  0.181859  0.750000  0.720488  1
  Sc  Sc4  1  0.346595  0.750000  0.222091  1
  Sc  Sc5  1  0.846595  0.750000  0.277909  1
  Sc  Sc6  1  0.653405  0.250000  0.777909  1
  Sc  Sc7  1  0.153405  0.250000  0.722091  1
  Sc  Sc8  1  0.691746  0.567838  0.064777  1
  Sc  Sc9  1  0.191746  0.932162  0.435223  1
  Sc  Sc10  1  0.308254  0.067838  0.935223  1
  Sc  Sc11  1  0.808254  0.432162  0.564777  1
  Sc  Sc12  1  0.308254  0.432162  0.935223  1
  Sc  Sc13  1  0.808254  0.067838  0.564777  1
  Sc  Sc14  1  0.691746  0.932162  0.064777  1
  Sc  Sc15  1  0.191746  0.567838  0.435223  1
  Sc  Sc16  1  0.483503  0.250000  0.487808  1
  Sc  Sc17  1  0.983503  0.250000  0.012192  1
  Sc  Sc18  1  0.516497  0.750000  0.512192  1
  Sc  Sc19  1  0.016497  0.750000  0.987808  1
  Bi  Bi20  1  0.400497  0.750000  0.971051  1
  Bi  Bi21  1  0.900497  0.750000  0.528949  1
  Bi  Bi22  1  0.599503  0.250000  0.028949  1
  Bi  Bi23  1  0.099503  0.250000  0.471051  1
  Bi  Bi24  1  0.562559  0.986369  0.330378  1
  Bi  Bi25  1  0.062559  0.513631  0.169622  1
  Bi  Bi26  1  0.437441  0.486369  0.669622  1
  Bi  Bi27  1  0.937441  0.013631  0.830378  1
  Bi  Bi28  1  0.437441  0.013631  0.669622  1
  Bi  Bi29  1  0.937441  0.486369  0.830378  1
  Bi  Bi30  1  0.562559  0.513631  0.330378  1
  Bi  Bi31  1  0.062559  0.986369  0.169622  1
