# generated using pymatgen
data_Y16MgAg3Rh4
_symmetry_space_group_name_H-M   'P 1'
_cell_length_a   9.61712288
_cell_length_b   9.62643958
_cell_length_c   9.62622700
_cell_angle_alpha   60.00052745
_cell_angle_beta   59.96843443
_cell_angle_gamma   59.96967374
_symmetry_Int_Tables_number   1
_chemical_formula_structural   Y16MgAg3Rh4
_chemical_formula_sum   'Y16 Mg1 Ag3 Rh4'
_cell_volume   629.86922032
_cell_formula_units_Z   1
loop_
 _symmetry_equiv_pos_site_id
 _symmetry_equiv_pos_as_xyz
  1  'x, y, z'
loop_
 _atom_site_type_symbol
 _atom_site_label
 _atom_site_symmetry_multiplicity
 _atom_site_fract_x
 _atom_site_fract_y
 _atom_site_fract_z
 _atom_site_occupancy
  Y  Y0  1  0.602877  0.600688  0.600670  1
  Y  Y1  1  0.602879  0.600688  0.195759  1
  Y  Y2  1  0.602882  0.195748  0.600687  1
  Y  Y3  1  0.181739  0.606095  0.606088  1
  Y  Y4  1  0.061312  0.438094  0.438102  1
  Y  Y5  1  0.435800  0.063537  0.063608  1
  Y  Y6  1  0.435800  0.063544  0.437057  1
  Y  Y7  1  0.061310  0.438089  0.062505  1
  Y  Y8  1  0.435791  0.437056  0.063588  1
  Y  Y9  1  0.061337  0.062451  0.438105  1
  Y  Y10  1  0.184083  0.814240  0.814225  1
  Y  Y11  1  0.813655  0.185179  0.185189  1
  Y  Y12  1  0.813656  0.185179  0.815975  1
  Y  Y13  1  0.184081  0.814239  0.187450  1
  Y  Y14  1  0.813640  0.815978  0.185191  1
  Y  Y15  1  0.184088  0.187440  0.814232  1
  Mg  Mg16  1  0.538696  0.820449  0.820422  1
  Ag  Ag17  1  0.832466  0.834273  0.834278  1
  Ag  Ag18  1  0.832462  0.834275  0.498978  1
  Ag  Ag19  1  0.832462  0.498982  0.834274  1
  Rh  Rh20  1  0.390199  0.395295  0.395232  1
  Rh  Rh21  1  0.390228  0.395278  0.819272  1
  Rh  Rh22  1  0.390278  0.819309  0.395203  1
  Rh  Rh23  1  0.818280  0.393897  0.393910  1
