# generated using pymatgen
data_TbYB6Os
_symmetry_space_group_name_H-M   'P 1'
_cell_length_a   3.66472700
_cell_length_b   9.17802204
_cell_length_c   11.55895101
_cell_angle_alpha   90.00342970
_cell_angle_beta   90.00000000
_cell_angle_gamma   90.00000000
_symmetry_Int_Tables_number   1
_chemical_formula_structural   TbYB6Os
_chemical_formula_sum   'Tb4 Y4 B24 Os4'
_cell_volume   388.78468276
_cell_formula_units_Z   4
loop_
 _symmetry_equiv_pos_site_id
 _symmetry_equiv_pos_as_xyz
  1  'x, y, z'
loop_
 _atom_site_type_symbol
 _atom_site_label
 _atom_site_symmetry_multiplicity
 _atom_site_fract_x
 _atom_site_fract_y
 _atom_site_fract_z
 _atom_site_occupancy
  Tb  Tb0  1  0.000000  0.322702  0.413828  1
  Tb  Tb1  1  0.000000  0.677320  0.586204  1
  Tb  Tb2  1  0.000000  0.822636  0.086144  1
  Tb  Tb3  1  0.000000  0.177360  0.913801  1
  Y  Y4  1  0.000000  0.944060  0.373061  1
  Y  Y5  1  0.000000  0.055932  0.627021  1
  Y  Y6  1  0.000000  0.444081  0.126894  1
  Y  Y7  1  0.000000  0.555962  0.872985  1
  B  B8  1  0.500000  0.554086  0.432751  1
  B  B9  1  0.500000  0.445927  0.567349  1
  B  B10  1  0.500000  0.054079  0.067232  1
  B  B11  1  0.500000  0.945792  0.932721  1
  B  B12  1  0.500000  0.747586  0.419728  1
  B  B13  1  0.500000  0.252454  0.580343  1
  B  B14  1  0.500000  0.247648  0.080238  1
  B  B15  1  0.500000  0.752293  0.919709  1
  B  B16  1  0.500000  0.790702  0.266664  1
  B  B17  1  0.500000  0.209332  0.733364  1
  B  B18  1  0.500000  0.290762  0.233272  1
  B  B19  1  0.500000  0.709195  0.766717  1
  B  B20  1  0.500000  0.631960  0.185595  1
  B  B21  1  0.500000  0.368098  0.814384  1
  B  B22  1  0.500000  0.132008  0.314342  1
  B  B23  1  0.500000  0.867951  0.685707  1
  B  B24  1  0.500000  0.983832  0.212963  1
  B  B25  1  0.500000  0.016107  0.787073  1
  B  B26  1  0.500000  0.483825  0.286993  1
  B  B27  1  0.500000  0.516222  0.713035  1
  B  B28  1  0.500000  0.608373  0.029966  1
  B  B29  1  0.500000  0.391686  0.969921  1
  B  B30  1  0.500000  0.108625  0.469951  1
  B  B31  1  0.500000  0.891374  0.530125  1
  Os  Os32  1  0.000000  0.637466  0.321371  1
  Os  Os33  1  0.000000  0.362523  0.678577  1
  Os  Os34  1  0.000000  0.137522  0.178549  1
  Os  Os35  1  0.000000  0.862515  0.821420  1
