# generated using pymatgen
data_Ca4Sb6O13
_symmetry_space_group_name_H-M   'P 1'
_cell_length_a   7.21375200
_cell_length_b   5.90192301
_cell_length_c   9.21689497
_cell_angle_alpha   71.44302391
_cell_angle_beta   90.00000000
_cell_angle_gamma   90.00000000
_symmetry_Int_Tables_number   1
_chemical_formula_structural   Ca4Sb6O13
_chemical_formula_sum   'Ca4 Sb6 O13'
_cell_volume   372.00709999
_cell_formula_units_Z   1
loop_
 _symmetry_equiv_pos_site_id
 _symmetry_equiv_pos_as_xyz
  1  'x, y, z'
loop_
 _atom_site_type_symbol
 _atom_site_label
 _atom_site_symmetry_multiplicity
 _atom_site_fract_x
 _atom_site_fract_y
 _atom_site_fract_z
 _atom_site_occupancy
  Ca  Ca0  1  0.746417  0.653861  0.573751  1
  Ca  Ca1  1  0.253645  0.226335  0.427765  1
  Ca  Ca2  1  0.253583  0.653861  0.573751  1
  Ca  Ca3  1  0.746355  0.226335  0.427765  1
  Sb  Sb4  1  0.000000  0.907365  0.222516  1
  Sb  Sb5  1  0.000000  0.130682  0.779454  1
  Sb  Sb6  1  0.500000  0.087106  0.771207  1
  Sb  Sb7  1  0.500000  0.855768  0.230204  1
  Sb  Sb8  1  0.771544  0.495989  0.001930  1
  Sb  Sb9  1  0.228456  0.495989  0.001930  1
  O  O10  1  0.500000  0.373351  0.582081  1
  O  O11  1  0.500000  0.954200  0.419343  1
  O  O12  1  0.000000  0.921056  0.434848  1
  O  O13  1  0.000000  0.355524  0.567349  1
  O  O14  1  0.724385  0.953559  0.689184  1
  O  O15  1  0.275599  0.640983  0.312361  1
  O  O16  1  0.275615  0.953559  0.689184  1
  O  O17  1  0.724401  0.640983  0.312361  1
  O  O18  1  0.794871  0.366877  0.826348  1
  O  O19  1  0.203068  0.190773  0.175669  1
  O  O20  1  0.205129  0.366877  0.826348  1
  O  O21  1  0.796932  0.190773  0.175669  1
  O  O22  1  0.500000  0.508389  0.006980  1
