# generated using pymatgen
data_K8EuEr2TlF20
_symmetry_space_group_name_H-M   'P 1'
_cell_length_a   6.72182560
_cell_length_b   7.37388600
_cell_length_c   11.06023458
_cell_angle_alpha   90.00000000
_cell_angle_beta   89.86657732
_cell_angle_gamma   90.00000000
_symmetry_Int_Tables_number   1
_chemical_formula_structural   K8EuEr2TlF20
_chemical_formula_sum   'K8 Eu1 Er2 Tl1 F20'
_cell_volume   548.20983206
_cell_formula_units_Z   1
loop_
 _symmetry_equiv_pos_site_id
 _symmetry_equiv_pos_as_xyz
  1  'x, y, z'
loop_
 _atom_site_type_symbol
 _atom_site_label
 _atom_site_symmetry_multiplicity
 _atom_site_fract_x
 _atom_site_fract_y
 _atom_site_fract_z
 _atom_site_occupancy
  K  K0  1  0.535614  0.995993  0.830219  1
  K  K1  1  0.464465  0.498001  0.169804  1
  K  K2  1  0.968741  0.996676  0.328651  1
  K  K3  1  0.033487  0.497965  0.671415  1
  K  K4  1  0.535614  0.504007  0.830219  1
  K  K5  1  0.464465  0.001999  0.169804  1
  K  K6  1  0.968741  0.503324  0.328651  1
  K  K7  1  0.033487  0.002035  0.671415  1
  Eu  Eu8  1  0.561874  0.250000  0.501562  1
  Er  Er9  1  0.937778  0.250000  0.002206  1
  Er  Er10  1  0.061096  0.750000  0.997801  1
  Tl  Tl11  1  0.435017  0.750000  0.498488  1
  F  F12  1  0.877722  0.750000  0.835473  1
  F  F13  1  0.121841  0.250000  0.164423  1
  F  F14  1  0.623949  0.750000  0.335442  1
  F  F15  1  0.377497  0.250000  0.671406  1
  F  F16  1  0.844707  0.250000  0.812075  1
  F  F17  1  0.153935  0.750000  0.187302  1
  F  F18  1  0.663433  0.250000  0.307294  1
  F  F19  1  0.338048  0.750000  0.691406  1
  F  F20  1  0.650241  0.960859  0.576641  1
  F  F21  1  0.348477  0.466857  0.420010  1
  F  F22  1  0.853544  0.964978  0.072409  1
  F  F23  1  0.144763  0.465552  0.927909  1
  F  F24  1  0.385857  0.750000  0.984807  1
  F  F25  1  0.613563  0.250000  0.015047  1
  F  F26  1  0.104268  0.750000  0.488806  1
  F  F27  1  0.900751  0.250000  0.512347  1
  F  F28  1  0.144763  0.034448  0.927909  1
  F  F29  1  0.853544  0.535022  0.072409  1
  F  F30  1  0.348477  0.033143  0.420010  1
  F  F31  1  0.650241  0.539141  0.576641  1
