# generated using pymatgen
data_Ho5Co16Tc3(As3P)3
_symmetry_space_group_name_H-M   'P 1'
_cell_length_a   12.36333700
_cell_length_b   12.36333732
_cell_length_c   3.78434600
_cell_angle_alpha   90.00000000
_cell_angle_beta   90.00000000
_cell_angle_gamma   120.00000182
_symmetry_Int_Tables_number   1
_chemical_formula_structural   Ho5Co16Tc3(As3P)3
_chemical_formula_sum   'Ho5 Co16 Tc3 As9 P3'
_cell_volume   500.94827635
_cell_formula_units_Z   1
loop_
 _symmetry_equiv_pos_site_id
 _symmetry_equiv_pos_as_xyz
  1  'x, y, z'
loop_
 _atom_site_type_symbol
 _atom_site_label
 _atom_site_symmetry_multiplicity
 _atom_site_fract_x
 _atom_site_fract_y
 _atom_site_fract_z
 _atom_site_occupancy
  Ho  Ho0  1  0.666667  0.333333  0.000000  1
  Ho  Ho1  1  0.333333  0.666667  0.000000  1
  Ho  Ho2  1  0.815584  0.815319  0.500000  1
  Ho  Ho3  1  0.184681  0.000265  0.500000  1
  Ho  Ho4  1  0.999735  0.184416  0.500000  1
  Co  Co5  1  0.878944  0.357365  0.500000  1
  Co  Co6  1  0.642635  0.521581  0.500000  1
  Co  Co7  1  0.478419  0.121056  0.500000  1
  Co  Co8  1  0.355292  0.864329  0.500000  1
  Co  Co9  1  0.509038  0.644708  0.500000  1
  Co  Co10  1  0.135671  0.490962  0.500000  1
  Co  Co11  1  0.800636  0.176646  0.000000  1
  Co  Co12  1  0.823354  0.623990  0.000000  1
  Co  Co13  1  0.376010  0.199364  0.000000  1
  Co  Co14  1  0.181213  0.797073  0.000000  1
  Co  Co15  1  0.615859  0.818787  0.000000  1
  Co  Co16  1  0.202927  0.384141  0.000000  1
  Co  Co17  1  0.282239  0.291413  0.500000  1
  Co  Co18  1  0.708587  0.990826  0.500000  1
  Co  Co19  1  0.009174  0.717761  0.500000  1
  Co  Co20  1  0.000000  0.000000  0.000000  1
  Tc  Tc21  1  0.439232  0.447594  0.000000  1
  Tc  Tc22  1  0.552406  0.991638  0.000000  1
  Tc  Tc23  1  0.008362  0.560768  0.000000  1
  As  As24  1  0.683152  0.164222  0.500000  1
  As  As25  1  0.835778  0.518930  0.500000  1
  As  As26  1  0.481070  0.316848  0.500000  1
  As  As27  1  0.178838  0.180959  0.000000  1
  As  As28  1  0.819041  0.997879  0.000000  1
  As  As29  1  0.002121  0.821162  0.000000  1
  As  As30  1  0.637728  0.639323  0.000000  1
  As  As31  1  0.360677  0.998405  0.000000  1
  As  As32  1  0.001595  0.362272  0.000000  1
  P  P33  1  0.167697  0.684820  0.500000  1
  P  P34  1  0.517123  0.832303  0.500000  1
  P  P35  1  0.315180  0.482877  0.500000  1
