# generated using pymatgen
data_YHo15In4(IrRu)2
_symmetry_space_group_name_H-M   'P 1'
_cell_length_a   9.63509488
_cell_length_b   9.63451958
_cell_length_c   9.62462952
_cell_angle_alpha   59.82121782
_cell_angle_beta   59.78682409
_cell_angle_gamma   59.77767573
_symmetry_Int_Tables_number   1
_chemical_formula_structural   YHo15In4(IrRu)2
_chemical_formula_sum   'Y1 Ho15 In4 Ir2 Ru2'
_cell_volume   628.82741692
_cell_formula_units_Z   1
loop_
 _symmetry_equiv_pos_site_id
 _symmetry_equiv_pos_as_xyz
  1  'x, y, z'
loop_
 _atom_site_type_symbol
 _atom_site_label
 _atom_site_symmetry_multiplicity
 _atom_site_fract_x
 _atom_site_fract_y
 _atom_site_fract_z
 _atom_site_occupancy
  Y  Y0  1  0.437847  0.440299  0.061870  1
  Ho  Ho1  1  0.651428  0.651904  0.043393  1
  Ho  Ho2  1  0.193581  0.810582  0.190832  1
  Ho  Ho3  1  0.058166  0.442466  0.059103  1
  Ho  Ho4  1  0.191660  0.809434  0.808839  1
  Ho  Ho5  1  0.060328  0.439489  0.440168  1
  Ho  Ho6  1  0.809323  0.193033  0.193194  1
  Ho  Ho7  1  0.650470  0.651834  0.651824  1
  Ho  Ho8  1  0.808834  0.190600  0.808558  1
  Ho  Ho9  1  0.193799  0.190828  0.810188  1
  Ho  Ho10  1  0.045483  0.651169  0.650960  1
  Ho  Ho11  1  0.441968  0.057624  0.057981  1
  Ho  Ho12  1  0.058913  0.059481  0.442238  1
  Ho  Ho13  1  0.651483  0.043620  0.651703  1
  Ho  Ho14  1  0.808548  0.808921  0.190623  1
  Ho  Ho15  1  0.438507  0.060499  0.441827  1
  In  In16  1  0.417949  0.417462  0.417678  1
  In  In17  1  0.416872  0.416875  0.749101  1
  In  In18  1  0.416724  0.749609  0.416759  1
  In  In19  1  0.747818  0.417497  0.417553  1
  Ir  Ir20  1  0.859829  0.420515  0.857492  1
  Ir  Ir21  1  0.859061  0.857752  0.420721  1
  Ru  Ru22  1  0.419358  0.859265  0.858046  1
  Ru  Ru23  1  0.862054  0.859246  0.859351  1
