# generated using pymatgen
data_LiTb2Y2Co19P12
_symmetry_space_group_name_H-M   'P 1'
_cell_length_a   3.66284500
_cell_length_b   10.26823377
_cell_length_c   11.78277994
_cell_angle_alpha   90.08060501
_cell_angle_beta   90.00000000
_cell_angle_gamma   90.00000000
_symmetry_Int_Tables_number   1
_chemical_formula_structural   LiTb2Y2Co19P12
_chemical_formula_sum   'Li1 Tb2 Y2 Co19 P12'
_cell_volume   443.16109379
_cell_formula_units_Z   1
loop_
 _symmetry_equiv_pos_site_id
 _symmetry_equiv_pos_as_xyz
  1  'x, y, z'
loop_
 _atom_site_type_symbol
 _atom_site_label
 _atom_site_symmetry_multiplicity
 _atom_site_fract_x
 _atom_site_fract_y
 _atom_site_fract_z
 _atom_site_occupancy
  Li  Li0  1  0.250000  0.796192  0.490520  1
  Tb  Tb1  1  0.750000  0.082486  0.797945  1
  Tb  Tb2  1  0.750000  0.418556  0.296961  1
  Y  Y3  1  0.250000  0.917974  0.201549  1
  Y  Y4  1  0.250000  0.581261  0.703073  1
  Co  Co5  1  0.750000  0.211133  0.510328  1
  Co  Co6  1  0.750000  0.284230  0.007898  1
  Co  Co7  1  0.250000  0.715550  0.991869  1
  Co  Co8  1  0.250000  0.093959  0.988366  1
  Co  Co9  1  0.750000  0.906808  0.013060  1
  Co  Co10  1  0.750000  0.591263  0.512501  1
  Co  Co11  1  0.250000  0.403960  0.487779  1
  Co  Co12  1  0.250000  0.277247  0.675830  1
  Co  Co13  1  0.750000  0.720082  0.321533  1
  Co  Co14  1  0.750000  0.779486  0.827627  1
  Co  Co15  1  0.250000  0.221519  0.175520  1
  Co  Co16  1  0.250000  0.616365  0.196951  1
  Co  Co17  1  0.750000  0.381948  0.800747  1
  Co  Co18  1  0.750000  0.119447  0.301212  1
  Co  Co19  1  0.250000  0.880918  0.699919  1
  Co  Co20  1  0.250000  0.034839  0.432245  1
  Co  Co21  1  0.750000  0.966708  0.567025  1
  Co  Co22  1  0.750000  0.531713  0.066683  1
  Co  Co23  1  0.250000  0.467160  0.931524  1
  P  P24  1  0.250000  0.078704  0.612316  1
  P  P25  1  0.750000  0.921426  0.384538  1
  P  P26  1  0.750000  0.580841  0.887965  1
  P  P27  1  0.250000  0.418895  0.111157  1
  P  P28  1  0.250000  0.230055  0.368220  1
  P  P29  1  0.750000  0.770704  0.637221  1
  P  P30  1  0.750000  0.728186  0.130452  1
  P  P31  1  0.250000  0.270834  0.869322  1
  P  P32  1  0.250000  0.898271  0.893473  1
  P  P33  1  0.750000  0.102826  0.108253  1
  P  P34  1  0.750000  0.396712  0.607347  1
  P  P35  1  0.250000  0.601738  0.391069  1
