# generated using pymatgen
data_CoCl13
_symmetry_space_group_name_H-M   'P 1'
_cell_length_a   11.95493942
_cell_length_b   16.63702505
_cell_length_c   10.73645400
_cell_angle_alpha   89.41594713
_cell_angle_beta   120.89887980
_cell_angle_gamma   130.41348287
_symmetry_Int_Tables_number   1
_chemical_formula_structural   CoCl13
_chemical_formula_sum   'Co2 Cl26'
_cell_volume   1213.03336074
_cell_formula_units_Z   2
loop_
 _symmetry_equiv_pos_site_id
 _symmetry_equiv_pos_as_xyz
  1  'x, y, z'
loop_
 _atom_site_type_symbol
 _atom_site_label
 _atom_site_symmetry_multiplicity
 _atom_site_fract_x
 _atom_site_fract_y
 _atom_site_fract_z
 _atom_site_occupancy
  Co  Co0  1  0.860898  0.995059  0.859085  1
  Co  Co1  1  0.389102  0.754941  0.640915  1
  Cl  Cl2  1  0.291521  0.399767  0.648916  1
  Cl  Cl3  1  0.660633  0.337131  0.969932  1
  Cl  Cl4  1  0.858090  0.041800  0.371024  1
  Cl  Cl5  1  0.958479  0.350233  0.851084  1
  Cl  Cl6  1  0.555426  0.135641  0.228288  1
  Cl  Cl7  1  0.694574  0.614359  0.271712  1
  Cl  Cl8  1  0.391910  0.708200  0.128976  1
  Cl  Cl9  1  0.589367  0.412869  0.530068  1
  Cl  Cl10  1  0.032161  0.792105  0.738176  1
  Cl  Cl11  1  0.518541  0.725391  0.356277  1
  Cl  Cl12  1  0.958264  0.063724  0.731208  1
  Cl  Cl13  1  0.747616  0.212524  0.477385  1
  Cl  Cl14  1  0.067452  0.081277  0.121138  1
  Cl  Cl15  1  0.777552  0.557010  0.747135  1
  Cl  Cl16  1  0.213760  0.929125  0.227764  1
  Cl  Cl17  1  0.183785  0.413597  0.444784  1
  Cl  Cl18  1  0.217839  0.957895  0.761824  1
  Cl  Cl19  1  0.731459  0.024609  0.143723  1
  Cl  Cl20  1  0.645539  0.788988  0.736653  1
  Cl  Cl21  1  0.604461  0.961012  0.763347  1
  Cl  Cl22  1  0.036240  0.820875  0.272236  1
  Cl  Cl23  1  0.066215  0.336403  0.055216  1
  Cl  Cl24  1  0.291736  0.686276  0.768792  1
  Cl  Cl25  1  0.472448  0.192990  0.752865  1
  Cl  Cl26  1  0.182548  0.668723  0.378862  1
  Cl  Cl27  1  0.502384  0.537476  0.022615  1
