# generated using pymatgen
data_Nb(O2F7)2
_symmetry_space_group_name_H-M   'P 1'
_cell_length_a   12.75481000
_cell_length_b   6.65189229
_cell_length_c   8.79920193
_cell_angle_alpha   68.07404774
_cell_angle_beta   90.00000000
_cell_angle_gamma   90.00000000
_symmetry_Int_Tables_number   1
_chemical_formula_structural   Nb(O2F7)2
_chemical_formula_sum   'Nb2 O8 F28'
_cell_volume   692.55567696
_cell_formula_units_Z   2
loop_
 _symmetry_equiv_pos_site_id
 _symmetry_equiv_pos_as_xyz
  1  'x, y, z'
loop_
 _atom_site_type_symbol
 _atom_site_label
 _atom_site_symmetry_multiplicity
 _atom_site_fract_x
 _atom_site_fract_y
 _atom_site_fract_z
 _atom_site_occupancy
  Nb  Nb0  1  0.500000  0.500000  0.500000  1
  Nb  Nb1  1  0.000000  0.500000  0.000000  1
  O  O2  1  0.369636  0.775617  0.909694  1
  O  O3  1  0.630364  0.224383  0.090306  1
  O  O4  1  0.869636  0.224383  0.590306  1
  O  O5  1  0.130364  0.775617  0.409694  1
  O  O6  1  0.735944  0.750812  0.876592  1
  O  O7  1  0.264056  0.249188  0.123408  1
  O  O8  1  0.235944  0.249188  0.623408  1
  O  O9  1  0.764056  0.750812  0.376592  1
  F  F10  1  0.446421  0.854847  0.786794  1
  F  F11  1  0.553579  0.145153  0.213206  1
  F  F12  1  0.946421  0.145153  0.713206  1
  F  F13  1  0.053579  0.854847  0.286794  1
  F  F14  1  0.434329  0.768597  0.487019  1
  F  F15  1  0.565671  0.231403  0.512981  1
  F  F16  1  0.934329  0.231403  0.012981  1
  F  F17  1  0.065671  0.768597  0.987019  1
  F  F18  1  0.425144  0.345749  0.703388  1
  F  F19  1  0.574856  0.654251  0.296612  1
  F  F20  1  0.925144  0.654251  0.796612  1
  F  F21  1  0.074856  0.345749  0.203388  1
  F  F22  1  0.087796  0.803235  0.549070  1
  F  F23  1  0.912204  0.196765  0.450930  1
  F  F24  1  0.587796  0.196765  0.950930  1
  F  F25  1  0.412204  0.803235  0.049070  1
  F  F26  1  0.344848  0.303833  0.004647  1
  F  F27  1  0.655152  0.696167  0.995353  1
  F  F28  1  0.844848  0.696167  0.495353  1
  F  F29  1  0.155152  0.303833  0.504647  1
  F  F30  1  0.116209  0.448470  0.876549  1
  F  F31  1  0.883791  0.551530  0.123451  1
  F  F32  1  0.616209  0.551530  0.623451  1
  F  F33  1  0.383791  0.448470  0.376549  1
  F  F34  1  0.189594  0.103253  0.768179  1
  F  F35  1  0.810406  0.896747  0.231821  1
  F  F36  1  0.689594  0.896747  0.731821  1
  F  F37  1  0.310406  0.103253  0.268179  1
