# generated using pymatgen
data_Dy10Ho5Er(Ga3Co)2
_symmetry_space_group_name_H-M   'P 1'
_cell_length_a   10.00441600
_cell_length_b   10.00468398
_cell_length_c   6.93090533
_cell_angle_alpha   89.96928961
_cell_angle_beta   90.00000000
_cell_angle_gamma   119.99910735
_symmetry_Int_Tables_number   1
_chemical_formula_structural   Dy10Ho5Er(Ga3Co)2
_chemical_formula_sum   'Dy10 Ho5 Er1 Ga6 Co2'
_cell_volume   600.78563343
_cell_formula_units_Z   1
loop_
 _symmetry_equiv_pos_site_id
 _symmetry_equiv_pos_as_xyz
  1  'x, y, z'
loop_
 _atom_site_type_symbol
 _atom_site_label
 _atom_site_symmetry_multiplicity
 _atom_site_fract_x
 _atom_site_fract_y
 _atom_site_fract_z
 _atom_site_occupancy
  Dy  Dy0  1  0.333346  0.666693  0.828158  1
  Dy  Dy1  1  0.666847  0.333694  0.327717  1
  Dy  Dy2  1  0.463534  0.536930  0.207535  1
  Dy  Dy3  1  0.073396  0.536930  0.207535  1
  Dy  Dy4  1  0.463178  0.926355  0.207751  1
  Dy  Dy5  1  0.537052  0.463376  0.708090  1
  Dy  Dy6  1  0.926323  0.463376  0.708090  1
  Dy  Dy7  1  0.536789  0.073577  0.707698  1
  Dy  Dy8  1  0.999965  0.999930  0.231252  1
  Dy  Dy9  1  0.999843  0.999686  0.731934  1
  Ho  Ho10  1  0.172692  0.827301  0.511161  1
  Ho  Ho11  1  0.654609  0.827301  0.511161  1
  Ho  Ho12  1  0.172714  0.345429  0.511080  1
  Ho  Ho13  1  0.827357  0.172683  0.011157  1
  Ho  Ho14  1  0.345327  0.172683  0.011157  1
  Er  Er15  1  0.827050  0.654100  0.011063  1
  Ga  Ga16  1  0.162620  0.836328  0.958851  1
  Ga  Ga17  1  0.673710  0.836328  0.958851  1
  Ga  Ga18  1  0.163318  0.326635  0.958760  1
  Ga  Ga19  1  0.836664  0.163341  0.458716  1
  Ga  Ga20  1  0.326676  0.163341  0.458716  1
  Ga  Ga21  1  0.836680  0.673360  0.458167  1
  Co  Co22  1  0.333327  0.666654  0.445035  1
  Co  Co23  1  0.666984  0.333967  0.945198  1
