# generated using pymatgen
data_La10Ir3Os2Rh
_symmetry_space_group_name_H-M   'P 1'
_cell_length_a   11.42653158
_cell_length_b   11.42655700
_cell_length_c   6.66856234
_cell_angle_alpha   90.00000000
_cell_angle_beta   90.03667094
_cell_angle_gamma   90.00000000
_symmetry_Int_Tables_number   1
_chemical_formula_structural   La10Ir3Os2Rh
_chemical_formula_sum   'La20 Ir6 Os4 Rh2'
_cell_volume   870.68676198
_cell_formula_units_Z   2
loop_
 _symmetry_equiv_pos_site_id
 _symmetry_equiv_pos_as_xyz
  1  'x, y, z'
loop_
 _atom_site_type_symbol
 _atom_site_label
 _atom_site_symmetry_multiplicity
 _atom_site_fract_x
 _atom_site_fract_y
 _atom_site_fract_z
 _atom_site_occupancy
  La  La0  1  0.294873  0.089672  0.386986  1
  La  La1  1  0.294873  0.910328  0.886986  1
  La  La2  1  0.703615  0.090444  0.885767  1
  La  La3  1  0.703615  0.909556  0.385767  1
  La  La4  1  0.588354  0.794859  0.887399  1
  La  La5  1  0.588354  0.205141  0.387399  1
  La  La6  1  0.410023  0.795107  0.387096  1
  La  La7  1  0.410023  0.204893  0.887096  1
  La  La8  1  0.205029  0.410202  0.612994  1
  La  La9  1  0.205029  0.589798  0.112994  1
  La  La10  1  0.794958  0.411435  0.112600  1
  La  La11  1  0.794958  0.588565  0.612600  1
  La  La12  1  0.910849  0.704298  0.114586  1
  La  La13  1  0.910849  0.295702  0.614586  1
  La  La14  1  0.090968  0.704377  0.612607  1
  La  La15  1  0.090968  0.295623  0.112607  1
  La  La16  1  0.000409  0.999891  0.500014  1
  La  La17  1  0.000409  0.000109  0.000014  1
  La  La18  1  0.499906  0.500005  0.999959  1
  La  La19  1  0.499906  0.499995  0.499959  1
  Ir  Ir20  1  0.151195  0.151422  0.750049  1
  Ir  Ir21  1  0.151195  0.848578  0.250049  1
  Ir  Ir22  1  0.652104  0.347967  0.750071  1
  Ir  Ir23  1  0.652104  0.652033  0.250071  1
  Ir  Ir24  1  0.348368  0.348285  0.249907  1
  Ir  Ir25  1  0.348368  0.651715  0.749907  1
  Os  Os26  1  0.501065  0.000073  0.124205  1
  Os  Os27  1  0.501065  0.999927  0.624205  1
  Os  Os28  1  0.999455  0.500234  0.875792  1
  Os  Os29  1  0.999455  0.499766  0.375792  1
  Rh  Rh30  1  0.848830  0.150955  0.249967  1
  Rh  Rh31  1  0.848830  0.849045  0.749967  1
