# generated using pymatgen
data_La2YPa(Al3Ir)6
_symmetry_space_group_name_H-M   'P 1'
_cell_length_a   7.63214987
_cell_length_b   7.62998702
_cell_length_c   9.52042500
_cell_angle_alpha   90.00000000
_cell_angle_beta   90.00000000
_cell_angle_gamma   119.49245102
_symmetry_Int_Tables_number   1
_chemical_formula_structural   La2YPa(Al3Ir)6
_chemical_formula_sum   'La2 Y1 Pa1 Al18 Ir6'
_cell_volume   482.56538910
_cell_formula_units_Z   1
loop_
 _symmetry_equiv_pos_site_id
 _symmetry_equiv_pos_as_xyz
  1  'x, y, z'
loop_
 _atom_site_type_symbol
 _atom_site_label
 _atom_site_symmetry_multiplicity
 _atom_site_fract_x
 _atom_site_fract_y
 _atom_site_fract_z
 _atom_site_occupancy
  La  La0  1  0.004965  0.329336  0.750000  1
  La  La1  1  0.329906  0.004782  0.750000  1
  Y  Y2  1  0.672852  0.995006  0.250000  1
  Pa  Pa3  1  0.997335  0.672709  0.250000  1
  Al  Al4  1  0.131104  0.129585  0.250000  1
  Al  Al5  1  0.866801  0.868478  0.750000  1
  Al  Al6  1  0.000300  0.332636  0.079281  1
  Al  Al7  1  0.995535  0.664471  0.926923  1
  Al  Al8  1  0.995535  0.664471  0.573077  1
  Al  Al9  1  0.339459  0.003739  0.420709  1
  Al  Al10  1  0.000300  0.332636  0.420719  1
  Al  Al11  1  0.665153  0.996699  0.569487  1
  Al  Al12  1  0.665153  0.996699  0.930513  1
  Al  Al13  1  0.339459  0.003739  0.079291  1
  Al  Al14  1  0.334632  0.334726  0.544105  1
  Al  Al15  1  0.663970  0.666179  0.445760  1
  Al  Al16  1  0.663970  0.666179  0.054240  1
  Al  Al17  1  0.334632  0.334726  0.955895  1
  Al  Al18  1  0.339887  0.548707  0.250000  1
  Al  Al19  1  0.658544  0.454593  0.750000  1
  Al  Al20  1  0.549531  0.343700  0.250000  1
  Al  Al21  1  0.455028  0.660535  0.750000  1
  Ir  Ir22  1  0.673873  0.331317  0.004343  1
  Ir  Ir23  1  0.326493  0.671863  0.004795  1
  Ir  Ir24  1  0.326493  0.671863  0.495205  1
  Ir  Ir25  1  0.673873  0.331317  0.495657  1
  Ir  Ir26  1  0.997609  0.994655  0.005999  1
  Ir  Ir27  1  0.997609  0.994655  0.494001  1
