# generated using pymatgen
data_TbY2In3IrRh2
_symmetry_space_group_name_H-M   'P 1'
_cell_length_a   7.59040100
_cell_length_b   7.58649273
_cell_length_c   3.91317500
_cell_angle_alpha   90.00000000
_cell_angle_beta   90.00000000
_cell_angle_gamma   120.01694206
_symmetry_Int_Tables_number   1
_chemical_formula_structural   TbY2In3IrRh2
_chemical_formula_sum   'Tb1 Y2 In3 Ir1 Rh2'
_cell_volume   195.11537835
_cell_formula_units_Z   1
loop_
 _symmetry_equiv_pos_site_id
 _symmetry_equiv_pos_as_xyz
  1  'x, y, z'
loop_
 _atom_site_type_symbol
 _atom_site_label
 _atom_site_symmetry_multiplicity
 _atom_site_fract_x
 _atom_site_fract_y
 _atom_site_fract_z
 _atom_site_occupancy
  Tb  Tb0  1  0.587870  0.996315  0.500000  1
  Y  Y1  1  0.003914  0.592261  0.500000  1
  Y  Y2  1  0.407916  0.411503  0.500000  1
  In  In3  1  0.744073  0.742148  0.000000  1
  In  In4  1  0.999533  0.256576  0.000000  1
  In  In5  1  0.256816  0.001253  0.000000  1
  Ir  Ir6  1  0.333998  0.667552  0.000000  1
  Rh  Rh7  1  0.999356  0.999978  0.500000  1
  Rh  Rh8  1  0.666524  0.332416  0.000000  1
