# generated using pymatgen
data_Zr6SiGe5Os6
_symmetry_space_group_name_H-M   'P 1'
_cell_length_a   7.74807322
_cell_length_b   7.76473335
_cell_length_c   7.74807359
_cell_angle_alpha   127.80056853
_cell_angle_beta   121.84333056
_cell_angle_gamma   81.86378603
_symmetry_Int_Tables_number   1
_chemical_formula_structural   Zr6SiGe5Os6
_chemical_formula_sum   'Zr6 Si1 Ge5 Os6'
_cell_volume   301.18300667
_cell_formula_units_Z   1
loop_
 _symmetry_equiv_pos_site_id
 _symmetry_equiv_pos_as_xyz
  1  'x, y, z'
loop_
 _atom_site_type_symbol
 _atom_site_label
 _atom_site_symmetry_multiplicity
 _atom_site_fract_x
 _atom_site_fract_y
 _atom_site_fract_z
 _atom_site_occupancy
  Zr  Zr0  1  0.554925  0.100942  0.046017  1
  Zr  Zr1  1  0.448913  0.496202  0.547288  1
  Zr  Zr2  1  0.970438  0.490913  0.020477  1
  Zr  Zr3  1  0.030339  0.053012  0.522673  1
  Zr  Zr4  1  0.752644  0.916391  0.663748  1
  Zr  Zr5  1  0.247285  0.910217  0.162932  1
  Si  Si6  1  0.222627  0.483356  0.760727  1
  Ge  Ge7  1  0.338370  0.829019  0.501446  1
  Ge  Ge8  1  0.660860  0.162509  0.488879  1
  Ge  Ge9  1  0.827572  0.829019  0.990647  1
  Ge  Ge10  1  0.173629  0.162509  0.001649  1
  Ge  Ge11  1  0.775270  0.524281  0.249011  1
  Os  Os12  1  0.156575  0.740376  0.653333  1
  Os  Os13  1  0.857408  0.497969  0.600227  1
  Os  Os14  1  0.587044  0.740376  0.083802  1
  Os  Os15  1  0.397742  0.497969  0.140560  1
  Os  Os16  1  0.483628  0.254470  0.739740  1
  Os  Os17  1  0.014731  0.254470  0.270841  1
