# generated using pymatgen
data_Lu12Co2BiRu3
_symmetry_space_group_name_H-M   'P 1'
_cell_length_a   8.20310154
_cell_length_b   8.20310109
_cell_length_c   8.20310028
_cell_angle_alpha   112.86473033
_cell_angle_beta   110.08641784
_cell_angle_gamma   105.54565682
_symmetry_Int_Tables_number   1
_chemical_formula_structural   Lu12Co2BiRu3
_chemical_formula_sum   'Lu12 Co2 Bi1 Ru3'
_cell_volume   423.17413114
_cell_formula_units_Z   1
loop_
 _symmetry_equiv_pos_site_id
 _symmetry_equiv_pos_as_xyz
  1  'x, y, z'
loop_
 _atom_site_type_symbol
 _atom_site_label
 _atom_site_symmetry_multiplicity
 _atom_site_fract_x
 _atom_site_fract_y
 _atom_site_fract_z
 _atom_site_occupancy
  Lu  Lu0  1  0.822931  0.725417  0.548348  1
  Lu  Lu1  1  0.177069  0.274583  0.451652  1
  Lu  Lu2  1  0.177069  0.725417  0.902488  1
  Lu  Lu3  1  0.822931  0.274583  0.097512  1
  Lu  Lu4  1  0.680459  0.362173  0.681714  1
  Lu  Lu5  1  0.319541  0.637827  0.318286  1
  Lu  Lu6  1  0.680459  0.998745  0.318286  1
  Lu  Lu7  1  0.319541  0.001255  0.681714  1
  Lu  Lu8  1  0.581903  0.772281  0.809623  1
  Lu  Lu9  1  0.418097  0.227719  0.190377  1
  Lu  Lu10  1  0.962658  0.772281  0.190377  1
  Lu  Lu11  1  0.037342  0.227719  0.809623  1
  Co  Co12  1  0.111287  0.611287  0.500000  1
  Co  Co13  1  0.888713  0.388713  0.500000  1
  Bi  Bi14  1  0.500000  0.500000  0.000000  1
  Ru  Ru15  1  0.661188  0.000000  0.661188  1
  Ru  Ru16  1  0.338812  0.000000  0.338812  1
  Ru  Ru17  1  0.000000  0.000000  0.000000  1
