# generated using pymatgen
data_BeTc4B7W8
_symmetry_space_group_name_H-M   'P 1'
_cell_length_a   3.11486900
_cell_length_b   7.56813462
_cell_length_c   9.73614319
_cell_angle_alpha   90.13942860
_cell_angle_beta   90.00000000
_cell_angle_gamma   90.00000000
_symmetry_Int_Tables_number   1
_chemical_formula_structural   BeTc4B7W8
_chemical_formula_sum   'Be1 Tc4 B7 W8'
_cell_volume   229.51670551
_cell_formula_units_Z   1
loop_
 _symmetry_equiv_pos_site_id
 _symmetry_equiv_pos_as_xyz
  1  'x, y, z'
loop_
 _atom_site_type_symbol
 _atom_site_label
 _atom_site_symmetry_multiplicity
 _atom_site_fract_x
 _atom_site_fract_y
 _atom_site_fract_z
 _atom_site_occupancy
  Be  Be0  1  0.500000  0.119192  0.463051  1
  Tc  Tc1  1  0.500000  0.624399  0.396112  1
  Tc  Tc2  1  0.500000  0.377804  0.604663  1
  Tc  Tc3  1  0.000000  0.875015  0.896111  1
  Tc  Tc4  1  0.000000  0.122481  0.103620  1
  B  B5  1  0.500000  0.882603  0.540940  1
  B  B6  1  0.000000  0.385103  0.959251  1
  B  B7  1  0.000000  0.615204  0.039086  1
  B  B8  1  0.500000  0.124441  0.264174  1
  B  B9  1  0.500000  0.874085  0.734446  1
  B  B10  1  0.000000  0.375187  0.766004  1
  B  B11  1  0.000000  0.622470  0.232960  1
  W  W12  1  0.500000  0.810742  0.131361  1
  W  W13  1  0.500000  0.189096  0.869791  1
  W  W14  1  0.000000  0.687714  0.630632  1
  W  W15  1  0.000000  0.318099  0.365257  1
  W  W16  1  0.500000  0.576829  0.861061  1
  W  W17  1  0.500000  0.422619  0.137114  1
  W  W18  1  0.000000  0.920583  0.360193  1
  W  W19  1  0.000000  0.076335  0.644172  1
