# generated using pymatgen
data_Er12TlCo2TcNi2
_symmetry_space_group_name_H-M   'P 1'
_cell_length_a   8.22597970
_cell_length_b   8.22597839
_cell_length_c   8.22597882
_cell_angle_alpha   110.06650081
_cell_angle_beta   111.07707393
_cell_angle_gamma   107.29345729
_symmetry_Int_Tables_number   1
_chemical_formula_structural   Er12TlCo2TcNi2
_chemical_formula_sum   'Er12 Tl1 Co2 Tc1 Ni2'
_cell_volume   427.99347872
_cell_formula_units_Z   1
loop_
 _symmetry_equiv_pos_site_id
 _symmetry_equiv_pos_as_xyz
  1  'x, y, z'
loop_
 _atom_site_type_symbol
 _atom_site_label
 _atom_site_symmetry_multiplicity
 _atom_site_fract_x
 _atom_site_fract_y
 _atom_site_fract_z
 _atom_site_occupancy
  Er  Er0  1  0.283843  0.180460  0.464304  1
  Er  Er1  1  0.716157  0.819540  0.535696  1
  Er  Er2  1  0.283843  0.819540  0.103383  1
  Er  Er3  1  0.716157  0.180460  0.896617  1
  Er  Er4  1  0.620296  0.314515  0.305780  1
  Er  Er5  1  0.379704  0.685485  0.694220  1
  Er  Er6  1  0.008736  0.314515  0.694220  1
  Er  Er7  1  0.991264  0.685485  0.305780  1
  Er  Er8  1  0.221758  0.413421  0.191663  1
  Er  Er9  1  0.778242  0.586579  0.808337  1
  Er  Er10  1  0.221758  0.030096  0.808337  1
  Er  Er11  1  0.778242  0.969904  0.191663  1
  Tl  Tl12  1  0.500000  0.500000  0.000000  1
  Co  Co13  1  0.386422  0.886422  0.500000  1
  Co  Co14  1  0.613578  0.113578  0.500000  1
  Tc  Tc15  1  0.000000  0.000000  0.000000  1
  Ni  Ni16  1  0.000000  0.366572  0.366572  1
  Ni  Ni17  1  0.000000  0.633428  0.633428  1
