# generated using pymatgen
data_Ho4Ta4Fe3Co13P12
_symmetry_space_group_name_H-M   'P 1'
_cell_length_a   3.68420200
_cell_length_b   10.52916294
_cell_length_c   12.03232613
_cell_angle_alpha   90.13239153
_cell_angle_beta   90.00000000
_cell_angle_gamma   90.00000000
_symmetry_Int_Tables_number   1
_chemical_formula_structural   Ho4Ta4Fe3Co13P12
_chemical_formula_sum   'Ho4 Ta4 Fe3 Co13 P12'
_cell_volume   466.75149304
_cell_formula_units_Z   1
loop_
 _symmetry_equiv_pos_site_id
 _symmetry_equiv_pos_as_xyz
  1  'x, y, z'
loop_
 _atom_site_type_symbol
 _atom_site_label
 _atom_site_symmetry_multiplicity
 _atom_site_fract_x
 _atom_site_fract_y
 _atom_site_fract_z
 _atom_site_occupancy
  Ho  Ho0  1  0.250000  0.582919  0.706427  1
  Ho  Ho1  1  0.250000  0.917306  0.207294  1
  Ho  Ho2  1  0.750000  0.417359  0.293397  1
  Ho  Ho3  1  0.750000  0.082096  0.792426  1
  Ta  Ta4  1  0.250000  0.704773  0.991768  1
  Ta  Ta5  1  0.250000  0.797210  0.490996  1
  Ta  Ta6  1  0.750000  0.295012  0.009429  1
  Ta  Ta7  1  0.750000  0.203522  0.508854  1
  Fe  Fe8  1  0.250000  0.037134  0.431797  1
  Fe  Fe9  1  0.750000  0.535707  0.066273  1
  Fe  Fe10  1  0.750000  0.962945  0.567990  1
  Co  Co11  1  0.250000  0.406533  0.489357  1
  Co  Co12  1  0.250000  0.093508  0.988780  1
  Co  Co13  1  0.750000  0.593878  0.511339  1
  Co  Co14  1  0.750000  0.906397  0.010864  1
  Co  Co15  1  0.250000  0.223659  0.173905  1
  Co  Co16  1  0.250000  0.276508  0.674871  1
  Co  Co17  1  0.750000  0.776434  0.825662  1
  Co  Co18  1  0.750000  0.723068  0.325860  1
  Co  Co19  1  0.250000  0.884569  0.703498  1
  Co  Co20  1  0.250000  0.613935  0.202586  1
  Co  Co21  1  0.750000  0.115137  0.296378  1
  Co  Co22  1  0.750000  0.387089  0.797768  1
  Co  Co23  1  0.250000  0.463529  0.931658  1
  P  P24  1  0.250000  0.424552  0.115888  1
  P  P25  1  0.250000  0.074099  0.614642  1
  P  P26  1  0.750000  0.576836  0.884520  1
  P  P27  1  0.750000  0.926020  0.385052  1
  P  P28  1  0.250000  0.268864  0.859027  1
  P  P29  1  0.250000  0.229409  0.358618  1
  P  P30  1  0.750000  0.729093  0.141952  1
  P  P31  1  0.750000  0.770654  0.641194  1
  P  P32  1  0.250000  0.589978  0.389768  1
  P  P33  1  0.250000  0.910092  0.889568  1
  P  P34  1  0.750000  0.410052  0.610275  1
  P  P35  1  0.750000  0.090124  0.110317  1
