# generated using pymatgen
data_Y3In4CoIr
_symmetry_space_group_name_H-M   'P 1'
_cell_length_a   7.93932800
_cell_length_b   7.93932823
_cell_length_c   3.69210300
_cell_angle_alpha   90.00000000
_cell_angle_beta   90.00000000
_cell_angle_gamma   119.99999905
_symmetry_Int_Tables_number   1
_chemical_formula_structural   Y3In4CoIr
_chemical_formula_sum   'Y3 In4 Co1 Ir1'
_cell_volume   201.54496146
_cell_formula_units_Z   1
loop_
 _symmetry_equiv_pos_site_id
 _symmetry_equiv_pos_as_xyz
  1  'x, y, z'
loop_
 _atom_site_type_symbol
 _atom_site_label
 _atom_site_symmetry_multiplicity
 _atom_site_fract_x
 _atom_site_fract_y
 _atom_site_fract_z
 _atom_site_occupancy
  Y  Y0  1  0.700586  0.952929  0.500000  1
  Y  Y1  1  0.252343  0.299414  0.500000  1
  Y  Y2  1  0.047071  0.747657  0.500000  1
  In  In3  1  0.917392  0.335877  0.000000  1
  In  In4  1  0.418486  0.082608  0.000000  1
  In  In5  1  0.664123  0.581514  0.000000  1
  In  In6  1  0.333333  0.666667  0.000000  1
  Co  Co7  1  0.666667  0.333333  0.500000  1
  Ir  Ir8  1  0.000000  0.000000  0.000000  1
