# generated using pymatgen
data_Zr8In4Cu5Au3
_symmetry_space_group_name_H-M   'P 1'
_cell_length_a   7.41771674
_cell_length_b   7.41439992
_cell_length_c   6.97575712
_cell_angle_alpha   89.96825276
_cell_angle_beta   90.04583215
_cell_angle_gamma   90.28957629
_symmetry_Int_Tables_number   1
_chemical_formula_structural   Zr8In4Cu5Au3
_chemical_formula_sum   'Zr8 In4 Cu5 Au3'
_cell_volume   383.64703984
_cell_formula_units_Z   1
loop_
 _symmetry_equiv_pos_site_id
 _symmetry_equiv_pos_as_xyz
  1  'x, y, z'
loop_
 _atom_site_type_symbol
 _atom_site_label
 _atom_site_symmetry_multiplicity
 _atom_site_fract_x
 _atom_site_fract_y
 _atom_site_fract_z
 _atom_site_occupancy
  Zr  Zr0  1  0.140267  0.155824  0.003816  1
  Zr  Zr1  1  0.838102  0.851926  0.001358  1
  Zr  Zr2  1  0.656241  0.350276  0.496105  1
  Zr  Zr3  1  0.361066  0.646722  0.495896  1
  Zr  Zr4  1  0.700695  0.303745  0.001885  1
  Zr  Zr5  1  0.313328  0.694394  0.003306  1
  Zr  Zr6  1  0.795487  0.802604  0.498706  1
  Zr  Zr7  1  0.192984  0.202241  0.495139  1
  In  In8  1  0.505262  0.005108  0.249859  1
  In  In9  1  0.507935  0.996665  0.750067  1
  In  In10  1  0.997312  0.495788  0.248694  1
  In  In11  1  0.991122  0.497077  0.750191  1
  Cu  Cu12  1  0.379947  0.376081  0.203472  1
  Cu  Cu13  1  0.629465  0.625049  0.800093  1
  Cu  Cu14  1  0.624255  0.618245  0.199268  1
  Cu  Cu15  1  0.871737  0.126472  0.699096  1
  Cu  Cu16  1  0.871088  0.125504  0.302276  1
  Au  Au17  1  0.378075  0.374778  0.798416  1
  Au  Au18  1  0.122186  0.875608  0.293041  1
  Au  Au19  1  0.123444  0.875895  0.709317  1
