# generated using pymatgen
data_Mg4AlCo10SiB4
_symmetry_space_group_name_H-M   'P 1'
_cell_length_a   8.77577700
_cell_length_b   8.77577700
_cell_length_c   2.76434400
_cell_angle_alpha   90.00000000
_cell_angle_beta   90.00000000
_cell_angle_gamma   90.00000000
_symmetry_Int_Tables_number   1
_chemical_formula_structural   Mg4AlCo10SiB4
_chemical_formula_sum   'Mg4 Al1 Co10 Si1 B4'
_cell_volume   212.89391295
_cell_formula_units_Z   1
loop_
 _symmetry_equiv_pos_site_id
 _symmetry_equiv_pos_as_xyz
  1  'x, y, z'
loop_
 _atom_site_type_symbol
 _atom_site_label
 _atom_site_symmetry_multiplicity
 _atom_site_fract_x
 _atom_site_fract_y
 _atom_site_fract_z
 _atom_site_occupancy
  Mg  Mg0  1  0.177429  0.675771  0.000000  1
  Mg  Mg1  1  0.324229  0.177429  0.000000  1
  Mg  Mg2  1  0.675771  0.822571  0.000000  1
  Mg  Mg3  1  0.822571  0.324229  0.000000  1
  Al  Al4  1  0.500000  0.500000  0.000000  1
  Co  Co5  1  0.000000  0.500000  0.500000  1
  Co  Co6  1  0.065123  0.212983  0.500000  1
  Co  Co7  1  0.212983  0.934877  0.500000  1
  Co  Co8  1  0.278750  0.428603  0.500000  1
  Co  Co9  1  0.428603  0.721250  0.500000  1
  Co  Co10  1  0.500000  0.000000  0.500000  1
  Co  Co11  1  0.571397  0.278750  0.500000  1
  Co  Co12  1  0.721250  0.571397  0.500000  1
  Co  Co13  1  0.787017  0.065123  0.500000  1
  Co  Co14  1  0.934877  0.787017  0.500000  1
  Si  Si15  1  0.000000  0.000000  0.000000  1
  B  B16  1  0.121157  0.375647  0.000000  1
  B  B17  1  0.375647  0.878843  0.000000  1
  B  B18  1  0.624353  0.121157  0.000000  1
  B  B19  1  0.878843  0.624353  0.000000  1
