# generated using pymatgen
data_Tm6Zr4Sn5Te
_symmetry_space_group_name_H-M   'P 1'
_cell_length_a   6.05161400
_cell_length_b   8.81021372
_cell_length_c   8.81021500
_cell_angle_alpha   59.98084811
_cell_angle_beta   89.99998106
_cell_angle_gamma   90.00001004
_symmetry_Int_Tables_number   1
_chemical_formula_structural   Tm6Zr4Sn5Te
_chemical_formula_sum   'Tm6 Zr4 Sn5 Te1'
_cell_volume   406.71571704
_cell_formula_units_Z   1
loop_
 _symmetry_equiv_pos_site_id
 _symmetry_equiv_pos_as_xyz
  1  'x, y, z'
loop_
 _atom_site_type_symbol
 _atom_site_label
 _atom_site_symmetry_multiplicity
 _atom_site_fract_x
 _atom_site_fract_y
 _atom_site_fract_z
 _atom_site_occupancy
  Tm  Tm0  1  0.749999  0.240279  0.759721  1
  Tm  Tm1  1  0.750002  0.760552  0.995862  1
  Tm  Tm2  1  0.750002  0.004138  0.239448  1
  Tm  Tm3  1  0.250000  0.756782  0.243218  1
  Tm  Tm4  1  0.250001  0.239048  0.002526  1
  Tm  Tm5  1  0.250001  0.997474  0.760952  1
  Zr  Zr6  1  0.499171  0.334062  0.334134  1
  Zr  Zr7  1  0.499171  0.665866  0.665938  1
  Zr  Zr8  1  0.000830  0.665864  0.665940  1
  Zr  Zr9  1  0.000830  0.334060  0.334136  1
  Sn  Sn10  1  0.750000  0.400611  0.000303  1
  Sn  Sn11  1  0.750000  0.999697  0.599389  1
  Sn  Sn12  1  0.249998  0.397379  0.602621  1
  Sn  Sn13  1  0.249998  0.599650  0.000596  1
  Sn  Sn14  1  0.249998  0.999404  0.400350  1
  Te  Te15  1  0.750001  0.605134  0.394866  1
