# generated using pymatgen
data_Ho9LuCd3Ni
_symmetry_space_group_name_H-M   'P 1'
_cell_length_a   9.53604700
_cell_length_b   9.53604679
_cell_length_c   9.67606000
_cell_angle_alpha   90.00000000
_cell_angle_beta   90.00000000
_cell_angle_gamma   119.99999726
_symmetry_Int_Tables_number   1
_chemical_formula_structural   Ho9LuCd3Ni
_chemical_formula_sum   'Ho18 Lu2 Cd6 Ni2'
_cell_volume   762.01926767
_cell_formula_units_Z   2
loop_
 _symmetry_equiv_pos_site_id
 _symmetry_equiv_pos_as_xyz
  1  'x, y, z'
loop_
 _atom_site_type_symbol
 _atom_site_label
 _atom_site_symmetry_multiplicity
 _atom_site_fract_x
 _atom_site_fract_y
 _atom_site_fract_z
 _atom_site_occupancy
  Ho  Ho0  1  0.543125  0.456875  0.250000  1
  Ho  Ho1  1  0.543125  0.086251  0.250000  1
  Ho  Ho2  1  0.913749  0.456875  0.250000  1
  Ho  Ho3  1  0.456875  0.543125  0.750000  1
  Ho  Ho4  1  0.456875  0.913749  0.750000  1
  Ho  Ho5  1  0.086251  0.543125  0.750000  1
  Ho  Ho6  1  0.209733  0.790267  0.436773  1
  Ho  Ho7  1  0.209733  0.419466  0.436773  1
  Ho  Ho8  1  0.580534  0.790267  0.436773  1
  Ho  Ho9  1  0.790267  0.209733  0.563227  1
  Ho  Ho10  1  0.790267  0.580534  0.563227  1
  Ho  Ho11  1  0.419466  0.209733  0.563227  1
  Ho  Ho12  1  0.790267  0.209733  0.936773  1
  Ho  Ho13  1  0.790267  0.580534  0.936773  1
  Ho  Ho14  1  0.419466  0.209733  0.936773  1
  Ho  Ho15  1  0.209733  0.790267  0.063227  1
  Ho  Ho16  1  0.209733  0.419466  0.063227  1
  Ho  Ho17  1  0.580534  0.790267  0.063227  1
  Lu  Lu18  1  0.000000  0.000000  0.500000  1
  Lu  Lu19  1  0.000000  0.000000  0.000000  1
  Cd  Cd20  1  0.885595  0.114405  0.250000  1
  Cd  Cd21  1  0.885595  0.771188  0.250000  1
  Cd  Cd22  1  0.228812  0.114405  0.250000  1
  Cd  Cd23  1  0.114405  0.885595  0.750000  1
  Cd  Cd24  1  0.114405  0.228812  0.750000  1
  Cd  Cd25  1  0.771188  0.885595  0.750000  1
  Ni  Ni26  1  0.333333  0.666667  0.250000  1
  Ni  Ni27  1  0.666667  0.333333  0.750000  1
