# generated using pymatgen
data_LiTb2Ho(B6Os)2
_symmetry_space_group_name_H-M   'P 1'
_cell_length_a   3.60190000
_cell_length_b   9.00277454
_cell_length_c   11.40725695
_cell_angle_alpha   89.80185906
_cell_angle_beta   90.00000000
_cell_angle_gamma   90.00000000
_symmetry_Int_Tables_number   1
_chemical_formula_structural   LiTb2Ho(B6Os)2
_chemical_formula_sum   'Li2 Tb4 Ho2 B24 Os4'
_cell_volume   369.90197712
_cell_formula_units_Z   2
loop_
 _symmetry_equiv_pos_site_id
 _symmetry_equiv_pos_as_xyz
  1  'x, y, z'
loop_
 _atom_site_type_symbol
 _atom_site_label
 _atom_site_symmetry_multiplicity
 _atom_site_fract_x
 _atom_site_fract_y
 _atom_site_fract_z
 _atom_site_occupancy
  Li  Li0  1  0.000000  0.945377  0.375746  1
  Li  Li1  1  0.000000  0.054623  0.624254  1
  Tb  Tb2  1  0.000000  0.316247  0.415629  1
  Tb  Tb3  1  0.000000  0.683753  0.584371  1
  Tb  Tb4  1  0.000000  0.824788  0.088278  1
  Tb  Tb5  1  0.000000  0.175212  0.911722  1
  Ho  Ho6  1  0.000000  0.442395  0.131712  1
  Ho  Ho7  1  0.000000  0.557605  0.868288  1
  B  B8  1  0.500000  0.555508  0.433430  1
  B  B9  1  0.500000  0.444492  0.566570  1
  B  B10  1  0.500000  0.053218  0.068712  1
  B  B11  1  0.500000  0.946782  0.931288  1
  B  B12  1  0.500000  0.759988  0.418111  1
  B  B13  1  0.500000  0.240012  0.581889  1
  B  B14  1  0.500000  0.247489  0.083114  1
  B  B15  1  0.500000  0.752511  0.916886  1
  B  B16  1  0.500000  0.796435  0.266473  1
  B  B17  1  0.500000  0.203565  0.733527  1
  B  B18  1  0.500000  0.287455  0.237058  1
  B  B19  1  0.500000  0.712545  0.762942  1
  B  B20  1  0.500000  0.632746  0.187348  1
  B  B21  1  0.500000  0.367254  0.812652  1
  B  B22  1  0.500000  0.122332  0.319783  1
  B  B23  1  0.500000  0.877668  0.680217  1
  B  B24  1  0.500000  0.979015  0.215537  1
  B  B25  1  0.500000  0.020985  0.784463  1
  B  B26  1  0.500000  0.483472  0.289877  1
  B  B27  1  0.500000  0.516528  0.710123  1
  B  B28  1  0.500000  0.602676  0.027890  1
  B  B29  1  0.500000  0.397324  0.972110  1
  B  B30  1  0.500000  0.090894  0.474417  1
  B  B31  1  0.500000  0.909106  0.525583  1
  Os  Os32  1  0.000000  0.643792  0.323611  1
  Os  Os33  1  0.000000  0.356208  0.676389  1
  Os  Os34  1  0.000000  0.134353  0.184676  1
  Os  Os35  1  0.000000  0.865647  0.815324  1
