# generated using pymatgen
data_TbYb5(Si3Ru)8
_symmetry_space_group_name_H-M   'P 1'
_cell_length_a   10.14514551
_cell_length_b   10.14514507
_cell_length_c   8.14124280
_cell_angle_alpha   89.99535476
_cell_angle_beta   89.99535953
_cell_angle_gamma   132.66206095
_symmetry_Int_Tables_number   1
_chemical_formula_structural   TbYb5(Si3Ru)8
_chemical_formula_sum   'Tb1 Yb5 Si24 Ru8'
_cell_volume   616.18241615
_cell_formula_units_Z   1
loop_
 _symmetry_equiv_pos_site_id
 _symmetry_equiv_pos_as_xyz
  1  'x, y, z'
loop_
 _atom_site_type_symbol
 _atom_site_label
 _atom_site_symmetry_multiplicity
 _atom_site_fract_x
 _atom_site_fract_y
 _atom_site_fract_z
 _atom_site_occupancy
  Tb  Tb0  1  0.000000  0.000000  0.000000  1
  Yb  Yb1  1  0.500000  0.500000  0.500000  1
  Yb  Yb2  1  0.501977  0.001936  0.749919  1
  Yb  Yb3  1  0.998064  0.498023  0.250081  1
  Yb  Yb4  1  0.498023  0.998064  0.250081  1
  Yb  Yb5  1  0.001936  0.501977  0.749919  1
  Si  Si6  1  0.793825  0.206175  0.500000  1
  Si  Si7  1  0.293963  0.706037  0.000000  1
  Si  Si8  1  0.206175  0.793825  0.500000  1
  Si  Si9  1  0.706037  0.293963  0.000000  1
  Si  Si10  1  0.334965  0.334965  0.831404  1
  Si  Si11  1  0.665035  0.665035  0.168596  1
  Si  Si12  1  0.167806  0.167806  0.334259  1
  Si  Si13  1  0.832194  0.832194  0.665741  1
  Si  Si14  1  0.124031  0.889662  0.728237  1
  Si  Si15  1  0.110338  0.875969  0.271763  1
  Si  Si16  1  0.608860  0.375828  0.229928  1
  Si  Si17  1  0.624172  0.391140  0.770072  1
  Si  Si18  1  0.875969  0.110338  0.271763  1
  Si  Si19  1  0.889662  0.124031  0.728237  1
  Si  Si20  1  0.391140  0.624172  0.770072  1
  Si  Si21  1  0.375828  0.608860  0.229928  1
  Si  Si22  1  0.346676  0.113502  0.506834  1
  Si  Si23  1  0.886498  0.653324  0.493166  1
  Si  Si24  1  0.389649  0.154755  0.006317  1
  Si  Si25  1  0.845245  0.610351  0.993683  1
  Si  Si26  1  0.653324  0.886498  0.493166  1
  Si  Si27  1  0.113502  0.346676  0.506834  1
  Si  Si28  1  0.610351  0.845245  0.993683  1
  Si  Si29  1  0.154755  0.389649  0.006317  1
  Ru  Ru30  1  0.669198  0.330802  0.500000  1
  Ru  Ru31  1  0.168783  0.831217  0.000000  1
  Ru  Ru32  1  0.330802  0.669198  0.500000  1
  Ru  Ru33  1  0.831217  0.168783  0.000000  1
  Ru  Ru34  1  0.125242  0.125242  0.626778  1
  Ru  Ru35  1  0.874758  0.874758  0.373222  1
  Ru  Ru36  1  0.372195  0.372195  0.124098  1
  Ru  Ru37  1  0.627805  0.627805  0.875902  1
