# generated using pymatgen
data_Ce2Al20Tc3Ru
_symmetry_space_group_name_H-M   'P 1'
_cell_length_a   6.91015116
_cell_length_b   6.91585781
_cell_length_c   9.20396406
_cell_angle_alpha   89.89086526
_cell_angle_beta   89.81422405
_cell_angle_gamma   97.08371058
_symmetry_Int_Tables_number   1
_chemical_formula_structural   Ce2Al20Tc3Ru
_chemical_formula_sum   'Ce2 Al20 Tc3 Ru1'
_cell_volume   436.49311087
_cell_formula_units_Z   1
loop_
 _symmetry_equiv_pos_site_id
 _symmetry_equiv_pos_as_xyz
  1  'x, y, z'
loop_
 _atom_site_type_symbol
 _atom_site_label
 _atom_site_symmetry_multiplicity
 _atom_site_fract_x
 _atom_site_fract_y
 _atom_site_fract_z
 _atom_site_occupancy
  Ce  Ce0  1  0.877594  0.127753  0.751236  1
  Ce  Ce1  1  0.122406  0.872247  0.248764  1
  Al  Al2  1  0.591151  0.862982  0.250502  1
  Al  Al3  1  0.780168  0.521998  0.250987  1
  Al  Al4  1  0.159842  0.841077  0.899769  1
  Al  Al5  1  0.408849  0.137018  0.749498  1
  Al  Al6  1  0.622351  0.377293  0.952808  1
  Al  Al7  1  0.841256  0.158329  0.400427  1
  Al  Al8  1  0.772652  0.772881  0.000139  1
  Al  Al9  1  0.862699  0.592162  0.749855  1
  Al  Al10  1  0.840158  0.158923  0.100231  1
  Al  Al11  1  0.219832  0.478002  0.749013  1
  Al  Al12  1  0.158744  0.841671  0.599573  1
  Al  Al13  1  0.773277  0.774133  0.500101  1
  Al  Al14  1  0.476691  0.217978  0.249243  1
  Al  Al15  1  0.622645  0.377817  0.547367  1
  Al  Al16  1  0.226723  0.225867  0.499899  1
  Al  Al17  1  0.377355  0.622183  0.452633  1
  Al  Al18  1  0.137301  0.407838  0.250145  1
  Al  Al19  1  0.523309  0.782022  0.750757  1
  Al  Al20  1  0.377649  0.622707  0.047192  1
  Al  Al21  1  0.227348  0.227119  0.999861  1
  Tc  Tc22  1  0.500000  0.000000  0.000000  1
  Tc  Tc23  1  0.000000  0.500000  0.000000  1
  Tc  Tc24  1  0.000000  0.500000  0.500000  1
  Ru  Ru25  1  0.500000  0.000000  0.500000  1
