# generated using pymatgen
data_LiTm3(B4Ru5)2
_symmetry_space_group_name_H-M   'P 1'
_cell_length_a   3.03179800
_cell_length_b   8.56312191
_cell_length_c   10.12887294
_cell_angle_alpha   88.80146342
_cell_angle_beta   90.00000000
_cell_angle_gamma   90.00000000
_symmetry_Int_Tables_number   1
_chemical_formula_structural   LiTm3(B4Ru5)2
_chemical_formula_sum   'Li1 Tm3 B8 Ru10'
_cell_volume   262.90478222
_cell_formula_units_Z   1
loop_
 _symmetry_equiv_pos_site_id
 _symmetry_equiv_pos_as_xyz
  1  'x, y, z'
loop_
 _atom_site_type_symbol
 _atom_site_label
 _atom_site_symmetry_multiplicity
 _atom_site_fract_x
 _atom_site_fract_y
 _atom_site_fract_z
 _atom_site_occupancy
  Li  Li0  1  0.500000  0.852751  0.192470  1
  Tm  Tm1  1  0.500000  0.153891  0.828006  1
  Tm  Tm2  1  0.500000  0.658534  0.677804  1
  Tm  Tm3  1  0.500000  0.346171  0.309628  1
  B  B4  1  0.500000  0.964734  0.589880  1
  B  B5  1  0.500000  0.033922  0.410387  1
  B  B6  1  0.500000  0.848620  0.905595  1
  B  B7  1  0.500000  0.134992  0.103572  1
  B  B8  1  0.500000  0.655940  0.389035  1
  B  B9  1  0.500000  0.352101  0.596845  1
  B  B10  1  0.500000  0.464150  0.910931  1
  B  B11  1  0.500000  0.542561  0.088043  1
  Ru  Ru12  1  0.000000  0.652352  0.949376  1
  Ru  Ru13  1  0.000000  0.338316  0.046287  1
  Ru  Ru14  1  0.000000  0.844272  0.456735  1
  Ru  Ru15  1  0.000000  0.159111  0.546270  1
  Ru  Ru16  1  0.000000  0.982423  0.010445  1
  Ru  Ru17  1  0.000000  0.403352  0.758780  1
  Ru  Ru18  1  0.000000  0.617626  0.232368  1
  Ru  Ru19  1  0.000000  0.501606  0.494628  1
  Ru  Ru20  1  0.000000  0.904683  0.741977  1
  Ru  Ru21  1  0.000000  0.087891  0.260940  1
