# generated using pymatgen
data_Zr5Co19(SiP3)3
_symmetry_space_group_name_H-M   'P 1'
_cell_length_a   11.86685900
_cell_length_b   11.86685894
_cell_length_c   3.62052000
_cell_angle_alpha   90.00000000
_cell_angle_beta   90.00000000
_cell_angle_gamma   120.00000295
_symmetry_Int_Tables_number   1
_chemical_formula_structural   Zr5Co19(SiP3)3
_chemical_formula_sum   'Zr5 Co19 Si3 P9'
_cell_volume   441.54312993
_cell_formula_units_Z   1
loop_
 _symmetry_equiv_pos_site_id
 _symmetry_equiv_pos_as_xyz
  1  'x, y, z'
loop_
 _atom_site_type_symbol
 _atom_site_label
 _atom_site_symmetry_multiplicity
 _atom_site_fract_x
 _atom_site_fract_y
 _atom_site_fract_z
 _atom_site_occupancy
  Zr  Zr0  1  0.333333  0.666667  0.000000  1
  Zr  Zr1  1  0.666667  0.333333  0.000000  1
  Zr  Zr2  1  0.000000  0.182867  0.500000  1
  Zr  Zr3  1  0.817133  0.817133  0.500000  1
  Zr  Zr4  1  0.182867  0.000000  0.500000  1
  Co  Co5  1  0.623479  0.824703  0.000000  1
  Co  Co6  1  0.175297  0.798777  0.000000  1
  Co  Co7  1  0.201223  0.376521  0.000000  1
  Co  Co8  1  0.376521  0.201223  0.000000  1
  Co  Co9  1  0.824703  0.623479  0.000000  1
  Co  Co10  1  0.798777  0.175297  0.000000  1
  Co  Co11  1  0.000000  0.554021  0.000000  1
  Co  Co12  1  0.445979  0.445979  0.000000  1
  Co  Co13  1  0.554021  0.000000  0.000000  1
  Co  Co14  1  0.514450  0.643080  0.500000  1
  Co  Co15  1  0.356920  0.871370  0.500000  1
  Co  Co16  1  0.128630  0.485550  0.500000  1
  Co  Co17  1  0.485550  0.128630  0.500000  1
  Co  Co18  1  0.643080  0.514450  0.500000  1
  Co  Co19  1  0.871370  0.356920  0.500000  1
  Co  Co20  1  0.000000  0.715052  0.500000  1
  Co  Co21  1  0.284948  0.284948  0.500000  1
  Co  Co22  1  0.715052  0.000000  0.500000  1
  Co  Co23  1  0.000000  0.000000  0.000000  1
  Si  Si24  1  0.000000  0.363272  0.000000  1
  Si  Si25  1  0.636728  0.636728  0.000000  1
  Si  Si26  1  0.363272  0.000000  0.000000  1
  P  P27  1  0.517605  0.832896  0.500000  1
  P  P28  1  0.167104  0.684709  0.500000  1
  P  P29  1  0.315291  0.482395  0.500000  1
  P  P30  1  0.482395  0.315291  0.500000  1
  P  P31  1  0.832896  0.517605  0.500000  1
  P  P32  1  0.684709  0.167104  0.500000  1
  P  P33  1  0.000000  0.822381  0.000000  1
  P  P34  1  0.177619  0.177619  0.000000  1
  P  P35  1  0.822381  0.000000  0.000000  1
