# generated using pymatgen
data_Sc12Si12TcOs3
_symmetry_space_group_name_H-M   'P 1'
_cell_length_a   3.98713000
_cell_length_b   10.36037340
_cell_length_c   11.72211391
_cell_angle_alpha   89.96143800
_cell_angle_beta   90.00000000
_cell_angle_gamma   90.00000000
_symmetry_Int_Tables_number   1
_chemical_formula_structural   Sc12Si12TcOs3
_chemical_formula_sum   'Sc12 Si12 Tc1 Os3'
_cell_volume   484.21879575
_cell_formula_units_Z   1
loop_
 _symmetry_equiv_pos_site_id
 _symmetry_equiv_pos_as_xyz
  1  'x, y, z'
loop_
 _atom_site_type_symbol
 _atom_site_label
 _atom_site_symmetry_multiplicity
 _atom_site_fract_x
 _atom_site_fract_y
 _atom_site_fract_z
 _atom_site_occupancy
  Sc  Sc0  1  0.250000  0.876772  0.018085  1
  Sc  Sc1  1  0.250000  0.622530  0.517705  1
  Sc  Sc2  1  0.750000  0.123596  0.981509  1
  Sc  Sc3  1  0.750000  0.376602  0.481645  1
  Sc  Sc4  1  0.250000  0.921884  0.605741  1
  Sc  Sc5  1  0.250000  0.577786  0.106117  1
  Sc  Sc6  1  0.750000  0.078302  0.393888  1
  Sc  Sc7  1  0.750000  0.422142  0.894890  1
  Sc  Sc8  1  0.250000  0.659465  0.798560  1
  Sc  Sc9  1  0.250000  0.840829  0.297962  1
  Sc  Sc10  1  0.750000  0.340542  0.202178  1
  Sc  Sc11  1  0.750000  0.161895  0.702169  1
  Si  Si12  1  0.250000  0.017983  0.821846  1
  Si  Si13  1  0.250000  0.483912  0.321910  1
  Si  Si14  1  0.750000  0.983917  0.177490  1
  Si  Si15  1  0.750000  0.515503  0.677652  1
  Si  Si16  1  0.250000  0.253214  0.843654  1
  Si  Si17  1  0.250000  0.248547  0.343192  1
  Si  Si18  1  0.750000  0.747906  0.157289  1
  Si  Si19  1  0.750000  0.751030  0.655074  1
  Si  Si20  1  0.250000  0.194041  0.545340  1
  Si  Si21  1  0.250000  0.305843  0.046236  1
  Si  Si22  1  0.750000  0.804695  0.453725  1
  Si  Si23  1  0.750000  0.691690  0.956264  1
  Tc  Tc24  1  0.750000  0.889989  0.822966  1
  Os  Os25  1  0.250000  0.389357  0.676213  1
  Os  Os26  1  0.250000  0.110257  0.177565  1
  Os  Os27  1  0.750000  0.609771  0.323131  1
