# generated using pymatgen
data_Er3ScCo4(SnH)4
_symmetry_space_group_name_H-M   'P 1'
_cell_length_a   4.22334600
_cell_length_b   7.01990811
_cell_length_c   8.06181227
_cell_angle_alpha   89.83638420
_cell_angle_beta   90.00000000
_cell_angle_gamma   90.00000000
_symmetry_Int_Tables_number   1
_chemical_formula_structural   Er3ScCo4(SnH)4
_chemical_formula_sum   'Er3 Sc1 Co4 Sn4 H4'
_cell_volume   239.01161150
_cell_formula_units_Z   1
loop_
 _symmetry_equiv_pos_site_id
 _symmetry_equiv_pos_as_xyz
  1  'x, y, z'
loop_
 _atom_site_type_symbol
 _atom_site_label
 _atom_site_symmetry_multiplicity
 _atom_site_fract_x
 _atom_site_fract_y
 _atom_site_fract_z
 _atom_site_occupancy
  Er  Er0  1  0.250000  0.986508  0.316266  1
  Er  Er1  1  0.250000  0.486370  0.185608  1
  Er  Er2  1  0.750000  0.514055  0.813123  1
  Sc  Sc3  1  0.750000  0.011178  0.680946  1
  Co  Co4  1  0.750000  0.772046  0.102654  1
  Co  Co5  1  0.250000  0.227257  0.893419  1
  Co  Co6  1  0.250000  0.732017  0.604062  1
  Co  Co7  1  0.750000  0.270087  0.399018  1
  Sn  Sn8  1  0.750000  0.655760  0.427542  1
  Sn  Sn9  1  0.250000  0.340748  0.575190  1
  Sn  Sn10  1  0.250000  0.849334  0.919704  1
  Sn  Sn11  1  0.750000  0.153864  0.071211  1
  H  H12  1  0.250000  0.449711  0.918148  1
  H  H13  1  0.750000  0.548764  0.080558  1
  H  H14  1  0.750000  0.047366  0.426548  1
  H  H15  1  0.250000  0.954934  0.586003  1
