# generated using pymatgen
data_Nb6Al6Cu5Au
_symmetry_space_group_name_H-M   'P 1'
_cell_length_a   8.74529600
_cell_length_b   8.73894673
_cell_length_c   8.10427600
_cell_angle_alpha   90.00000000
_cell_angle_beta   90.00000000
_cell_angle_gamma   120.45307946
_symmetry_Int_Tables_number   1
_chemical_formula_structural   Nb6Al6Cu5Au
_chemical_formula_sum   'Nb12 Al12 Cu10 Au2'
_cell_volume   533.92163091
_cell_formula_units_Z   2
loop_
 _symmetry_equiv_pos_site_id
 _symmetry_equiv_pos_as_xyz
  1  'x, y, z'
loop_
 _atom_site_type_symbol
 _atom_site_label
 _atom_site_symmetry_multiplicity
 _atom_site_fract_x
 _atom_site_fract_y
 _atom_site_fract_z
 _atom_site_occupancy
  Nb  Nb0  1  0.334732  0.995990  0.070167  1
  Nb  Nb1  1  0.665268  0.004010  0.929833  1
  Nb  Nb2  1  0.996013  0.336739  0.067793  1
  Nb  Nb3  1  0.665268  0.004010  0.570167  1
  Nb  Nb4  1  0.996013  0.336739  0.432207  1
  Nb  Nb5  1  0.003987  0.663261  0.932207  1
  Nb  Nb6  1  0.334732  0.995990  0.429833  1
  Nb  Nb7  1  0.003987  0.663261  0.567793  1
  Nb  Nb8  1  0.660099  0.660854  0.069646  1
  Nb  Nb9  1  0.339901  0.339146  0.930354  1
  Nb  Nb10  1  0.339901  0.339146  0.569646  1
  Nb  Nb11  1  0.660099  0.660854  0.430354  1
  Al  Al12  1  0.841688  0.342589  0.750000  1
  Al  Al13  1  0.158312  0.657411  0.250000  1
  Al  Al14  1  0.340074  0.667205  0.507245  1
  Al  Al15  1  0.659926  0.332795  0.492755  1
  Al  Al16  1  0.659926  0.332795  0.007245  1
  Al  Al17  1  0.340074  0.667205  0.992755  1
  Al  Al18  1  0.188500  0.000141  0.750000  1
  Al  Al19  1  0.811500  0.999859  0.250000  1
  Al  Al20  1  0.008868  0.182412  0.750000  1
  Al  Al21  1  0.991132  0.817588  0.250000  1
  Al  Al22  1  0.816585  0.812860  0.750000  1
  Al  Al23  1  0.183415  0.187140  0.250000  1
  Cu  Cu24  1  0.165177  0.497455  0.750000  1
  Cu  Cu25  1  0.834823  0.502545  0.250000  1
  Cu  Cu26  1  0.505350  0.665908  0.750000  1
  Cu  Cu27  1  0.503403  0.165835  0.750000  1
  Cu  Cu28  1  0.494650  0.334092  0.250000  1
  Cu  Cu29  1  0.496597  0.834165  0.250000  1
  Cu  Cu30  1  0.338279  0.838559  0.750000  1
  Cu  Cu31  1  0.664898  0.499315  0.750000  1
  Cu  Cu32  1  0.661721  0.161441  0.250000  1
  Cu  Cu33  1  0.335102  0.500685  0.250000  1
  Au  Au34  1  0.000000  0.000000  0.500000  1
  Au  Au35  1  0.000000  0.000000  0.000000  1
