# generated using pymatgen
data_TbP2Cl8O3
_symmetry_space_group_name_H-M   'P 1'
_cell_length_a   10.38016379
_cell_length_b   11.22201764
_cell_length_c   9.29913755
_cell_angle_alpha   115.05653636
_cell_angle_beta   119.16023197
_cell_angle_gamma   86.18995984
_symmetry_Int_Tables_number   1
_chemical_formula_structural   TbP2Cl8O3
_chemical_formula_sum   'Tb2 P4 Cl16 O6'
_cell_volume   843.40583374
_cell_formula_units_Z   2
loop_
 _symmetry_equiv_pos_site_id
 _symmetry_equiv_pos_as_xyz
  1  'x, y, z'
loop_
 _atom_site_type_symbol
 _atom_site_label
 _atom_site_symmetry_multiplicity
 _atom_site_fract_x
 _atom_site_fract_y
 _atom_site_fract_z
 _atom_site_occupancy
  Tb  Tb0  1  0.162209  0.230607  0.277729  1
  Tb  Tb1  1  0.841384  0.772946  0.729830  1
  P  P2  1  0.771146  0.079023  0.009705  1
  P  P3  1  0.815783  0.641409  0.030595  1
  P  P4  1  0.180722  0.358232  0.968507  1
  P  P5  1  0.229625  0.924421  0.992748  1
  Cl  Cl6  1  0.802602  0.450811  0.981358  1
  Cl  Cl7  1  0.631994  0.695558  0.035813  1
  Cl  Cl8  1  0.706205  0.101946  0.190238  1
  Cl  Cl9  1  0.401606  0.883927  0.184510  1
  Cl  Cl10  1  0.985770  0.742696  0.284944  1
  Cl  Cl11  1  0.171705  0.079136  0.420144  1
  Cl  Cl12  1  0.394911  0.404000  0.557339  1
  Cl  Cl13  1  0.112265  0.480992  0.522451  1
  Cl  Cl14  1  0.888215  0.519508  0.476277  1
  Cl  Cl15  1  0.625973  0.580520  0.437368  1
  Cl  Cl16  1  0.818302  0.917353  0.574141  1
  Cl  Cl17  1  0.010072  0.258507  0.714138  1
  Cl  Cl18  1  0.598976  0.119194  0.817403  1
  Cl  Cl19  1  0.293730  0.901587  0.811650  1
  Cl  Cl20  1  0.363434  0.301822  0.961747  1
  Cl  Cl21  1  0.197174  0.549202  0.018327  1
  O  O22  1  0.217343  0.069197  0.081114  1
  O  O23  1  0.907826  0.182702  0.104847  1
  O  O24  1  0.161241  0.338795  0.105765  1
  O  O25  1  0.834640  0.662236  0.893665  1
  O  O26  1  0.092911  0.820052  0.896841  1
  O  O27  1  0.782244  0.933623  0.920811  1
