# generated using pymatgen
data_HoZr3B8
_symmetry_space_group_name_H-M   'P 1'
_cell_length_a   3.20055900
_cell_length_b   3.20056027
_cell_length_c   14.49992500
_cell_angle_alpha   90.00000000
_cell_angle_beta   90.00000000
_cell_angle_gamma   120.00001789
_symmetry_Int_Tables_number   1
_chemical_formula_structural   HoZr3B8
_chemical_formula_sum   'Ho1 Zr3 B8'
_cell_volume   128.63174361
_cell_formula_units_Z   1
loop_
 _symmetry_equiv_pos_site_id
 _symmetry_equiv_pos_as_xyz
  1  'x, y, z'
loop_
 _atom_site_type_symbol
 _atom_site_label
 _atom_site_symmetry_multiplicity
 _atom_site_fract_x
 _atom_site_fract_y
 _atom_site_fract_z
 _atom_site_occupancy
  Ho  Ho0  1  0.000000  0.000000  0.000000  1
  Zr  Zr1  1  0.000000  0.000000  0.743325  1
  Zr  Zr2  1  0.000000  0.000000  0.500000  1
  Zr  Zr3  1  0.000000  0.000000  0.256675  1
  B  B4  1  0.666667  0.333333  0.865375  1
  B  B5  1  0.666667  0.333333  0.621648  1
  B  B6  1  0.666667  0.333333  0.378352  1
  B  B7  1  0.666667  0.333333  0.134625  1
  B  B8  1  0.333333  0.666667  0.865375  1
  B  B9  1  0.333333  0.666667  0.621648  1
  B  B10  1  0.333333  0.666667  0.378352  1
  B  B11  1  0.333333  0.666667  0.134625  1
