# generated using pymatgen
data_Ho8Al2RuPt
_symmetry_space_group_name_H-M   'P 1'
_cell_length_a   9.47267931
_cell_length_b   9.50798668
_cell_length_c   9.50821679
_cell_angle_alpha   60.35145745
_cell_angle_beta   60.15744459
_cell_angle_gamma   60.16008232
_symmetry_Int_Tables_number   1
_chemical_formula_structural   Ho8Al2RuPt
_chemical_formula_sum   'Ho16 Al4 Ru2 Pt2'
_cell_volume   608.59632129
_cell_formula_units_Z   2
loop_
 _symmetry_equiv_pos_site_id
 _symmetry_equiv_pos_as_xyz
  1  'x, y, z'
loop_
 _atom_site_type_symbol
 _atom_site_label
 _atom_site_symmetry_multiplicity
 _atom_site_fract_x
 _atom_site_fract_y
 _atom_site_fract_z
 _atom_site_occupancy
  Ho  Ho0  1  0.440843  0.434718  0.060100  1
  Ho  Ho1  1  0.645854  0.639109  0.065662  1
  Ho  Ho2  1  0.189386  0.805628  0.198477  1
  Ho  Ho3  1  0.062548  0.433864  0.060420  1
  Ho  Ho4  1  0.194132  0.806062  0.806070  1
  Ho  Ho5  1  0.063693  0.436506  0.436475  1
  Ho  Ho6  1  0.808605  0.191375  0.191361  1
  Ho  Ho7  1  0.652464  0.648978  0.648953  1
  Ho  Ho8  1  0.807334  0.199756  0.803888  1
  Ho  Ho9  1  0.189384  0.198478  0.805618  1
  Ho  Ho10  1  0.057594  0.644995  0.644987  1
  Ho  Ho11  1  0.437800  0.062221  0.062236  1
  Ho  Ho12  1  0.062552  0.060412  0.433858  1
  Ho  Ho13  1  0.645838  0.065663  0.639106  1
  Ho  Ho14  1  0.807331  0.803896  0.199739  1
  Ho  Ho15  1  0.440840  0.060115  0.434681  1
  Al  Al16  1  0.419771  0.422683  0.422659  1
  Al  Al17  1  0.422093  0.424269  0.732199  1
  Al  Al18  1  0.422093  0.732210  0.424252  1
  Al  Al19  1  0.734114  0.422828  0.422811  1
  Ru  Ru20  1  0.857492  0.426010  0.861738  1
  Ru  Ru21  1  0.857299  0.861831  0.426339  1
  Pt  Pt22  1  0.428089  0.859883  0.859863  1
  Pt  Pt23  1  0.852849  0.858512  0.858512  1
