# generated using pymatgen
data_Er3Th5(Pt2Pb)4
_symmetry_space_group_name_H-M   'P 1'
_cell_length_a   8.07364840
_cell_length_b   8.07364835
_cell_length_c   7.38112500
_cell_angle_alpha   90.00000000
_cell_angle_beta   90.00000000
_cell_angle_gamma   90.17428078
_symmetry_Int_Tables_number   1
_chemical_formula_structural   Er3Th5(Pt2Pb)4
_chemical_formula_sum   'Er3 Th5 Pt8 Pb4'
_cell_volume   481.12753597
_cell_formula_units_Z   1
loop_
 _symmetry_equiv_pos_site_id
 _symmetry_equiv_pos_as_xyz
  1  'x, y, z'
loop_
 _atom_site_type_symbol
 _atom_site_label
 _atom_site_symmetry_multiplicity
 _atom_site_fract_x
 _atom_site_fract_y
 _atom_site_fract_z
 _atom_site_occupancy
  Er  Er0  1  0.664249  0.664249  0.500000  1
  Er  Er1  1  0.837405  0.159658  0.000000  1
  Er  Er2  1  0.159658  0.837405  0.000000  1
  Th  Th3  1  0.677335  0.677335  0.000000  1
  Th  Th4  1  0.336880  0.336880  0.500000  1
  Th  Th5  1  0.825443  0.174516  0.500000  1
  Th  Th6  1  0.326692  0.326692  0.000000  1
  Th  Th7  1  0.174516  0.825443  0.500000  1
  Pt  Pt8  1  0.872036  0.872036  0.737280  1
  Pt  Pt9  1  0.126898  0.126898  0.745544  1
  Pt  Pt10  1  0.629285  0.372561  0.764583  1
  Pt  Pt11  1  0.629285  0.372561  0.235417  1
  Pt  Pt12  1  0.372561  0.629285  0.235417  1
  Pt  Pt13  1  0.126898  0.126898  0.254456  1
  Pt  Pt14  1  0.872036  0.872036  0.262720  1
  Pt  Pt15  1  0.372561  0.629285  0.764583  1
  Pb  Pb16  1  0.501841  0.996291  0.751260  1
  Pb  Pb17  1  0.501841  0.996291  0.248740  1
  Pb  Pb18  1  0.996291  0.501841  0.751260  1
  Pb  Pb19  1  0.996291  0.501841  0.248740  1
