# generated using pymatgen
data_ErHfCrB6
_symmetry_space_group_name_H-M   'P 1'
_cell_length_a   3.44378300
_cell_length_b   8.98526100
_cell_length_c   11.35210200
_cell_angle_alpha   90.00000000
_cell_angle_beta   90.00000000
_cell_angle_gamma   90.00000000
_symmetry_Int_Tables_number   1
_chemical_formula_structural   ErHfCrB6
_chemical_formula_sum   'Er4 Hf4 Cr4 B24'
_cell_volume   351.27137388
_cell_formula_units_Z   4
loop_
 _symmetry_equiv_pos_site_id
 _symmetry_equiv_pos_as_xyz
  1  'x, y, z'
loop_
 _atom_site_type_symbol
 _atom_site_label
 _atom_site_symmetry_multiplicity
 _atom_site_fract_x
 _atom_site_fract_y
 _atom_site_fract_z
 _atom_site_occupancy
  Er  Er0  1  0.000000  0.822261  0.085419  1
  Er  Er1  1  0.000000  0.177739  0.914581  1
  Er  Er2  1  0.000000  0.322261  0.414581  1
  Er  Er3  1  0.000000  0.677739  0.585419  1
  Hf  Hf4  1  0.000000  0.444084  0.129277  1
  Hf  Hf5  1  0.000000  0.555916  0.870723  1
  Hf  Hf6  1  0.000000  0.944084  0.370723  1
  Hf  Hf7  1  0.000000  0.055916  0.629277  1
  Cr  Cr8  1  0.000000  0.141769  0.182353  1
  Cr  Cr9  1  0.000000  0.858231  0.817647  1
  Cr  Cr10  1  0.000000  0.641769  0.317647  1
  Cr  Cr11  1  0.000000  0.358231  0.682353  1
  B  B12  1  0.500000  0.054146  0.067180  1
  B  B13  1  0.500000  0.945854  0.932820  1
  B  B14  1  0.500000  0.554146  0.432820  1
  B  B15  1  0.500000  0.445854  0.567180  1
  B  B16  1  0.500000  0.251871  0.082189  1
  B  B17  1  0.500000  0.748129  0.917811  1
  B  B18  1  0.500000  0.751871  0.417811  1
  B  B19  1  0.500000  0.248129  0.582189  1
  B  B20  1  0.500000  0.295050  0.236008  1
  B  B21  1  0.500000  0.704950  0.763992  1
  B  B22  1  0.500000  0.795050  0.263992  1
  B  B23  1  0.500000  0.204950  0.736008  1
  B  B24  1  0.500000  0.130359  0.316589  1
  B  B25  1  0.500000  0.869641  0.683411  1
  B  B26  1  0.500000  0.630359  0.183411  1
  B  B27  1  0.500000  0.369641  0.816589  1
  B  B28  1  0.500000  0.482152  0.287371  1
  B  B29  1  0.500000  0.517848  0.712629  1
  B  B30  1  0.500000  0.982152  0.212629  1
  B  B31  1  0.500000  0.017848  0.787371  1
  B  B32  1  0.500000  0.099600  0.473332  1
  B  B33  1  0.500000  0.900400  0.526668  1
  B  B34  1  0.500000  0.599600  0.026668  1
  B  B35  1  0.500000  0.400400  0.973332  1
