# generated using pymatgen
data_Ce4LuAl2Os3
_symmetry_space_group_name_H-M   'P 1'
_cell_length_a   8.42515310
_cell_length_b   8.44914375
_cell_length_c   8.33436266
_cell_angle_alpha   109.73909606
_cell_angle_beta   109.46465638
_cell_angle_gamma   110.34495066
_symmetry_Int_Tables_number   1
_chemical_formula_structural   Ce4LuAl2Os3
_chemical_formula_sum   'Ce8 Lu2 Al4 Os6'
_cell_volume   450.17855174
_cell_formula_units_Z   2
loop_
 _symmetry_equiv_pos_site_id
 _symmetry_equiv_pos_as_xyz
  1  'x, y, z'
loop_
 _atom_site_type_symbol
 _atom_site_label
 _atom_site_symmetry_multiplicity
 _atom_site_fract_x
 _atom_site_fract_y
 _atom_site_fract_z
 _atom_site_occupancy
  Ce  Ce0  1  0.753503  0.315691  0.561720  1
  Ce  Ce1  1  0.562230  0.752301  0.311074  1
  Ce  Ce2  1  0.712233  0.501531  0.996656  1
  Ce  Ce3  1  0.007099  0.718482  0.510011  1
  Ce  Ce4  1  0.507090  0.001517  0.716598  1
  Ce  Ce5  1  0.244263  0.185813  0.937003  1
  Ce  Ce6  1  0.938396  0.248021  0.186660  1
  Ce  Ce7  1  0.186384  0.937624  0.245750  1
  Lu  Lu8  1  0.773121  0.776907  0.777031  1
  Lu  Lu9  1  0.320789  0.569004  0.751708  1
  Al  Al10  1  0.402440  0.401451  0.406083  1
  Al  Al11  1  0.101472  0.501091  0.997057  1
  Al  Al12  1  0.004460  0.104794  0.503330  1
  Al  Al13  1  0.494769  0.995508  0.093901  1
  Os  Os14  1  0.874975  0.123467  0.749639  1
  Os  Os15  1  0.745458  0.878111  0.125471  1
  Os  Os16  1  0.116424  0.750643  0.880148  1
  Os  Os17  1  0.255213  0.622309  0.377478  1
  Os  Os18  1  0.375285  0.240799  0.621731  1
  Os  Os19  1  0.624395  0.374937  0.250951  1
