# generated using pymatgen
data_Tb3GaSn3IrRu
_symmetry_space_group_name_H-M   'P 1'
_cell_length_a   7.47694100
_cell_length_b   7.47694261
_cell_length_c   4.10713700
_cell_angle_alpha   90.00000000
_cell_angle_beta   90.00000000
_cell_angle_gamma   119.99998844
_symmetry_Int_Tables_number   1
_chemical_formula_structural   Tb3GaSn3IrRu
_chemical_formula_sum   'Tb3 Ga1 Sn3 Ir1 Ru1'
_cell_volume   198.84646422
_cell_formula_units_Z   1
loop_
 _symmetry_equiv_pos_site_id
 _symmetry_equiv_pos_as_xyz
  1  'x, y, z'
loop_
 _atom_site_type_symbol
 _atom_site_label
 _atom_site_symmetry_multiplicity
 _atom_site_fract_x
 _atom_site_fract_y
 _atom_site_fract_z
 _atom_site_occupancy
  Tb  Tb0  1  0.601946  0.013293  0.000000  1
  Tb  Tb1  1  0.986707  0.588653  0.000000  1
  Tb  Tb2  1  0.411347  0.398054  0.000000  1
  Ga  Ga3  1  0.333333  0.666667  0.500000  1
  Sn  Sn4  1  0.254895  0.005183  0.500000  1
  Sn  Sn5  1  0.994817  0.249712  0.500000  1
  Sn  Sn6  1  0.750288  0.745105  0.500000  1
  Ir  Ir7  1  0.666667  0.333333  0.500000  1
  Ru  Ru8  1  0.000000  0.000000  0.000000  1
