# generated using pymatgen
data_Lu5FeSb2
_symmetry_space_group_name_H-M   'P 1'
_cell_length_a   5.93605350
_cell_length_b   8.71950245
_cell_length_c   8.71950273
_cell_angle_alpha   83.34647880
_cell_angle_beta   70.09938801
_cell_angle_gamma   70.09938944
_symmetry_Int_Tables_number   1
_chemical_formula_structural   Lu5FeSb2
_chemical_formula_sum   'Lu10 Fe2 Sb4'
_cell_volume   399.02469909
_cell_formula_units_Z   2
loop_
 _symmetry_equiv_pos_site_id
 _symmetry_equiv_pos_as_xyz
  1  'x, y, z'
loop_
 _atom_site_type_symbol
 _atom_site_label
 _atom_site_symmetry_multiplicity
 _atom_site_fract_x
 _atom_site_fract_y
 _atom_site_fract_z
 _atom_site_occupancy
  Lu  Lu0  1  0.071342  0.118325  0.738992  1
  Lu  Lu1  1  0.928658  0.881675  0.261008  1
  Lu  Lu2  1  0.810334  0.261008  0.118325  1
  Lu  Lu3  1  0.428658  0.261008  0.881675  1
  Lu  Lu4  1  0.189666  0.738992  0.881675  1
  Lu  Lu5  1  0.571342  0.738992  0.118325  1
  Lu  Lu6  1  0.689666  0.881675  0.738992  1
  Lu  Lu7  1  0.310334  0.118325  0.261008  1
  Lu  Lu8  1  0.250000  0.500000  0.500000  1
  Lu  Lu9  1  0.750000  0.500000  0.500000  1
  Fe  Fe10  1  0.250000  0.000000  0.000000  1
  Fe  Fe11  1  0.750000  0.000000  0.000000  1
  Sb  Sb12  1  0.161029  0.500000  0.177943  1
  Sb  Sb13  1  0.838971  0.500000  0.822057  1
  Sb  Sb14  1  0.338971  0.822057  0.500000  1
  Sb  Sb15  1  0.661029  0.177943  0.500000  1
