# generated using pymatgen
data_Ho16MgCd3TcNi3
_symmetry_space_group_name_H-M   'P 1'
_cell_length_a   9.61153223
_cell_length_b   9.61153244
_cell_length_c   9.61153249
_cell_angle_alpha   59.28719011
_cell_angle_beta   59.28719320
_cell_angle_gamma   59.28718849
_symmetry_Int_Tables_number   1
_chemical_formula_structural   Ho16MgCd3TcNi3
_chemical_formula_sum   'Ho16 Mg1 Cd3 Tc1 Ni3'
_cell_volume   617.66871816
_cell_formula_units_Z   1
loop_
 _symmetry_equiv_pos_site_id
 _symmetry_equiv_pos_as_xyz
  1  'x, y, z'
loop_
 _atom_site_type_symbol
 _atom_site_label
 _atom_site_symmetry_multiplicity
 _atom_site_fract_x
 _atom_site_fract_y
 _atom_site_fract_z
 _atom_site_occupancy
  Ho  Ho0  1  0.347856  0.347856  0.347856  1
  Ho  Ho1  1  0.350625  0.350625  0.956166  1
  Ho  Ho2  1  0.350625  0.956166  0.350625  1
  Ho  Ho3  1  0.956166  0.350625  0.350625  1
  Ho  Ho4  1  0.810877  0.188019  0.188019  1
  Ho  Ho5  1  0.186377  0.812218  0.812218  1
  Ho  Ho6  1  0.188019  0.810877  0.188019  1
  Ho  Ho7  1  0.812218  0.186377  0.812218  1
  Ho  Ho8  1  0.188019  0.188019  0.810877  1
  Ho  Ho9  1  0.812218  0.812218  0.186377  1
  Ho  Ho10  1  0.936227  0.565789  0.565789  1
  Ho  Ho11  1  0.556031  0.938889  0.938889  1
  Ho  Ho12  1  0.565789  0.936227  0.565789  1
  Ho  Ho13  1  0.938889  0.556031  0.938889  1
  Ho  Ho14  1  0.565789  0.565789  0.936227  1
  Ho  Ho15  1  0.938889  0.938889  0.556031  1
  Mg  Mg16  1  0.575213  0.575213  0.575213  1
  Cd  Cd17  1  0.580318  0.580318  0.254823  1
  Cd  Cd18  1  0.580318  0.254823  0.580318  1
  Cd  Cd19  1  0.254823  0.580318  0.580318  1
  Tc  Tc20  1  0.144148  0.144148  0.144148  1
  Ni  Ni21  1  0.142582  0.142582  0.575402  1
  Ni  Ni22  1  0.142582  0.575402  0.142582  1
  Ni  Ni23  1  0.575402  0.142582  0.142582  1
