# generated using pymatgen
data_Er4B3(PtRh)6
_symmetry_space_group_name_H-M   'P 1'
_cell_length_a   4.22472600
_cell_length_b   4.22472600
_cell_length_c   16.52123200
_cell_angle_alpha   90.00000000
_cell_angle_beta   90.00000000
_cell_angle_gamma   90.00000000
_symmetry_Int_Tables_number   1
_chemical_formula_structural   Er4B3(PtRh)6
_chemical_formula_sum   'Er4 B3 Pt6 Rh6'
_cell_volume   294.87606660
_cell_formula_units_Z   1
loop_
 _symmetry_equiv_pos_site_id
 _symmetry_equiv_pos_as_xyz
  1  'x, y, z'
loop_
 _atom_site_type_symbol
 _atom_site_label
 _atom_site_symmetry_multiplicity
 _atom_site_fract_x
 _atom_site_fract_y
 _atom_site_fract_z
 _atom_site_occupancy
  Er  Er0  1  0.000000  0.000000  0.876192  1
  Er  Er1  1  0.000000  0.000000  0.123808  1
  Er  Er2  1  0.000000  0.000000  0.374508  1
  Er  Er3  1  0.000000  0.000000  0.625492  1
  B  B4  1  0.500000  0.500000  0.238862  1
  B  B5  1  0.500000  0.500000  0.500000  1
  B  B6  1  0.500000  0.500000  0.761138  1
  Pt  Pt7  1  0.500000  0.500000  0.885322  1
  Pt  Pt8  1  0.500000  0.500000  0.114678  1
  Pt  Pt9  1  0.500000  0.500000  0.371922  1
  Pt  Pt10  1  0.500000  0.500000  0.628078  1
  Pt  Pt11  1  0.500000  0.000000  0.000000  1
  Pt  Pt12  1  0.000000  0.500000  0.000000  1
  Rh  Rh13  1  0.500000  0.000000  0.250038  1
  Rh  Rh14  1  0.500000  0.000000  0.500000  1
  Rh  Rh15  1  0.500000  0.000000  0.749962  1
  Rh  Rh16  1  0.000000  0.500000  0.250038  1
  Rh  Rh17  1  0.000000  0.500000  0.500000  1
  Rh  Rh18  1  0.000000  0.500000  0.749962  1
