# generated using pymatgen
data_Sn2BPtRh5
_symmetry_space_group_name_H-M   'P 1'
_cell_length_a   5.77112984
_cell_length_b   5.74637757
_cell_length_c   5.74637655
_cell_angle_alpha   60.28520642
_cell_angle_beta   59.85740339
_cell_angle_gamma   59.85739727
_symmetry_Int_Tables_number   1
_chemical_formula_structural   Sn2BPtRh5
_chemical_formula_sum   'Sn2 B1 Pt1 Rh5'
_cell_volume   134.74663276
_cell_formula_units_Z   1
loop_
 _symmetry_equiv_pos_site_id
 _symmetry_equiv_pos_as_xyz
  1  'x, y, z'
loop_
 _atom_site_type_symbol
 _atom_site_label
 _atom_site_symmetry_multiplicity
 _atom_site_fract_x
 _atom_site_fract_y
 _atom_site_fract_z
 _atom_site_occupancy
  Sn  Sn0  1  0.249841  0.250159  0.250159  1
  Sn  Sn1  1  0.749841  0.750159  0.750159  1
  B  B2  1  0.004169  0.995831  0.995831  1
  Pt  Pt3  1  0.741420  0.258581  0.258581  1
  Rh  Rh4  1  0.253950  0.746051  0.255182  1
  Rh  Rh5  1  0.744818  0.746050  0.255183  1
  Rh  Rh6  1  0.253950  0.255182  0.746051  1
  Rh  Rh7  1  0.744818  0.255183  0.746050  1
  Rh  Rh8  1  0.257194  0.742807  0.742807  1
