# generated using pymatgen
data_TlZnAs3F18
_symmetry_space_group_name_H-M   'P 1'
_cell_length_a   9.72328500
_cell_length_b   10.67050100
_cell_length_c   14.30829300
_cell_angle_alpha   90.00000000
_cell_angle_beta   90.00000000
_cell_angle_gamma   90.00000000
_symmetry_Int_Tables_number   1
_chemical_formula_structural   TlZnAs3F18
_chemical_formula_sum   'Tl4 Zn4 As12 F72'
_cell_volume   1484.51862712
_cell_formula_units_Z   4
loop_
 _symmetry_equiv_pos_site_id
 _symmetry_equiv_pos_as_xyz
  1  'x, y, z'
loop_
 _atom_site_type_symbol
 _atom_site_label
 _atom_site_symmetry_multiplicity
 _atom_site_fract_x
 _atom_site_fract_y
 _atom_site_fract_z
 _atom_site_occupancy
  Tl  Tl0  1  0.524682  0.923709  0.750000  1
  Tl  Tl1  1  0.975318  0.423709  0.750000  1
  Tl  Tl2  1  0.475318  0.076291  0.250000  1
  Tl  Tl3  1  0.024682  0.576291  0.250000  1
  Zn  Zn4  1  0.000000  0.000000  0.500000  1
  Zn  Zn5  1  0.500000  0.500000  0.000000  1
  Zn  Zn6  1  0.000000  0.000000  0.000000  1
  Zn  Zn7  1  0.500000  0.500000  0.500000  1
  As  As8  1  0.105939  0.021404  0.750000  1
  As  As9  1  0.394061  0.521404  0.750000  1
  As  As10  1  0.894061  0.978596  0.250000  1
  As  As11  1  0.605939  0.478596  0.250000  1
  As  As12  1  0.694714  0.203925  0.548627  1
  As  As13  1  0.805286  0.703925  0.951373  1
  As  As14  1  0.305286  0.796075  0.048627  1
  As  As15  1  0.194714  0.296075  0.451373  1
  As  As16  1  0.305286  0.796075  0.451373  1
  As  As17  1  0.194714  0.296075  0.048627  1
  As  As18  1  0.694714  0.203925  0.951373  1
  As  As19  1  0.805286  0.703925  0.548627  1
  F  F20  1  0.107839  0.024820  0.621960  1
  F  F21  1  0.392161  0.524820  0.878040  1
  F  F22  1  0.892161  0.975180  0.121960  1
  F  F23  1  0.607839  0.475180  0.378040  1
  F  F24  1  0.892161  0.975180  0.378040  1
  F  F25  1  0.607839  0.475180  0.121960  1
  F  F26  1  0.107839  0.024820  0.878040  1
  F  F27  1  0.392161  0.524820  0.621960  1
  F  F28  1  0.155924  0.864696  0.750000  1
  F  F29  1  0.344076  0.364696  0.750000  1
  F  F30  1  0.844076  0.135304  0.250000  1
  F  F31  1  0.655924  0.635304  0.250000  1
  F  F32  1  0.279937  0.067131  0.750000  1
  F  F33  1  0.220063  0.567131  0.750000  1
  F  F34  1  0.720063  0.932869  0.250000  1
  F  F35  1  0.779937  0.432869  0.250000  1
  F  F36  1  0.060883  0.181406  0.750000  1
  F  F37  1  0.439117  0.681406  0.750000  1
  F  F38  1  0.939117  0.818594  0.250000  1
  F  F39  1  0.560883  0.318594  0.250000  1
  F  F40  1  0.932107  0.980750  0.750000  1
  F  F41  1  0.567893  0.480750  0.750000  1
  F  F42  1  0.067893  0.019250  0.250000  1
  F  F43  1  0.432107  0.519250  0.250000  1
  F  F44  1  0.823610  0.078179  0.555040  1
  F  F45  1  0.676390  0.578179  0.944960  1
  F  F46  1  0.176390  0.921821  0.055040  1
  F  F47  1  0.323610  0.421821  0.444960  1
  F  F48  1  0.176390  0.921821  0.444960  1
  F  F49  1  0.323610  0.421821  0.055040  1
  F  F50  1  0.823610  0.078179  0.944960  1
  F  F51  1  0.676390  0.578179  0.555040  1
  F  F52  1  0.792276  0.284532  0.466192  1
  F  F53  1  0.707724  0.784532  0.033808  1
  F  F54  1  0.207724  0.715468  0.966192  1
  F  F55  1  0.292276  0.215468  0.533808  1
  F  F56  1  0.207724  0.715468  0.533808  1
  F  F57  1  0.292276  0.215468  0.966192  1
  F  F58  1  0.792276  0.284532  0.033808  1
  F  F59  1  0.707724  0.784532  0.466192  1
  F  F60  1  0.607286  0.124018  0.459688  1
  F  F61  1  0.892714  0.624018  0.040312  1
  F  F62  1  0.392714  0.875982  0.959688  1
  F  F63  1  0.107286  0.375982  0.540312  1
  F  F64  1  0.392714  0.875982  0.540312  1
  F  F65  1  0.107286  0.375982  0.959688  1
  F  F66  1  0.607286  0.124018  0.040312  1
  F  F67  1  0.892714  0.624018  0.459688  1
  F  F68  1  0.564015  0.327579  0.548152  1
  F  F69  1  0.935985  0.827579  0.951848  1
  F  F70  1  0.435985  0.672421  0.048152  1
  F  F71  1  0.064015  0.172421  0.451848  1
  F  F72  1  0.435985  0.672421  0.451848  1
  F  F73  1  0.064015  0.172421  0.048152  1
  F  F74  1  0.564015  0.327579  0.951848  1
  F  F75  1  0.935985  0.827579  0.548152  1
  F  F76  1  0.597194  0.122884  0.632576  1
  F  F77  1  0.902806  0.622884  0.867424  1
  F  F78  1  0.402806  0.877116  0.132576  1
  F  F79  1  0.097194  0.377116  0.367424  1
  F  F80  1  0.402806  0.877116  0.367424  1
  F  F81  1  0.097194  0.377116  0.132576  1
  F  F82  1  0.597194  0.122884  0.867424  1
  F  F83  1  0.902806  0.622884  0.632576  1
  F  F84  1  0.781046  0.282253  0.639581  1
  F  F85  1  0.718954  0.782253  0.860419  1
  F  F86  1  0.218954  0.717747  0.139581  1
  F  F87  1  0.281046  0.217747  0.360419  1
  F  F88  1  0.218954  0.717747  0.360419  1
  F  F89  1  0.281046  0.217747  0.139581  1
  F  F90  1  0.781046  0.282253  0.860419  1
  F  F91  1  0.718954  0.782253  0.639581  1
