# generated using pymatgen
data_Er2(ThIr)3
_symmetry_space_group_name_H-M   'P 1'
_cell_length_a   6.47563700
_cell_length_b   8.36657356
_cell_length_c   8.36592200
_cell_angle_alpha   120.00258468
_cell_angle_beta   90.00000000
_cell_angle_gamma   90.00000000
_symmetry_Int_Tables_number   1
_chemical_formula_structural   Er2(ThIr)3
_chemical_formula_sum   'Er4 Th6 Ir6'
_cell_volume   392.52132930
_cell_formula_units_Z   2
loop_
 _symmetry_equiv_pos_site_id
 _symmetry_equiv_pos_as_xyz
  1  'x, y, z'
loop_
 _atom_site_type_symbol
 _atom_site_label
 _atom_site_symmetry_multiplicity
 _atom_site_fract_x
 _atom_site_fract_y
 _atom_site_fract_z
 _atom_site_occupancy
  Er  Er0  1  0.500011  0.333357  0.666733  1
  Er  Er1  1  0.500011  0.666623  0.333267  1
  Er  Er2  1  0.000011  0.666643  0.333267  1
  Er  Er3  1  0.000011  0.333377  0.666733  1
  Th  Th4  1  0.749994  0.256510  0.000000  1
  Th  Th5  1  0.750005  0.743445  0.743422  1
  Th  Th6  1  0.750005  0.000024  0.256578  1
  Th  Th7  1  0.249994  0.743490  0.000000  1
  Th  Th8  1  0.250005  0.256555  0.256578  1
  Th  Th9  1  0.250005  0.999976  0.743422  1
  Ir  Ir10  1  0.749986  0.617186  0.000000  1
  Ir  Ir11  1  0.749995  0.382848  0.382863  1
  Ir  Ir12  1  0.749995  0.999986  0.617137  1
  Ir  Ir13  1  0.249986  0.382814  0.000000  1
  Ir  Ir14  1  0.249995  0.617152  0.617137  1
  Ir  Ir15  1  0.249995  0.000014  0.382863  1
