# generated using pymatgen
data_Ho16Lu4Si15Ir
_symmetry_space_group_name_H-M   'P 1'
_cell_length_a   7.35710083
_cell_length_b   7.61239312
_cell_length_c   14.49355000
_cell_angle_alpha   89.70554130
_cell_angle_beta   89.68408547
_cell_angle_gamma   90.19883846
_symmetry_Int_Tables_number   1
_chemical_formula_structural   Ho16Lu4Si15Ir
_chemical_formula_sum   'Ho16 Lu4 Si15 Ir1'
_cell_volume   811.68532556
_cell_formula_units_Z   1
loop_
 _symmetry_equiv_pos_site_id
 _symmetry_equiv_pos_as_xyz
  1  'x, y, z'
loop_
 _atom_site_type_symbol
 _atom_site_label
 _atom_site_symmetry_multiplicity
 _atom_site_fract_x
 _atom_site_fract_y
 _atom_site_fract_z
 _atom_site_occupancy
  Ho  Ho0  1  0.974924  0.815119  0.097565  1
  Ho  Ho1  1  0.473628  0.681972  0.401928  1
  Ho  Ho2  1  0.528912  0.324707  0.901048  1
  Ho  Ho3  1  0.027282  0.183875  0.598912  1
  Ho  Ho4  1  0.026008  0.186178  0.902105  1
  Ho  Ho5  1  0.527677  0.318826  0.598300  1
  Ho  Ho6  1  0.476623  0.681071  0.099039  1
  Ho  Ho7  1  0.971872  0.817652  0.400909  1
  Ho  Ho8  1  0.683746  0.810687  0.882191  1
  Ho  Ho9  1  0.178115  0.680820  0.622115  1
  Ho  Ho10  1  0.817541  0.334726  0.119163  1
  Ho  Ho11  1  0.316270  0.177023  0.375432  1
  Ho  Ho12  1  0.321152  0.178558  0.124064  1
  Ho  Ho13  1  0.819547  0.320454  0.376881  1
  Ho  Ho14  1  0.175082  0.674161  0.878040  1
  Ho  Ho15  1  0.682637  0.819931  0.622926  1
  Lu  Lu16  1  0.649187  0.993032  0.248849  1
  Lu  Lu17  1  0.149450  0.510262  0.247965  1
  Lu  Lu18  1  0.847130  0.487246  0.757901  1
  Lu  Lu19  1  0.351917  0.010042  0.752049  1
  Si  Si20  1  0.768191  0.632428  0.252196  1
  Si  Si21  1  0.269403  0.869258  0.250713  1
  Si  Si22  1  0.729996  0.124954  0.748661  1
  Si  Si23  1  0.233366  0.370422  0.746394  1
  Si  Si24  1  0.017481  0.104935  0.248632  1
  Si  Si25  1  0.521371  0.397511  0.251506  1
  Si  Si26  1  0.472749  0.605440  0.746526  1
  Si  Si27  1  0.978908  0.899490  0.748630  1
  Si  Si28  1  0.352679  0.972187  0.539892  1
  Si  Si29  1  0.647766  0.028119  0.042052  1
  Si  Si30  1  0.149123  0.470164  0.460032  1
  Si  Si31  1  0.156170  0.472931  0.041920  1
  Si  Si32  1  0.644804  0.028572  0.459331  1
  Si  Si33  1  0.352505  0.969714  0.961261  1
  Si  Si34  1  0.852087  0.528730  0.539318  1
  Ir  Ir35  1  0.854698  0.518805  0.955555  1
