# generated using pymatgen
data_Tb2Er2Ni2C5
_symmetry_space_group_name_H-M   'P 1'
_cell_length_a   3.63064900
_cell_length_b   3.69159800
_cell_length_c   11.61889500
_cell_angle_alpha   90.00000000
_cell_angle_beta   90.00000000
_cell_angle_gamma   90.00000000
_symmetry_Int_Tables_number   1
_chemical_formula_structural   Tb2Er2Ni2C5
_chemical_formula_sum   'Tb2 Er2 Ni2 C5'
_cell_volume   155.72684814
_cell_formula_units_Z   1
loop_
 _symmetry_equiv_pos_site_id
 _symmetry_equiv_pos_as_xyz
  1  'x, y, z'
loop_
 _atom_site_type_symbol
 _atom_site_label
 _atom_site_symmetry_multiplicity
 _atom_site_fract_x
 _atom_site_fract_y
 _atom_site_fract_z
 _atom_site_occupancy
  Tb  Tb0  1  0.500000  0.207518  0.500000  1
  Tb  Tb1  1  0.000000  0.998573  0.000000  1
  Er  Er2  1  0.500000  0.502323  0.202964  1
  Er  Er3  1  0.500000  0.502323  0.797036  1
  Ni  Ni4  1  0.000000  0.698766  0.382624  1
  Ni  Ni5  1  0.000000  0.698766  0.617376  1
  C  C6  1  0.000000  0.000590  0.229277  1
  C  C7  1  0.000000  0.000590  0.770723  1
  C  C8  1  0.000000  0.198707  0.331010  1
  C  C9  1  0.000000  0.198707  0.668990  1
  C  C10  1  0.500000  0.494637  0.000000  1
