# generated using pymatgen
data_Nd2Lu4ReBi2
_symmetry_space_group_name_H-M   'P 1'
_cell_length_a   8.24097800
_cell_length_b   8.24743827
_cell_length_c   4.36107700
_cell_angle_alpha   90.00000000
_cell_angle_beta   90.00000000
_cell_angle_gamma   119.97409183
_symmetry_Int_Tables_number   1
_chemical_formula_structural   Nd2Lu4ReBi2
_chemical_formula_sum   'Nd2 Lu4 Re1 Bi2'
_cell_volume   256.76482953
_cell_formula_units_Z   1
loop_
 _symmetry_equiv_pos_site_id
 _symmetry_equiv_pos_as_xyz
  1  'x, y, z'
loop_
 _atom_site_type_symbol
 _atom_site_label
 _atom_site_symmetry_multiplicity
 _atom_site_fract_x
 _atom_site_fract_y
 _atom_site_fract_z
 _atom_site_occupancy
  Nd  Nd0  1  0.002091  0.608675  0.000000  1
  Nd  Nd1  1  0.393417  0.391325  0.000000  1
  Lu  Lu2  1  0.223267  0.000000  0.500000  1
  Lu  Lu3  1  0.997769  0.228843  0.500000  1
  Lu  Lu4  1  0.768926  0.771157  0.500000  1
  Lu  Lu5  1  0.620568  0.000000  0.000000  1
  Re  Re6  1  0.989168  0.000000  0.000000  1
  Bi  Bi7  1  0.339763  0.674734  0.500000  1
  Bi  Bi8  1  0.665031  0.325266  0.500000  1
