# generated using pymatgen
data_Y2Ho4CoRh
_symmetry_space_group_name_H-M   'P 1'
_cell_length_a   6.23115200
_cell_length_b   7.06924845
_cell_length_c   9.33310800
_cell_angle_alpha   90.00000000
_cell_angle_beta   90.00000000
_cell_angle_gamma   90.45145750
_symmetry_Int_Tables_number   1
_chemical_formula_structural   Y2Ho4CoRh
_chemical_formula_sum   'Y4 Ho8 Co2 Rh2'
_cell_volume   411.10655359
_cell_formula_units_Z   2
loop_
 _symmetry_equiv_pos_site_id
 _symmetry_equiv_pos_as_xyz
  1  'x, y, z'
loop_
 _atom_site_type_symbol
 _atom_site_label
 _atom_site_symmetry_multiplicity
 _atom_site_fract_x
 _atom_site_fract_y
 _atom_site_fract_z
 _atom_site_occupancy
  Y  Y0  1  0.626204  0.042278  0.250000  1
  Y  Y1  1  0.373796  0.957722  0.750000  1
  Y  Y2  1  0.140883  0.470651  0.750000  1
  Y  Y3  1  0.859117  0.529349  0.250000  1
  Ho  Ho4  1  0.175450  0.181031  0.064079  1
  Ho  Ho5  1  0.824550  0.818969  0.935921  1
  Ho  Ho6  1  0.671951  0.329650  0.934319  1
  Ho  Ho7  1  0.824550  0.818969  0.564079  1
  Ho  Ho8  1  0.328049  0.670350  0.065681  1
  Ho  Ho9  1  0.175450  0.181031  0.435921  1
  Ho  Ho10  1  0.328049  0.670350  0.434319  1
  Ho  Ho11  1  0.671951  0.329650  0.565681  1
  Co  Co12  1  0.443519  0.383701  0.250000  1
  Co  Co13  1  0.556481  0.616299  0.750000  1
  Rh  Rh14  1  0.944047  0.113847  0.750000  1
  Rh  Rh15  1  0.055953  0.886153  0.250000  1
