# generated using pymatgen
data_TbGd3(SeO3)6
_symmetry_space_group_name_H-M   'P 1'
_cell_length_a   7.18746755
_cell_length_b   8.24672380
_cell_length_c   9.19444344
_cell_angle_alpha   71.19965347
_cell_angle_beta   70.03342778
_cell_angle_gamma   66.11153828
_symmetry_Int_Tables_number   1
_chemical_formula_structural   TbGd3(SeO3)6
_chemical_formula_sum   'Tb1 Gd3 Se6 O18'
_cell_volume   457.48569569
_cell_formula_units_Z   1
loop_
 _symmetry_equiv_pos_site_id
 _symmetry_equiv_pos_as_xyz
  1  'x, y, z'
loop_
 _atom_site_type_symbol
 _atom_site_label
 _atom_site_symmetry_multiplicity
 _atom_site_fract_x
 _atom_site_fract_y
 _atom_site_fract_z
 _atom_site_occupancy
  Tb  Tb0  1  0.259317  0.263291  0.200496  1
  Gd  Gd1  1  0.333606  0.728725  0.590251  1
  Gd  Gd2  1  0.664742  0.273396  0.409428  1
  Gd  Gd3  1  0.740885  0.734743  0.800116  1
  Se  Se4  1  0.426965  0.777419  0.198078  1
  Se  Se5  1  0.572447  0.225575  0.801836  1
  Se  Se6  1  0.149202  0.747447  0.966106  1
  Se  Se7  1  0.850995  0.248566  0.036380  1
  Se  Se8  1  0.886706  0.760879  0.415070  1
  Se  Se9  1  0.113443  0.240528  0.582317  1
  O  O10  1  0.647421  0.792829  0.053715  1
  O  O11  1  0.354386  0.209050  0.948794  1
  O  O12  1  0.360591  0.944707  0.301520  1
  O  O13  1  0.636194  0.058783  0.698492  1
  O  O14  1  0.515096  0.597614  0.349963  1
  O  O15  1  0.481787  0.405514  0.650781  1
  O  O16  1  0.168993  0.564938  0.119712  1
  O  O17  1  0.833814  0.429473  0.880879  1
  O  O18  1  0.406009  0.710021  0.851276  1
  O  O19  1  0.593569  0.289019  0.150614  1
  O  O20  1  0.342587  0.250891  0.435611  1
  O  O21  1  0.657935  0.748363  0.561436  1
  O  O22  1  0.970181  0.291028  0.443240  1
  O  O23  1  0.031885  0.708153  0.553346  1
  O  O24  1  0.157473  0.015778  0.653774  1
  O  O25  1  0.841837  0.985954  0.346134  1
  O  O26  1  0.934716  0.303828  0.165421  1
  O  O27  1  0.067221  0.693484  0.835212  1
