# generated using pymatgen
data_Yb3TcH7
_symmetry_space_group_name_H-M   'P 1'
_cell_length_a   5.11162900
_cell_length_b   5.11162826
_cell_length_c   12.04555200
_cell_angle_alpha   90.00000000
_cell_angle_beta   90.00000000
_cell_angle_gamma   119.99999833
_symmetry_Int_Tables_number   1
_chemical_formula_structural   Yb3TcH7
_chemical_formula_sum   'Yb6 Tc2 H14'
_cell_volume   272.56866900
_cell_formula_units_Z   2
loop_
 _symmetry_equiv_pos_site_id
 _symmetry_equiv_pos_as_xyz
  1  'x, y, z'
loop_
 _atom_site_type_symbol
 _atom_site_label
 _atom_site_symmetry_multiplicity
 _atom_site_fract_x
 _atom_site_fract_y
 _atom_site_fract_z
 _atom_site_occupancy
  Yb  Yb0  1  0.000000  0.000000  0.250000  1
  Yb  Yb1  1  0.000000  0.000000  0.750000  1
  Yb  Yb2  1  0.333333  0.666667  0.437347  1
  Yb  Yb3  1  0.666667  0.333333  0.562653  1
  Yb  Yb4  1  0.666667  0.333333  0.937347  1
  Yb  Yb5  1  0.333333  0.666667  0.062653  1
  Tc  Tc6  1  0.000000  0.000000  0.500000  1
  Tc  Tc7  1  0.000000  0.000000  0.000000  1
  H  H8  1  0.333333  0.666667  0.250000  1
  H  H9  1  0.666667  0.333333  0.750000  1
  H  H10  1  0.161281  0.838719  0.909765  1
  H  H11  1  0.161281  0.322561  0.909765  1
  H  H12  1  0.677439  0.838719  0.909765  1
  H  H13  1  0.838719  0.161281  0.090235  1
  H  H14  1  0.838719  0.677439  0.090235  1
  H  H15  1  0.322561  0.161281  0.090235  1
  H  H16  1  0.838719  0.161281  0.409765  1
  H  H17  1  0.838719  0.677439  0.409765  1
  H  H18  1  0.322561  0.161281  0.409765  1
  H  H19  1  0.161281  0.838719  0.590235  1
  H  H20  1  0.161281  0.322561  0.590235  1
  H  H21  1  0.677439  0.838719  0.590235  1
