# generated using pymatgen
data_Zr5P12PdRu18
_symmetry_space_group_name_H-M   'P 1'
_cell_length_a   12.49318406
_cell_length_b   12.49318309
_cell_length_c   3.91355000
_cell_angle_alpha   90.00000000
_cell_angle_beta   90.00000000
_cell_angle_gamma   120.69667157
_symmetry_Int_Tables_number   1
_chemical_formula_structural   Zr5P12PdRu18
_chemical_formula_sum   'Zr5 P12 Pd1 Ru18'
_cell_volume   525.23777351
_cell_formula_units_Z   1
loop_
 _symmetry_equiv_pos_site_id
 _symmetry_equiv_pos_as_xyz
  1  'x, y, z'
loop_
 _atom_site_type_symbol
 _atom_site_label
 _atom_site_symmetry_multiplicity
 _atom_site_fract_x
 _atom_site_fract_y
 _atom_site_fract_z
 _atom_site_occupancy
  Zr  Zr0  1  0.188104  0.188104  0.500000  1
  Zr  Zr1  1  0.811941  0.001052  0.500000  1
  Zr  Zr2  1  0.001052  0.811941  0.500000  1
  Zr  Zr3  1  0.329071  0.669110  0.000000  1
  Zr  Zr4  1  0.669110  0.329071  0.000000  1
  P  P5  1  0.815747  0.815747  0.000000  1
  P  P6  1  0.179524  0.000863  0.000000  1
  P  P7  1  0.000863  0.179524  0.000000  1
  P  P8  1  0.173739  0.481557  0.500000  1
  P  P9  1  0.517875  0.698973  0.500000  1
  P  P10  1  0.307414  0.830823  0.500000  1
  P  P11  1  0.698973  0.517875  0.500000  1
  P  P12  1  0.830823  0.307414  0.500000  1
  P  P13  1  0.481557  0.173739  0.500000  1
  P  P14  1  0.361970  0.361970  0.000000  1
  P  P15  1  0.628986  0.999331  0.000000  1
  P  P16  1  0.999331  0.628986  0.000000  1
  Pd  Pd17  1  0.552067  0.552067  0.000000  1
  Ru  Ru18  1  0.445344  0.001821  0.000000  1
  Ru  Ru19  1  0.001821  0.445344  0.000000  1
  Ru  Ru20  1  0.716181  0.716181  0.500000  1
  Ru  Ru21  1  0.279662  0.001564  0.500000  1
  Ru  Ru22  1  0.001564  0.279662  0.500000  1
  Ru  Ru23  1  0.185224  0.376481  0.000000  1
  Ru  Ru24  1  0.622464  0.808027  0.000000  1
  Ru  Ru25  1  0.188184  0.817064  0.000000  1
  Ru  Ru26  1  0.808027  0.622464  0.000000  1
  Ru  Ru27  1  0.817064  0.188184  0.000000  1
  Ru  Ru28  1  0.376481  0.185224  0.000000  1
  Ru  Ru29  1  0.366042  0.495860  0.500000  1
  Ru  Ru30  1  0.507108  0.876181  0.500000  1
  Ru  Ru31  1  0.130468  0.636290  0.500000  1
  Ru  Ru32  1  0.876181  0.507108  0.500000  1
  Ru  Ru33  1  0.636290  0.130468  0.500000  1
  Ru  Ru34  1  0.495860  0.366042  0.500000  1
  Ru  Ru35  1  0.997888  0.997888  0.000000  1
