# generated using pymatgen
data_Tb4Co6P12Ir11Ru3
_symmetry_space_group_name_H-M   'P 1'
_cell_length_a   3.88402400
_cell_length_b   10.70335856
_cell_length_c   12.23347265
_cell_angle_alpha   89.96276235
_cell_angle_beta   90.00000000
_cell_angle_gamma   90.00000000
_symmetry_Int_Tables_number   1
_chemical_formula_structural   Tb4Co6P12Ir11Ru3
_chemical_formula_sum   'Tb4 Co6 P12 Ir11 Ru3'
_cell_volume   508.57105971
_cell_formula_units_Z   1
loop_
 _symmetry_equiv_pos_site_id
 _symmetry_equiv_pos_as_xyz
  1  'x, y, z'
loop_
 _atom_site_type_symbol
 _atom_site_label
 _atom_site_symmetry_multiplicity
 _atom_site_fract_x
 _atom_site_fract_y
 _atom_site_fract_z
 _atom_site_occupancy
  Tb  Tb0  1  0.250000  0.583635  0.710163  1
  Tb  Tb1  1  0.250000  0.916735  0.209375  1
  Tb  Tb2  1  0.750000  0.412363  0.290659  1
  Tb  Tb3  1  0.750000  0.087857  0.792847  1
  Co  Co4  1  0.750000  0.115209  0.302085  1
  Co  Co5  1  0.750000  0.384134  0.801671  1
  Co  Co6  1  0.250000  0.462076  0.930797  1
  Co  Co7  1  0.250000  0.037364  0.431160  1
  Co  Co8  1  0.750000  0.539038  0.065192  1
  Co  Co9  1  0.750000  0.961963  0.564896  1
  P  P10  1  0.250000  0.422650  0.103662  1
  P  P11  1  0.250000  0.076150  0.604724  1
  P  P12  1  0.750000  0.565749  0.889136  1
  P  P13  1  0.750000  0.933095  0.388573  1
  P  P14  1  0.250000  0.273646  0.872794  1
  P  P15  1  0.250000  0.225299  0.371044  1
  P  P16  1  0.750000  0.729397  0.125550  1
  P  P17  1  0.750000  0.770729  0.625542  1
  P  P18  1  0.250000  0.597592  0.388389  1
  P  P19  1  0.250000  0.902752  0.889211  1
  P  P20  1  0.750000  0.402198  0.621852  1
  P  P21  1  0.750000  0.101024  0.119446  1
  Ir  Ir22  1  0.750000  0.222216  0.511815  1
  Ir  Ir23  1  0.250000  0.406624  0.480706  1
  Ir  Ir24  1  0.250000  0.093516  0.982333  1
  Ir  Ir25  1  0.750000  0.589749  0.517887  1
  Ir  Ir26  1  0.750000  0.909730  0.017705  1
  Ir  Ir27  1  0.250000  0.226378  0.180503  1
  Ir  Ir28  1  0.250000  0.271984  0.681144  1
  Ir  Ir29  1  0.750000  0.765491  0.820182  1
  Ir  Ir30  1  0.750000  0.733287  0.320501  1
  Ir  Ir31  1  0.250000  0.889266  0.700442  1
  Ir  Ir32  1  0.250000  0.610045  0.199880  1
  Ru  Ru33  1  0.250000  0.719912  0.988314  1
  Ru  Ru34  1  0.250000  0.780010  0.488797  1
  Ru  Ru35  1  0.750000  0.281137  0.011022  1
