# generated using pymatgen
data_La17Tm3Sn16
_symmetry_space_group_name_H-M   'P 1'
_cell_length_a   8.42984101
_cell_length_b   8.51767512
_cell_length_c   16.32065900
_cell_angle_alpha   90.00000000
_cell_angle_beta   90.00000000
_cell_angle_gamma   90.18520600
_symmetry_Int_Tables_number   1
_chemical_formula_structural   La17Tm3Sn16
_chemical_formula_sum   'La17 Tm3 Sn16'
_cell_volume   1171.86039600
_cell_formula_units_Z   1
loop_
 _symmetry_equiv_pos_site_id
 _symmetry_equiv_pos_as_xyz
  1  'x, y, z'
loop_
 _atom_site_type_symbol
 _atom_site_label
 _atom_site_symmetry_multiplicity
 _atom_site_fract_x
 _atom_site_fract_y
 _atom_site_fract_z
 _atom_site_occupancy
  La  La0  1  0.971326  0.819404  0.898377  1
  La  La1  1  0.471499  0.681488  0.600620  1
  La  La2  1  0.527822  0.320486  0.099148  1
  La  La3  1  0.028702  0.181427  0.401115  1
  La  La4  1  0.971326  0.819404  0.601623  1
  La  La5  1  0.471499  0.681488  0.899380  1
  La  La6  1  0.527822  0.320486  0.400852  1
  La  La7  1  0.028702  0.181427  0.098885  1
  La  La8  1  0.879270  0.658482  0.383574  1
  La  La9  1  0.377976  0.841024  0.116342  1
  La  La10  1  0.621955  0.158869  0.619188  1
  La  La11  1  0.121494  0.341123  0.882143  1
  La  La12  1  0.121494  0.341123  0.617857  1
  La  La13  1  0.621955  0.158869  0.880812  1
  La  La14  1  0.377976  0.841024  0.383658  1
  La  La15  1  0.879270  0.658482  0.116426  1
  La  La16  1  0.708770  0.997040  0.250000  1
  Tm  Tm17  1  0.286836  0.002773  0.750000  1
  Tm  Tm18  1  0.786253  0.497303  0.750000  1
  Tm  Tm19  1  0.212470  0.505547  0.250000  1
  Sn  Sn20  1  0.780785  0.470728  0.548121  1
  Sn  Sn21  1  0.281454  0.029813  0.952184  1
  Sn  Sn22  1  0.719473  0.967559  0.457010  1
  Sn  Sn23  1  0.219514  0.528463  0.047692  1
  Sn  Sn24  1  0.219514  0.528463  0.452308  1
  Sn  Sn25  1  0.719473  0.967559  0.042990  1
  Sn  Sn26  1  0.281454  0.029813  0.547816  1
  Sn  Sn27  1  0.780785  0.470728  0.951879  1
  Sn  Sn28  1  0.168269  0.645701  0.750000  1
  Sn  Sn29  1  0.667719  0.852944  0.750000  1
  Sn  Sn30  1  0.326376  0.146895  0.250000  1
  Sn  Sn31  1  0.836080  0.361499  0.250000  1
  Sn  Sn32  1  0.925202  0.118460  0.750000  1
  Sn  Sn33  1  0.424050  0.381755  0.750000  1
  Sn  Sn34  1  0.573627  0.611533  0.250000  1
  Sn  Sn35  1  0.081807  0.880818  0.250000  1
