# generated using pymatgen
data_ScIn3B4SbIr9
_symmetry_space_group_name_H-M   'P 1'
_cell_length_a   5.58616100
_cell_length_b   5.58616046
_cell_length_c   10.48056600
_cell_angle_alpha   90.00000000
_cell_angle_beta   90.00000000
_cell_angle_gamma   119.99999728
_symmetry_Int_Tables_number   1
_chemical_formula_structural   ScIn3B4SbIr9
_chemical_formula_sum   'Sc1 In3 B4 Sb1 Ir9'
_cell_volume   283.23194562
_cell_formula_units_Z   1
loop_
 _symmetry_equiv_pos_site_id
 _symmetry_equiv_pos_as_xyz
  1  'x, y, z'
loop_
 _atom_site_type_symbol
 _atom_site_label
 _atom_site_symmetry_multiplicity
 _atom_site_fract_x
 _atom_site_fract_y
 _atom_site_fract_z
 _atom_site_occupancy
  Sc  Sc0  1  0.000000  0.000000  0.921159  1
  In  In1  1  0.666667  0.333333  0.505451  1
  In  In2  1  0.000000  0.000000  0.331864  1
  In  In3  1  0.333333  0.666667  0.505451  1
  B  B4  1  0.666667  0.333333  0.153441  1
  B  B5  1  0.333333  0.666667  0.863859  1
  B  B6  1  0.666667  0.333333  0.863859  1
  B  B7  1  0.333333  0.666667  0.153441  1
  Sb  Sb8  1  0.000000  0.000000  0.635500  1
  Ir  Ir9  1  0.000000  0.497394  0.281252  1
  Ir  Ir10  1  0.446661  0.000000  0.731999  1
  Ir  Ir11  1  0.497394  0.000000  0.281252  1
  Ir  Ir12  1  0.000000  0.487751  0.008741  1
  Ir  Ir13  1  0.553339  0.553339  0.731999  1
  Ir  Ir14  1  0.000000  0.446661  0.731999  1
  Ir  Ir15  1  0.512249  0.512249  0.008741  1
  Ir  Ir16  1  0.487751  0.000000  0.008741  1
  Ir  Ir17  1  0.502606  0.502606  0.281252  1
