# generated using pymatgen
data_Ga2Si5Rh3
_symmetry_space_group_name_H-M   'P 1'
_cell_length_a   7.34241961
_cell_length_b   7.35479770
_cell_length_c   7.35479689
_cell_angle_alpha   108.51053510
_cell_angle_beta   109.98876742
_cell_angle_gamma   109.98875149
_symmetry_Int_Tables_number   1
_chemical_formula_structural   Ga2Si5Rh3
_chemical_formula_sum   'Ga4 Si10 Rh6'
_cell_volume   305.41291355
_cell_formula_units_Z   2
loop_
 _symmetry_equiv_pos_site_id
 _symmetry_equiv_pos_as_xyz
  1  'x, y, z'
loop_
 _atom_site_type_symbol
 _atom_site_label
 _atom_site_symmetry_multiplicity
 _atom_site_fract_x
 _atom_site_fract_y
 _atom_site_fract_z
 _atom_site_occupancy
  Ga  Ga0  1  0.747737  0.249191  0.498545  1
  Ga  Ga1  1  0.500000  0.248835  0.751165  1
  Ga  Ga2  1  0.500000  0.748835  0.251165  1
  Ga  Ga3  1  0.252263  0.501455  0.750809  1
  Si  Si4  1  0.752292  0.502733  0.249560  1
  Si  Si5  1  0.247708  0.750440  0.497267  1
  Si  Si6  1  0.333251  0.331658  0.335963  1
  Si  Si7  1  0.000000  0.007236  0.336673  1
  Si  Si8  1  0.333251  0.997287  0.001593  1
  Si  Si9  1  0.000000  0.331862  0.994688  1
  Si  Si10  1  0.666749  0.998407  0.002713  1
  Si  Si11  1  0.000000  0.663327  0.992764  1
  Si  Si12  1  0.000000  0.005312  0.668138  1
  Si  Si13  1  0.666749  0.664037  0.668342  1
  Rh  Rh14  1  0.340072  0.332461  0.007610  1
  Rh  Rh15  1  0.000000  0.344070  0.329419  1
  Rh  Rh16  1  0.000000  0.670581  0.655930  1
  Rh  Rh17  1  0.659928  0.992390  0.667539  1
  Rh  Rh18  1  0.324980  0.992433  0.332548  1
  Rh  Rh19  1  0.675020  0.667452  0.007567  1
