# generated using pymatgen
data_Cs2Mg2CdSnAs4
_symmetry_space_group_name_H-M   'P 1'
_cell_length_a   8.40490955
_cell_length_b   8.40490910
_cell_length_c   6.32653900
_cell_angle_alpha   90.00000000
_cell_angle_beta   90.00000000
_cell_angle_gamma   135.75806340
_symmetry_Int_Tables_number   1
_chemical_formula_structural   Cs2Mg2CdSnAs4
_chemical_formula_sum   'Cs2 Mg2 Cd1 Sn1 As4'
_cell_volume   311.81322573
_cell_formula_units_Z   1
loop_
 _symmetry_equiv_pos_site_id
 _symmetry_equiv_pos_as_xyz
  1  'x, y, z'
loop_
 _atom_site_type_symbol
 _atom_site_label
 _atom_site_symmetry_multiplicity
 _atom_site_fract_x
 _atom_site_fract_y
 _atom_site_fract_z
 _atom_site_occupancy
  Cs  Cs0  1  0.500000  0.000000  0.252819  1
  Cs  Cs1  1  0.000000  0.500000  0.747181  1
  Mg  Mg2  1  0.500000  0.500000  0.000000  1
  Mg  Mg3  1  0.000000  0.000000  0.500000  1
  Cd  Cd4  1  0.500000  0.500000  0.500000  1
  Sn  Sn5  1  0.000000  0.000000  0.000000  1
  As  As6  1  0.656725  0.861643  0.759347  1
  As  As7  1  0.138357  0.343275  0.240653  1
  As  As8  1  0.861643  0.656725  0.240653  1
  As  As9  1  0.343275  0.138357  0.759347  1
