# generated using pymatgen
data_Pr2Tm2Zn4Si3Ge
_symmetry_space_group_name_H-M   'P 1'
_cell_length_a   4.21335300
_cell_length_b   4.21335285
_cell_length_c   15.97589600
_cell_angle_alpha   90.00000000
_cell_angle_beta   90.00000000
_cell_angle_gamma   119.99996194
_symmetry_Int_Tables_number   1
_chemical_formula_structural   Pr2Tm2Zn4Si3Ge
_chemical_formula_sum   'Pr2 Tm2 Zn4 Si3 Ge1'
_cell_volume   245.61319805
_cell_formula_units_Z   1
loop_
 _symmetry_equiv_pos_site_id
 _symmetry_equiv_pos_as_xyz
  1  'x, y, z'
loop_
 _atom_site_type_symbol
 _atom_site_label
 _atom_site_symmetry_multiplicity
 _atom_site_fract_x
 _atom_site_fract_y
 _atom_site_fract_z
 _atom_site_occupancy
  Pr  Pr0  1  0.000000  0.000000  0.001978  1
  Pr  Pr1  1  0.000000  0.000000  0.499565  1
  Tm  Tm2  1  0.000000  0.000000  0.250418  1
  Tm  Tm3  1  0.000000  0.000000  0.747859  1
  Zn  Zn4  1  0.333333  0.666667  0.148544  1
  Zn  Zn5  1  0.666667  0.333333  0.848030  1
  Zn  Zn6  1  0.666667  0.333333  0.646434  1
  Zn  Zn7  1  0.333333  0.666667  0.352754  1
  Si  Si8  1  0.333333  0.666667  0.624268  1
  Si  Si9  1  0.666667  0.333333  0.375423  1
  Si  Si10  1  0.666667  0.333333  0.125621  1
  Ge  Ge11  1  0.333333  0.666667  0.879106  1
