# generated using pymatgen
data_Pu2BiN
_symmetry_space_group_name_H-M   'P 1'
_cell_length_a   4.60079300
_cell_length_b   4.60079300
_cell_length_c   9.03705200
_cell_angle_alpha   90.00000000
_cell_angle_beta   90.00000000
_cell_angle_gamma   90.00000000
_symmetry_Int_Tables_number   1
_chemical_formula_structural   Pu2BiN
_chemical_formula_sum   'Pu4 Bi2 N2'
_cell_volume   191.28995672
_cell_formula_units_Z   2
loop_
 _symmetry_equiv_pos_site_id
 _symmetry_equiv_pos_as_xyz
  1  'x, y, z'
loop_
 _atom_site_type_symbol
 _atom_site_label
 _atom_site_symmetry_multiplicity
 _atom_site_fract_x
 _atom_site_fract_y
 _atom_site_fract_z
 _atom_site_occupancy
  Pu  Pu0  1  0.000000  0.000000  0.000000  1
  Pu  Pu1  1  0.500000  0.500000  0.000000  1
  Pu  Pu2  1  0.000000  0.500000  0.671372  1
  Pu  Pu3  1  0.500000  0.000000  0.328628  1
  Bi  Bi4  1  0.000000  0.500000  0.304829  1
  Bi  Bi5  1  0.500000  0.000000  0.695171  1
  N  N6  1  0.000000  0.500000  0.913855  1
  N  N7  1  0.500000  0.000000  0.086145  1
