# generated using pymatgen
data_NaPrMnPt3
_symmetry_space_group_name_H-M   'P 1'
_cell_length_a   5.58656320
_cell_length_b   5.29683005
_cell_length_c   5.58656500
_cell_angle_alpha   58.17345036
_cell_angle_beta   60.00000712
_cell_angle_gamma   58.17344781
_symmetry_Int_Tables_number   1
_chemical_formula_structural   NaPrMnPt3
_chemical_formula_sum   'Na1 Pr1 Mn1 Pt3'
_cell_volume   113.56166086
_cell_formula_units_Z   1
loop_
 _symmetry_equiv_pos_site_id
 _symmetry_equiv_pos_as_xyz
  1  'x, y, z'
loop_
 _atom_site_type_symbol
 _atom_site_label
 _atom_site_symmetry_multiplicity
 _atom_site_fract_x
 _atom_site_fract_y
 _atom_site_fract_z
 _atom_site_occupancy
  Na  Na0  1  0.751354  0.745939  0.751354  1
  Pr  Pr1  1  0.503582  0.489255  0.503582  1
  Mn  Mn2  1  0.123781  0.628656  0.123781  1
  Pt  Pt3  1  0.122618  0.128717  0.626047  1
  Pt  Pt4  1  0.626047  0.128717  0.122618  1
  Pt  Pt5  1  0.122618  0.128717  0.122618  1
