# generated using pymatgen
data_Tb4Dy4Er4Co5Sn
_symmetry_space_group_name_H-M   'P 1'
_cell_length_a   8.26400493
_cell_length_b   8.26400396
_cell_length_c   8.26400450
_cell_angle_alpha   107.10834797
_cell_angle_beta   110.63849885
_cell_angle_gamma   110.69234864
_symmetry_Int_Tables_number   1
_chemical_formula_structural   Tb4Dy4Er4Co5Sn
_chemical_formula_sum   'Tb4 Dy4 Er4 Co5 Sn1'
_cell_volume   433.90851290
_cell_formula_units_Z   1
loop_
 _symmetry_equiv_pos_site_id
 _symmetry_equiv_pos_as_xyz
  1  'x, y, z'
loop_
 _atom_site_type_symbol
 _atom_site_label
 _atom_site_symmetry_multiplicity
 _atom_site_fract_x
 _atom_site_fract_y
 _atom_site_fract_z
 _atom_site_occupancy
  Tb  Tb0  1  0.478875  0.292259  0.186616  1
  Tb  Tb1  1  0.105643  0.292259  0.813384  1
  Tb  Tb2  1  0.894357  0.707741  0.186616  1
  Tb  Tb3  1  0.521125  0.707741  0.813384  1
  Dy  Dy4  1  0.192535  0.208356  0.400892  1
  Dy  Dy5  1  0.807465  0.791644  0.599108  1
  Dy  Dy6  1  0.192535  0.791644  0.984178  1
  Dy  Dy7  1  0.807465  0.208356  0.015822  1
  Er  Er8  1  0.307402  0.621952  0.314550  1
  Er  Er9  1  0.307402  0.992853  0.685450  1
  Er  Er10  1  0.692598  0.378048  0.685450  1
  Er  Er11  1  0.692598  0.007147  0.314550  1
  Co  Co12  1  0.500000  0.612837  0.112837  1
  Co  Co13  1  0.500000  0.387163  0.887163  1
  Co  Co14  1  0.377289  0.000000  0.377289  1
  Co  Co15  1  0.622711  0.000000  0.622711  1
  Co  Co16  1  0.000000  0.000000  0.000000  1
  Sn  Sn17  1  0.000000  0.500000  0.500000  1
