# generated using pymatgen
data_CsAsPRu2
_symmetry_space_group_name_H-M   'P 1'
_cell_length_a   7.76177912
_cell_length_b   7.76177932
_cell_length_c   7.76177926
_cell_angle_alpha   149.28082666
_cell_angle_beta   149.28083218
_cell_angle_gamma   43.99810485
_symmetry_Int_Tables_number   1
_chemical_formula_structural   CsAsPRu2
_chemical_formula_sum   'Cs1 As1 P1 Ru2'
_cell_volume   121.67401961
_cell_formula_units_Z   1
loop_
 _symmetry_equiv_pos_site_id
 _symmetry_equiv_pos_as_xyz
  1  'x, y, z'
loop_
 _atom_site_type_symbol
 _atom_site_label
 _atom_site_symmetry_multiplicity
 _atom_site_fract_x
 _atom_site_fract_y
 _atom_site_fract_z
 _atom_site_occupancy
  Cs  Cs0  1  0.001902  0.001902  0.000000  1
  As  As1  1  0.336512  0.336512  0.000000  1
  P  P2  1  0.671836  0.671836  0.000000  1
  Ru  Ru3  1  0.744875  0.244875  0.500000  1
  Ru  Ru4  1  0.244875  0.744875  0.500000  1
