# generated using pymatgen
data_UTi3Co16Si7W2
_symmetry_space_group_name_H-M   'P 1'
_cell_length_a   7.89404581
_cell_length_b   7.92051338
_cell_length_c   7.89791606
_cell_angle_alpha   59.87564354
_cell_angle_beta   59.93527262
_cell_angle_gamma   59.92010331
_symmetry_Int_Tables_number   1
_chemical_formula_structural   UTi3Co16Si7W2
_chemical_formula_sum   'U1 Ti3 Co16 Si7 W2'
_cell_volume   348.47048210
_cell_formula_units_Z   1
loop_
 _symmetry_equiv_pos_site_id
 _symmetry_equiv_pos_as_xyz
  1  'x, y, z'
loop_
 _atom_site_type_symbol
 _atom_site_label
 _atom_site_symmetry_multiplicity
 _atom_site_fract_x
 _atom_site_fract_y
 _atom_site_fract_z
 _atom_site_occupancy
  U  U0  1  0.799138  0.202115  0.200859  1
  Ti  Ti1  1  0.217041  0.202629  0.782961  1
  Ti  Ti2  1  0.798072  0.200691  0.786777  1
  Ti  Ti3  1  0.213228  0.785542  0.201928  1
  Co  Co4  1  0.617462  0.624635  0.143967  1
  Co  Co5  1  0.162525  0.502412  0.171268  1
  Co  Co6  1  0.856032  0.386064  0.382538  1
  Co  Co7  1  0.496078  0.837040  0.836941  1
  Co  Co8  1  0.510033  0.165923  0.166695  1
  Co  Co9  1  0.833302  0.842654  0.489970  1
  Co  Co10  1  0.163058  0.170051  0.503924  1
  Co  Co11  1  0.143299  0.620036  0.618998  1
  Co  Co12  1  0.155869  0.167445  0.168464  1
  Co  Co13  1  0.381001  0.382333  0.856701  1
  Co  Co14  1  0.617356  0.619390  0.616749  1
  Co  Co15  1  0.383251  0.853494  0.382643  1
  Co  Co16  1  0.377414  0.381587  0.381341  1
  Co  Co17  1  0.828725  0.836207  0.837476  1
  Co  Co18  1  0.618661  0.140336  0.622588  1
  Co  Co19  1  0.831531  0.491785  0.844135  1
  Si  Si20  1  0.492081  0.987555  0.507887  1
  Si  Si21  1  0.490799  0.508917  0.988346  1
  Si  Si22  1  0.498781  0.495957  0.501212  1
  Si  Si23  1  0.011688  0.988087  0.509176  1
  Si  Si24  1  0.013244  0.506515  0.986779  1
  Si  Si25  1  0.995712  0.503004  0.505245  1
  Si  Si26  1  0.494733  0.003984  0.004320  1
  W  W27  1  0.193880  0.805761  0.806123  1
  W  W28  1  0.806005  0.787849  0.193992  1
