# generated using pymatgen
data_La8LuThIr4
_symmetry_space_group_name_H-M   'P 1'
_cell_length_a   6.75440535
_cell_length_b   7.28782761
_cell_length_c   9.07499200
_cell_angle_alpha   96.50096925
_cell_angle_beta   111.84790948
_cell_angle_gamma   89.99999815
_symmetry_Int_Tables_number   1
_chemical_formula_structural   La8LuThIr4
_chemical_formula_sum   'La8 Lu1 Th1 Ir4'
_cell_volume   411.53427057
_cell_formula_units_Z   1
loop_
 _symmetry_equiv_pos_site_id
 _symmetry_equiv_pos_as_xyz
  1  'x, y, z'
loop_
 _atom_site_type_symbol
 _atom_site_label
 _atom_site_symmetry_multiplicity
 _atom_site_fract_x
 _atom_site_fract_y
 _atom_site_fract_z
 _atom_site_occupancy
  La  La0  1  0.980461  0.924431  0.182559  1
  La  La1  1  0.797901  0.575569  0.817441  1
  La  La2  1  0.018848  0.081927  0.817442  1
  La  La3  1  0.201407  0.418073  0.182558  1
  La  La4  1  0.649967  0.814168  0.434787  1
  La  La5  1  0.215179  0.685832  0.565213  1
  La  La6  1  0.356583  0.186552  0.572872  1
  La  La7  1  0.783712  0.313448  0.427128  1
  Lu  Lu8  1  0.564252  0.250000  0.000000  1
  Th  Th9  1  0.433014  0.750000  0.000000  1
  Ir  Ir10  1  0.799465  0.573843  0.206913  1
  Ir  Ir11  1  0.592551  0.926157  0.793087  1
  Ir  Ir12  1  0.198820  0.430444  0.790981  1
  Ir  Ir13  1  0.407841  0.069556  0.209019  1
