# generated using pymatgen
data_Er8Cd3BiAu8
_symmetry_space_group_name_H-M   'P 1'
_cell_length_a   8.02796500
_cell_length_b   8.02796500
_cell_length_c   7.30711200
_cell_angle_alpha   90.00000000
_cell_angle_beta   90.00000000
_cell_angle_gamma   90.00000000
_symmetry_Int_Tables_number   1
_chemical_formula_structural   Er8Cd3BiAu8
_chemical_formula_sum   'Er8 Cd3 Bi1 Au8'
_cell_volume   470.93037666
_cell_formula_units_Z   1
loop_
 _symmetry_equiv_pos_site_id
 _symmetry_equiv_pos_as_xyz
  1  'x, y, z'
loop_
 _atom_site_type_symbol
 _atom_site_label
 _atom_site_symmetry_multiplicity
 _atom_site_fract_x
 _atom_site_fract_y
 _atom_site_fract_z
 _atom_site_occupancy
  Er  Er0  1  0.180260  0.183111  0.001717  1
  Er  Er1  1  0.316889  0.680260  0.498283  1
  Er  Er2  1  0.683111  0.319740  0.498283  1
  Er  Er3  1  0.819740  0.816889  0.001717  1
  Er  Er4  1  0.341477  0.656395  0.002481  1
  Er  Er5  1  0.658523  0.343605  0.002481  1
  Er  Er6  1  0.843605  0.841477  0.497519  1
  Er  Er7  1  0.156395  0.158523  0.497519  1
  Cd  Cd8  1  0.000000  0.500000  0.750000  1
  Cd  Cd9  1  0.500000  0.000000  0.250000  1
  Cd  Cd10  1  0.000000  0.500000  0.250000  1
  Bi  Bi11  1  0.500000  0.000000  0.750000  1
  Au  Au12  1  0.120737  0.865287  0.775074  1
  Au  Au13  1  0.871039  0.128983  0.226537  1
  Au  Au14  1  0.371017  0.371039  0.273463  1
  Au  Au15  1  0.634713  0.620737  0.724926  1
  Au  Au16  1  0.628983  0.628961  0.273463  1
  Au  Au17  1  0.879263  0.134713  0.775074  1
  Au  Au18  1  0.365287  0.379263  0.724926  1
  Au  Au19  1  0.128961  0.871017  0.226537  1
