# generated using pymatgen
data_CePbBr18
_symmetry_space_group_name_H-M   'P 1'
_cell_length_a   9.72926735
_cell_length_b   9.72926440
_cell_length_c   9.72926580
_cell_angle_alpha   90.38266466
_cell_angle_beta   90.38266454
_cell_angle_gamma   90.38266453
_symmetry_Int_Tables_number   1
_chemical_formula_structural   CePbBr18
_chemical_formula_sum   'Ce1 Pb1 Br18'
_cell_volume   920.89692396
_cell_formula_units_Z   1
loop_
 _symmetry_equiv_pos_site_id
 _symmetry_equiv_pos_as_xyz
  1  'x, y, z'
loop_
 _atom_site_type_symbol
 _atom_site_label
 _atom_site_symmetry_multiplicity
 _atom_site_fract_x
 _atom_site_fract_y
 _atom_site_fract_z
 _atom_site_occupancy
  Ce  Ce0  1  0.000000  0.000000  0.000000  1
  Pb  Pb1  1  0.500000  0.500000  0.500000  1
  Br  Br2  1  0.290716  0.992307  0.020562  1
  Br  Br3  1  0.020562  0.290716  0.992307  1
  Br  Br4  1  0.992307  0.020562  0.290716  1
  Br  Br5  1  0.709284  0.007693  0.979438  1
  Br  Br6  1  0.979438  0.709284  0.007693  1
  Br  Br7  1  0.007693  0.979438  0.709284  1
  Br  Br8  1  0.629902  0.243730  0.102200  1
  Br  Br9  1  0.102200  0.629902  0.243730  1
  Br  Br10  1  0.243730  0.102200  0.629902  1
  Br  Br11  1  0.370098  0.756270  0.897800  1
  Br  Br12  1  0.897800  0.370098  0.756270  1
  Br  Br13  1  0.756270  0.897800  0.370098  1
  Br  Br14  1  0.467999  0.192231  0.553835  1
  Br  Br15  1  0.553835  0.467999  0.192231  1
  Br  Br16  1  0.192231  0.553835  0.467999  1
  Br  Br17  1  0.532001  0.807769  0.446165  1
  Br  Br18  1  0.446165  0.532001  0.807769  1
  Br  Br19  1  0.807769  0.446165  0.532001  1
