# generated using pymatgen
data_Pr3Nd3(HfBi5)2
_symmetry_space_group_name_H-M   'P 1'
_cell_length_a   9.75884401
_cell_length_b   9.75959171
_cell_length_c   6.54847600
_cell_angle_alpha   90.00000000
_cell_angle_beta   90.00000000
_cell_angle_gamma   120.00119013
_symmetry_Int_Tables_number   1
_chemical_formula_structural   Pr3Nd3(HfBi5)2
_chemical_formula_sum   'Pr3 Nd3 Hf2 Bi10'
_cell_volume   540.12675283
_cell_formula_units_Z   1
loop_
 _symmetry_equiv_pos_site_id
 _symmetry_equiv_pos_as_xyz
  1  'x, y, z'
loop_
 _atom_site_type_symbol
 _atom_site_label
 _atom_site_symmetry_multiplicity
 _atom_site_fract_x
 _atom_site_fract_y
 _atom_site_fract_z
 _atom_site_occupancy
  Pr  Pr0  1  0.000018  0.381243  0.750000  1
  Pr  Pr1  1  0.381321  0.381338  0.250000  1
  Pr  Pr2  1  0.999988  0.618773  0.250000  1
  Nd  Nd3  1  0.618932  0.618930  0.750000  1
  Nd  Nd4  1  0.381272  0.000016  0.750000  1
  Nd  Nd5  1  0.618829  0.000001  0.250000  1
  Hf  Hf6  1  0.999935  0.999942  0.999617  1
  Hf  Hf7  1  0.999935  0.999942  0.500383  1
  Bi  Bi8  1  0.263420  0.000006  0.250000  1
  Bi  Bi9  1  0.999565  0.262817  0.250000  1
  Bi  Bi10  1  0.999950  0.736853  0.750000  1
  Bi  Bi11  1  0.333856  0.667230  0.500571  1
  Bi  Bi12  1  0.333856  0.667230  0.999429  1
  Bi  Bi13  1  0.263609  0.263186  0.750000  1
  Bi  Bi14  1  0.666356  0.332974  0.500574  1
  Bi  Bi15  1  0.736576  0.737012  0.250000  1
  Bi  Bi16  1  0.736226  0.999533  0.750000  1
  Bi  Bi17  1  0.666356  0.332974  0.999426  1
