# generated using pymatgen
data_Tb6Er2AlPd24
_symmetry_space_group_name_H-M   'P 1'
_cell_length_a   8.35899840
_cell_length_b   8.35899840
_cell_length_c   8.35899840
_cell_angle_alpha   89.97488279
_cell_angle_beta   89.97488279
_cell_angle_gamma   89.97488279
_symmetry_Int_Tables_number   1
_chemical_formula_structural   Tb6Er2AlPd24
_chemical_formula_sum   'Tb6 Er2 Al1 Pd24'
_cell_volume   584.06690889
_cell_formula_units_Z   1
loop_
 _symmetry_equiv_pos_site_id
 _symmetry_equiv_pos_as_xyz
  1  'x, y, z'
loop_
 _atom_site_type_symbol
 _atom_site_label
 _atom_site_symmetry_multiplicity
 _atom_site_fract_x
 _atom_site_fract_y
 _atom_site_fract_z
 _atom_site_occupancy
  Tb  Tb0  1  0.748410  0.748410  0.251556  1
  Tb  Tb1  1  0.748410  0.251556  0.748410  1
  Tb  Tb2  1  0.251590  0.251590  0.748444  1
  Tb  Tb3  1  0.251590  0.748444  0.251590  1
  Tb  Tb4  1  0.251556  0.748410  0.748410  1
  Tb  Tb5  1  0.748444  0.251590  0.251590  1
  Er  Er6  1  0.251444  0.251444  0.251444  1
  Er  Er7  1  0.748556  0.748556  0.748556  1
  Al  Al8  1  0.000000  0.000000  0.000000  1
  Pd  Pd9  1  0.260460  0.499365  0.000827  1
  Pd  Pd10  1  0.739540  0.500635  0.999173  1
  Pd  Pd11  1  0.000827  0.260460  0.499365  1
  Pd  Pd12  1  0.499365  0.260460  0.000827  1
  Pd  Pd13  1  0.999173  0.739540  0.500635  1
  Pd  Pd14  1  0.500635  0.739540  0.999173  1
  Pd  Pd15  1  0.499365  0.000827  0.260460  1
  Pd  Pd16  1  0.260460  0.000827  0.499365  1
  Pd  Pd17  1  0.500635  0.999173  0.739540  1
  Pd  Pd18  1  0.739540  0.999173  0.500635  1
  Pd  Pd19  1  0.000827  0.499365  0.260460  1
  Pd  Pd20  1  0.999173  0.500635  0.739540  1
  Pd  Pd21  1  0.253543  0.499169  0.499169  1
  Pd  Pd22  1  0.746457  0.500831  0.500831  1
  Pd  Pd23  1  0.499169  0.253543  0.499169  1
  Pd  Pd24  1  0.500831  0.746457  0.500831  1
  Pd  Pd25  1  0.499169  0.499169  0.253543  1
  Pd  Pd26  1  0.500831  0.500831  0.746457  1
  Pd  Pd27  1  0.290051  0.000764  0.000764  1
  Pd  Pd28  1  0.709949  0.999236  0.999236  1
  Pd  Pd29  1  0.000764  0.290051  0.000764  1
  Pd  Pd30  1  0.999236  0.709949  0.999236  1
  Pd  Pd31  1  0.000764  0.000764  0.290051  1
  Pd  Pd32  1  0.999236  0.999236  0.709949  1
