# generated using pymatgen
data_Lu3Co7C2
_symmetry_space_group_name_H-M   'P 1'
_cell_length_a   5.00060200
_cell_length_b   5.00060255
_cell_length_c   13.73447700
_cell_angle_alpha   90.00000000
_cell_angle_beta   90.00000000
_cell_angle_gamma   119.99999637
_symmetry_Int_Tables_number   1
_chemical_formula_structural   Lu3Co7C2
_chemical_formula_sum   'Lu6 Co14 C4'
_cell_volume   297.43180191
_cell_formula_units_Z   2
loop_
 _symmetry_equiv_pos_site_id
 _symmetry_equiv_pos_as_xyz
  1  'x, y, z'
loop_
 _atom_site_type_symbol
 _atom_site_label
 _atom_site_symmetry_multiplicity
 _atom_site_fract_x
 _atom_site_fract_y
 _atom_site_fract_z
 _atom_site_occupancy
  Lu  Lu0  1  0.333333  0.666667  0.532934  1
  Lu  Lu1  1  0.666667  0.333333  0.032934  1
  Lu  Lu2  1  0.666667  0.333333  0.467066  1
  Lu  Lu3  1  0.333333  0.666667  0.967066  1
  Lu  Lu4  1  0.333333  0.666667  0.750000  1
  Lu  Lu5  1  0.666667  0.333333  0.250000  1
  Co  Co6  1  0.000000  0.000000  0.000000  1
  Co  Co7  1  0.000000  0.000000  0.500000  1
  Co  Co8  1  0.164778  0.329556  0.154086  1
  Co  Co9  1  0.835222  0.670444  0.654086  1
  Co  Co10  1  0.670444  0.835222  0.154086  1
  Co  Co11  1  0.164778  0.835222  0.154086  1
  Co  Co12  1  0.835222  0.164778  0.654086  1
  Co  Co13  1  0.329556  0.164778  0.654086  1
  Co  Co14  1  0.835222  0.670444  0.845914  1
  Co  Co15  1  0.835222  0.164778  0.845914  1
  Co  Co16  1  0.329556  0.164778  0.845914  1
  Co  Co17  1  0.670444  0.835222  0.345914  1
  Co  Co18  1  0.164778  0.835222  0.345914  1
  Co  Co19  1  0.164778  0.329556  0.345914  1
  C  C20  1  0.333333  0.666667  0.250000  1
  C  C21  1  0.666667  0.333333  0.750000  1
  C  C22  1  0.000000  0.000000  0.250000  1
  C  C23  1  0.000000  0.000000  0.750000  1
