# generated using pymatgen
data_Tb3NdAlRh
_symmetry_space_group_name_H-M   'P 1'
_cell_length_a   9.64856217
_cell_length_b   9.63740472
_cell_length_c   9.63740447
_cell_angle_alpha   60.07660964
_cell_angle_beta   59.96169892
_cell_angle_gamma   59.96169902
_symmetry_Int_Tables_number   1
_chemical_formula_structural   Tb3NdAlRh
_chemical_formula_sum   'Tb12 Nd4 Al4 Rh4'
_cell_volume   633.67510400
_cell_formula_units_Z   4
loop_
 _symmetry_equiv_pos_site_id
 _symmetry_equiv_pos_as_xyz
  1  'x, y, z'
loop_
 _atom_site_type_symbol
 _atom_site_label
 _atom_site_symmetry_multiplicity
 _atom_site_fract_x
 _atom_site_fract_y
 _atom_site_fract_z
 _atom_site_occupancy
  Tb  Tb0  1  0.603797  0.599800  0.599800  1
  Tb  Tb1  1  0.599800  0.603797  0.196602  1
  Tb  Tb2  1  0.599800  0.196602  0.603797  1
  Tb  Tb3  1  0.196602  0.599800  0.599800  1
  Tb  Tb4  1  0.058995  0.441005  0.441005  1
  Tb  Tb5  1  0.441005  0.058995  0.058995  1
  Tb  Tb6  1  0.442640  0.057360  0.442640  1
  Tb  Tb7  1  0.057360  0.442640  0.057360  1
  Tb  Tb8  1  0.442640  0.442640  0.057360  1
  Tb  Tb9  1  0.057360  0.057360  0.442640  1
  Tb  Tb10  1  0.191940  0.808060  0.808060  1
  Tb  Tb11  1  0.808060  0.191940  0.191940  1
  Nd  Nd12  1  0.814539  0.185461  0.814539  1
  Nd  Nd13  1  0.185461  0.814539  0.185461  1
  Nd  Nd14  1  0.814539  0.814539  0.185461  1
  Nd  Nd15  1  0.185461  0.185461  0.814539  1
  Al  Al16  1  0.826204  0.824295  0.824295  1
  Al  Al17  1  0.824295  0.826204  0.525208  1
  Al  Al18  1  0.824295  0.525208  0.826204  1
  Al  Al19  1  0.525208  0.824295  0.824295  1
  Rh  Rh20  1  0.395200  0.390449  0.390449  1
  Rh  Rh21  1  0.390449  0.395200  0.823902  1
  Rh  Rh22  1  0.390449  0.823902  0.395200  1
  Rh  Rh23  1  0.823902  0.390449  0.390449  1
