# generated using pymatgen
data_LuZr4Sc3Ru8
_symmetry_space_group_name_H-M   'P 1'
_cell_length_a   6.51626300
_cell_length_b   4.60734800
_cell_length_c   9.23577200
_cell_angle_alpha   90.00000000
_cell_angle_beta   90.00019598
_cell_angle_gamma   90.00000000
_symmetry_Int_Tables_number   1
_chemical_formula_structural   LuZr4Sc3Ru8
_chemical_formula_sum   'Lu1 Zr4 Sc3 Ru8'
_cell_volume   277.28273168
_cell_formula_units_Z   1
loop_
 _symmetry_equiv_pos_site_id
 _symmetry_equiv_pos_as_xyz
  1  'x, y, z'
loop_
 _atom_site_type_symbol
 _atom_site_label
 _atom_site_symmetry_multiplicity
 _atom_site_fract_x
 _atom_site_fract_y
 _atom_site_fract_z
 _atom_site_occupancy
  Lu  Lu0  1  0.249914  0.250000  0.125000  1
  Zr  Zr1  1  0.749905  0.250000  0.125045  1
  Zr  Zr2  1  0.249889  0.750000  0.377996  1
  Zr  Zr3  1  0.750102  0.250000  0.625048  1
  Zr  Zr4  1  0.250121  0.750000  0.871963  1
  Sc  Sc5  1  0.749885  0.750000  0.375500  1
  Sc  Sc6  1  0.250105  0.250000  0.625010  1
  Sc  Sc7  1  0.750127  0.750000  0.874497  1
  Ru  Ru8  1  0.503530  0.750000  0.124944  1
  Ru  Ru9  1  0.996299  0.750000  0.124951  1
  Ru  Ru10  1  0.501705  0.250000  0.377606  1
  Ru  Ru11  1  0.998104  0.250000  0.377625  1
  Ru  Ru12  1  0.000083  0.750000  0.624982  1
  Ru  Ru13  1  0.500090  0.750000  0.624991  1
  Ru  Ru14  1  0.998256  0.250000  0.872403  1
  Ru  Ru15  1  0.501884  0.250000  0.872440  1
