# generated using pymatgen
data_Tb2HoCo4P6Ru5
_symmetry_space_group_name_H-M   'P 1'
_cell_length_a   3.85162100
_cell_length_b   10.67146200
_cell_length_c   12.55230500
_cell_angle_alpha   90.00000000
_cell_angle_beta   90.00000000
_cell_angle_gamma   90.00000000
_symmetry_Int_Tables_number   1
_chemical_formula_structural   Tb2HoCo4P6Ru5
_chemical_formula_sum   'Tb4 Ho2 Co8 P12 Ru10'
_cell_volume   515.93020170
_cell_formula_units_Z   2
loop_
 _symmetry_equiv_pos_site_id
 _symmetry_equiv_pos_as_xyz
  1  'x, y, z'
loop_
 _atom_site_type_symbol
 _atom_site_label
 _atom_site_symmetry_multiplicity
 _atom_site_fract_x
 _atom_site_fract_y
 _atom_site_fract_z
 _atom_site_occupancy
  Tb  Tb0  1  0.000000  0.500000  0.526998  1
  Tb  Tb1  1  0.500000  0.000000  0.473423  1
  Tb  Tb2  1  0.500000  0.821129  0.200641  1
  Tb  Tb3  1  0.500000  0.178871  0.200641  1
  Ho  Ho4  1  0.000000  0.678669  0.799472  1
  Ho  Ho5  1  0.000000  0.321331  0.799472  1
  Co  Co6  1  0.000000  0.500000  0.983382  1
  Co  Co7  1  0.500000  0.000000  0.015556  1
  Co  Co8  1  0.500000  0.332684  0.988531  1
  Co  Co9  1  0.500000  0.667316  0.988531  1
  Co  Co10  1  0.000000  0.167928  0.010507  1
  Co  Co11  1  0.000000  0.832072  0.010507  1
  Co  Co12  1  0.500000  0.500000  0.702800  1
  Co  Co13  1  0.000000  0.000000  0.297727  1
  P  P14  1  0.500000  0.313990  0.618367  1
  P  P15  1  0.500000  0.686010  0.618367  1
  P  P16  1  0.000000  0.186222  0.382449  1
  P  P17  1  0.000000  0.813778  0.382449  1
  P  P18  1  0.500000  0.500000  0.880868  1
  P  P19  1  0.000000  0.000000  0.117791  1
  P  P20  1  0.500000  0.845673  0.900938  1
  P  P21  1  0.500000  0.154327  0.900938  1
  P  P22  1  0.000000  0.653534  0.098731  1
  P  P23  1  0.000000  0.346466  0.098731  1
  P  P24  1  0.500000  0.500000  0.336005  1
  P  P25  1  0.000000  0.000000  0.664101  1
  Ru  Ru26  1  0.500000  0.297906  0.427621  1
  Ru  Ru27  1  0.500000  0.702094  0.427621  1
  Ru  Ru28  1  0.000000  0.202307  0.573000  1
  Ru  Ru29  1  0.000000  0.797693  0.573000  1
  Ru  Ru30  1  0.500000  0.874808  0.719443  1
  Ru  Ru31  1  0.500000  0.125192  0.719443  1
  Ru  Ru32  1  0.000000  0.624768  0.281035  1
  Ru  Ru33  1  0.000000  0.375232  0.281035  1
  Ru  Ru34  1  0.500000  0.500000  0.146330  1
  Ru  Ru35  1  0.000000  0.000000  0.853552  1
