# generated using pymatgen
data_Ho2Si2NiOs
_symmetry_space_group_name_H-M   'P 1'
_cell_length_a   4.23687700
_cell_length_b   6.89026504
_cell_length_c   7.14969691
_cell_angle_alpha   91.62621241
_cell_angle_beta   90.00000000
_cell_angle_gamma   90.00000000
_symmetry_Int_Tables_number   1
_chemical_formula_structural   Ho2Si2NiOs
_chemical_formula_sum   'Ho4 Si4 Ni2 Os2'
_cell_volume   208.63850506
_cell_formula_units_Z   2
loop_
 _symmetry_equiv_pos_site_id
 _symmetry_equiv_pos_as_xyz
  1  'x, y, z'
loop_
 _atom_site_type_symbol
 _atom_site_label
 _atom_site_symmetry_multiplicity
 _atom_site_fract_x
 _atom_site_fract_y
 _atom_site_fract_z
 _atom_site_occupancy
  Ho  Ho0  1  0.750000  0.011759  0.319370  1
  Ho  Ho1  1  0.250000  0.988241  0.680630  1
  Ho  Ho2  1  0.250000  0.489695  0.798924  1
  Ho  Ho3  1  0.750000  0.510305  0.201076  1
  Si  Si4  1  0.750000  0.695133  0.603742  1
  Si  Si5  1  0.250000  0.304867  0.396258  1
  Si  Si6  1  0.250000  0.799986  0.098634  1
  Si  Si7  1  0.750000  0.200014  0.901366  1
  Ni  Ni8  1  0.250000  0.665037  0.423753  1
  Ni  Ni9  1  0.750000  0.334963  0.576247  1
  Os  Os10  1  0.750000  0.842531  0.929022  1
  Os  Os11  1  0.250000  0.157469  0.070978  1
