# generated using pymatgen
data_Dy2Ho4SbRuO14
_symmetry_space_group_name_H-M   'P 1'
_cell_length_a   6.43943315
_cell_length_b   6.43943384
_cell_length_c   7.45392977
_cell_angle_alpha   90.23540990
_cell_angle_beta   89.76458475
_cell_angle_gamma   109.23810251
_symmetry_Int_Tables_number   1
_chemical_formula_structural   Dy2Ho4SbRuO14
_chemical_formula_sum   'Dy2 Ho4 Sb1 Ru1 O14'
_cell_volume   291.82301183
_cell_formula_units_Z   1
loop_
 _symmetry_equiv_pos_site_id
 _symmetry_equiv_pos_as_xyz
  1  'x, y, z'
loop_
 _atom_site_type_symbol
 _atom_site_label
 _atom_site_symmetry_multiplicity
 _atom_site_fract_x
 _atom_site_fract_y
 _atom_site_fract_z
 _atom_site_occupancy
  Dy  Dy0  1  0.517143  0.517143  0.500000  1
  Dy  Dy1  1  0.488778  0.488778  0.000000  1
  Ho  Ho2  1  0.000130  0.466699  0.746197  1
  Ho  Ho3  1  0.999918  0.534472  0.248551  1
  Ho  Ho4  1  0.534472  0.999918  0.751449  1
  Ho  Ho5  1  0.466699  0.000130  0.253803  1
  Sb  Sb6  1  0.000545  0.000545  0.000000  1
  Ru  Ru7  1  0.000073  0.000073  0.500000  1
  O  O8  1  0.637667  0.361796  0.748342  1
  O  O9  1  0.361796  0.637667  0.251658  1
  O  O10  1  0.928349  0.071906  0.748438  1
  O  O11  1  0.071906  0.928349  0.251562  1
  O  O12  1  0.921415  0.675706  0.527994  1
  O  O13  1  0.077377  0.326339  0.027835  1
  O  O14  1  0.326339  0.077377  0.972165  1
  O  O15  1  0.675706  0.921415  0.472006  1
  O  O16  1  0.368820  0.631002  0.750002  1
  O  O17  1  0.631002  0.368820  0.249998  1
  O  O18  1  0.933004  0.678622  0.967941  1
  O  O19  1  0.065361  0.314876  0.465860  1
  O  O20  1  0.314876  0.065361  0.534140  1
  O  O21  1  0.678622  0.933004  0.032059  1
