# generated using pymatgen
data_ZrScCuS4
_symmetry_space_group_name_H-M   'P 1'
_cell_length_a   7.39836605
_cell_length_b   7.39836579
_cell_length_c   7.39836609
_cell_angle_alpha   120.10685046
_cell_angle_beta   119.84747217
_cell_angle_gamma   90.03971219
_symmetry_Int_Tables_number   1
_chemical_formula_structural   ZrScCuS4
_chemical_formula_sum   'Zr2 Sc2 Cu2 S8'
_cell_volume   286.44379990
_cell_formula_units_Z   2
loop_
 _symmetry_equiv_pos_site_id
 _symmetry_equiv_pos_as_xyz
  1  'x, y, z'
loop_
 _atom_site_type_symbol
 _atom_site_label
 _atom_site_symmetry_multiplicity
 _atom_site_fract_x
 _atom_site_fract_y
 _atom_site_fract_z
 _atom_site_occupancy
  Zr  Zr0  1  0.000000  0.500000  0.000000  1
  Zr  Zr1  1  0.000000  0.000000  0.500000  1
  Sc  Sc2  1  0.500000  0.500000  0.000000  1
  Sc  Sc3  1  0.000000  0.500000  0.500000  1
  Cu  Cu4  1  0.371910  0.121910  0.250000  1
  Cu  Cu5  1  0.628090  0.878090  0.750000  1
  S  S6  1  0.243569  0.748508  0.495061  1
  S  S7  1  0.753447  0.748508  0.004939  1
  S  S8  1  0.754232  0.746770  0.492538  1
  S  S9  1  0.754232  0.261694  0.007462  1
  S  S10  1  0.756431  0.251492  0.504939  1
  S  S11  1  0.246553  0.251492  0.995061  1
  S  S12  1  0.245768  0.253230  0.507462  1
  S  S13  1  0.245768  0.738306  0.992538  1
