# generated using pymatgen
data_Pr3Th5Rh8
_symmetry_space_group_name_H-M   'P 1'
_cell_length_a   4.17713400
_cell_length_b   6.01451485
_cell_length_c   15.07092472
_cell_angle_alpha   89.66338471
_cell_angle_beta   90.00000000
_cell_angle_gamma   90.00000000
_symmetry_Int_Tables_number   1
_chemical_formula_structural   Pr3Th5Rh8
_chemical_formula_sum   'Pr3 Th5 Rh8'
_cell_volume   378.62685518
_cell_formula_units_Z   1
loop_
 _symmetry_equiv_pos_site_id
 _symmetry_equiv_pos_as_xyz
  1  'x, y, z'
loop_
 _atom_site_type_symbol
 _atom_site_label
 _atom_site_symmetry_multiplicity
 _atom_site_fract_x
 _atom_site_fract_y
 _atom_site_fract_z
 _atom_site_occupancy
  Pr  Pr0  1  0.250000  0.541944  0.284034  1
  Pr  Pr1  1  0.750000  0.461883  0.716824  1
  Pr  Pr2  1  0.250000  0.961550  0.783314  1
  Th  Th3  1  0.250000  0.753668  0.535955  1
  Th  Th4  1  0.250000  0.741417  0.036163  1
  Th  Th5  1  0.750000  0.247518  0.964466  1
  Th  Th6  1  0.750000  0.040961  0.216019  1
  Th  Th7  1  0.750000  0.251245  0.463482  1
  Rh  Rh8  1  0.250000  0.057169  0.351521  1
  Rh  Rh9  1  0.750000  0.558345  0.141834  1
  Rh  Rh10  1  0.750000  0.732332  0.408654  1
  Rh  Rh11  1  0.250000  0.442227  0.863637  1
  Rh  Rh12  1  0.750000  0.946921  0.636249  1
  Rh  Rh13  1  0.750000  0.774879  0.908956  1
  Rh  Rh14  1  0.250000  0.211508  0.099382  1
  Rh  Rh15  1  0.250000  0.276432  0.589508  1
