# generated using pymatgen
data_Ca4YIr2
_symmetry_space_group_name_H-M   'P 1'
_cell_length_a   6.65171997
_cell_length_b   7.42544239
_cell_length_c   8.65414362
_cell_angle_alpha   97.46839634
_cell_angle_beta   112.60082152
_cell_angle_gamma   89.99999668
_symmetry_Int_Tables_number   1
_chemical_formula_structural   Ca4YIr2
_chemical_formula_sum   'Ca8 Y2 Ir4'
_cell_volume   390.68867821
_cell_formula_units_Z   2
loop_
 _symmetry_equiv_pos_site_id
 _symmetry_equiv_pos_as_xyz
  1  'x, y, z'
loop_
 _atom_site_type_symbol
 _atom_site_label
 _atom_site_symmetry_multiplicity
 _atom_site_fract_x
 _atom_site_fract_y
 _atom_site_fract_z
 _atom_site_occupancy
  Ca  Ca0  1  0.976663  0.919570  0.172088  1
  Ca  Ca1  1  0.804574  0.580430  0.827912  1
  Ca  Ca2  1  0.023337  0.080430  0.827912  1
  Ca  Ca3  1  0.195426  0.419570  0.172088  1
  Ca  Ca4  1  0.643115  0.820506  0.436325  1
  Ca  Ca5  1  0.206790  0.679494  0.563675  1
  Ca  Ca6  1  0.356885  0.179494  0.563675  1
  Ca  Ca7  1  0.793210  0.320506  0.436325  1
  Y  Y8  1  0.437569  0.750000  0.000000  1
  Y  Y9  1  0.562431  0.250000  0.000000  1
  Ir  Ir10  1  0.808627  0.573596  0.209037  1
  Ir  Ir11  1  0.599589  0.926404  0.790963  1
  Ir  Ir12  1  0.191373  0.426404  0.790963  1
  Ir  Ir13  1  0.400411  0.073596  0.209037  1
