# generated using pymatgen
data_Tb8ErTmIr4
_symmetry_space_group_name_H-M   'P 1'
_cell_length_a   6.50015247
_cell_length_b   7.19204935
_cell_length_c   8.55604646
_cell_angle_alpha   96.23758182
_cell_angle_beta   112.32483623
_cell_angle_gamma   89.99999835
_symmetry_Int_Tables_number   1
_chemical_formula_structural   Tb8ErTmIr4
_chemical_formula_sum   'Tb8 Er1 Tm1 Ir4'
_cell_volume   367.44784464
_cell_formula_units_Z   1
loop_
 _symmetry_equiv_pos_site_id
 _symmetry_equiv_pos_as_xyz
  1  'x, y, z'
loop_
 _atom_site_type_symbol
 _atom_site_label
 _atom_site_symmetry_multiplicity
 _atom_site_fract_x
 _atom_site_fract_y
 _atom_site_fract_z
 _atom_site_occupancy
  Tb  Tb0  1  0.971071  0.919146  0.181843  1
  Tb  Tb1  1  0.789227  0.580854  0.818157  1
  Tb  Tb2  1  0.028840  0.081411  0.818277  1
  Tb  Tb3  1  0.210564  0.418589  0.181723  1
  Tb  Tb4  1  0.652509  0.816543  0.439820  1
  Tb  Tb5  1  0.212690  0.683457  0.560180  1
  Tb  Tb6  1  0.347944  0.183593  0.560628  1
  Tb  Tb7  1  0.787315  0.316407  0.439372  1
  Er  Er8  1  0.429853  0.750000  0.000000  1
  Tm  Tm9  1  0.569698  0.250000  0.000000  1
  Ir  Ir10  1  0.821862  0.572373  0.217566  1
  Ir  Ir11  1  0.604295  0.927627  0.782434  1
  Ir  Ir12  1  0.178301  0.426599  0.782469  1
  Ir  Ir13  1  0.395832  0.073401  0.217531  1
