# generated using pymatgen
data_Hf2FeP2Rh
_symmetry_space_group_name_H-M   'P 1'
_cell_length_a   3.74791300
_cell_length_b   6.37177585
_cell_length_c   7.24681090
_cell_angle_alpha   89.06023716
_cell_angle_beta   90.00000000
_cell_angle_gamma   90.00000000
_symmetry_Int_Tables_number   1
_chemical_formula_structural   Hf2FeP2Rh
_chemical_formula_sum   'Hf4 Fe2 P4 Rh2'
_cell_volume   173.03680964
_cell_formula_units_Z   2
loop_
 _symmetry_equiv_pos_site_id
 _symmetry_equiv_pos_as_xyz
  1  'x, y, z'
loop_
 _atom_site_type_symbol
 _atom_site_label
 _atom_site_symmetry_multiplicity
 _atom_site_fract_x
 _atom_site_fract_y
 _atom_site_fract_z
 _atom_site_occupancy
  Hf  Hf0  1  0.250000  0.525498  0.686391  1
  Hf  Hf1  1  0.750000  0.474502  0.313609  1
  Hf  Hf2  1  0.250000  0.019494  0.823401  1
  Hf  Hf3  1  0.750000  0.980506  0.176599  1
  Fe  Fe4  1  0.750000  0.357241  0.943197  1
  Fe  Fe5  1  0.250000  0.642759  0.056803  1
  P  P6  1  0.250000  0.280677  0.102830  1
  P  P7  1  0.750000  0.719323  0.897170  1
  P  P8  1  0.250000  0.759496  0.361793  1
  P  P9  1  0.750000  0.240504  0.638207  1
  Rh  Rh10  1  0.750000  0.847996  0.565249  1
  Rh  Rh11  1  0.250000  0.152004  0.434751  1
