# generated using pymatgen
data_Sc4Co18Si3P9Ru2
_symmetry_space_group_name_H-M   'P 1'
_cell_length_a   3.62577500
_cell_length_b   10.21678949
_cell_length_c   11.70198670
_cell_angle_alpha   90.06180038
_cell_angle_beta   90.00000000
_cell_angle_gamma   90.00000000
_symmetry_Int_Tables_number   1
_chemical_formula_structural   Sc4Co18Si3P9Ru2
_chemical_formula_sum   'Sc4 Co18 Si3 P9 Ru2'
_cell_volume   433.48556759
_cell_formula_units_Z   1
loop_
 _symmetry_equiv_pos_site_id
 _symmetry_equiv_pos_as_xyz
  1  'x, y, z'
loop_
 _atom_site_type_symbol
 _atom_site_label
 _atom_site_symmetry_multiplicity
 _atom_site_fract_x
 _atom_site_fract_y
 _atom_site_fract_z
 _atom_site_occupancy
  Sc  Sc0  1  0.250000  0.580950  0.700459  1
  Sc  Sc1  1  0.250000  0.923239  0.200158  1
  Sc  Sc2  1  0.750000  0.416129  0.295437  1
  Sc  Sc3  1  0.750000  0.084631  0.795184  1
  Co  Co4  1  0.750000  0.282905  0.008014  1
  Co  Co5  1  0.750000  0.216641  0.508653  1
  Co  Co6  1  0.250000  0.406872  0.485269  1
  Co  Co7  1  0.250000  0.094654  0.984185  1
  Co  Co8  1  0.750000  0.589595  0.515944  1
  Co  Co9  1  0.750000  0.913810  0.010365  1
  Co  Co10  1  0.250000  0.220300  0.175433  1
  Co  Co11  1  0.250000  0.279377  0.675277  1
  Co  Co12  1  0.750000  0.786571  0.821982  1
  Co  Co13  1  0.750000  0.711397  0.326876  1
  Co  Co14  1  0.250000  0.887680  0.702537  1
  Co  Co15  1  0.250000  0.610531  0.203276  1
  Co  Co16  1  0.750000  0.120755  0.299265  1
  Co  Co17  1  0.750000  0.379501  0.799027  1
  Co  Co18  1  0.250000  0.459149  0.932948  1
  Co  Co19  1  0.250000  0.040628  0.433675  1
  Co  Co20  1  0.750000  0.527195  0.071635  1
  Co  Co21  1  0.750000  0.967933  0.572890  1
  Si  Si22  1  0.750000  0.581173  0.885302  1
  Si  Si23  1  0.750000  0.918262  0.384243  1
  Si  Si24  1  0.750000  0.733822  0.134414  1
  P  P25  1  0.250000  0.417828  0.115605  1
  P  P26  1  0.250000  0.081886  0.615462  1
  P  P27  1  0.250000  0.264849  0.865258  1
  P  P28  1  0.250000  0.235444  0.366130  1
  P  P29  1  0.750000  0.767129  0.635094  1
  P  P30  1  0.250000  0.592937  0.389425  1
  P  P31  1  0.250000  0.907132  0.889241  1
  P  P32  1  0.750000  0.399853  0.610434  1
  P  P33  1  0.750000  0.100438  0.109892  1
  Ru  Ru34  1  0.250000  0.712499  0.989341  1
  Ru  Ru35  1  0.250000  0.786304  0.491673  1
