# generated using pymatgen
data_Eu2In8CuPd
_symmetry_space_group_name_H-M   'P 1'
_cell_length_a   8.90635722
_cell_length_b   8.90635762
_cell_length_c   7.39908678
_cell_angle_alpha   89.92366682
_cell_angle_beta   90.07633445
_cell_angle_gamma   149.67723728
_symmetry_Int_Tables_number   1
_chemical_formula_structural   Eu2In8CuPd
_chemical_formula_sum   'Eu2 In8 Cu1 Pd1'
_cell_volume   296.31799480
_cell_formula_units_Z   1
loop_
 _symmetry_equiv_pos_site_id
 _symmetry_equiv_pos_as_xyz
  1  'x, y, z'
loop_
 _atom_site_type_symbol
 _atom_site_label
 _atom_site_symmetry_multiplicity
 _atom_site_fract_x
 _atom_site_fract_y
 _atom_site_fract_z
 _atom_site_occupancy
  Eu  Eu0  1  0.878543  0.121457  0.750015  1
  Eu  Eu1  1  0.123487  0.876513  0.249908  1
  In  In2  1  0.500382  0.499618  0.001742  1
  In  In3  1  0.500393  0.499607  0.498106  1
  In  In4  1  0.068826  0.931174  0.749888  1
  In  In5  1  0.927514  0.072486  0.250223  1
  In  In6  1  0.684854  0.315146  0.952882  1
  In  In7  1  0.316758  0.683242  0.049263  1
  In  In8  1  0.684855  0.315145  0.546918  1
  In  In9  1  0.316713  0.683287  0.450873  1
  Cu  Cu10  1  0.772773  0.227227  0.250412  1
  Pd  Pd11  1  0.224903  0.775097  0.749771  1
