# generated using pymatgen
data_Tb3Y5(HoRh)4
_symmetry_space_group_name_H-M   'P 1'
_cell_length_a   6.27914080
_cell_length_b   7.18824217
_cell_length_c   9.54764149
_cell_angle_alpha   89.99731549
_cell_angle_beta   89.70957412
_cell_angle_gamma   90.01993308
_symmetry_Int_Tables_number   1
_chemical_formula_structural   Tb3Y5(HoRh)4
_chemical_formula_sum   'Tb3 Y5 Ho4 Rh4'
_cell_volume   430.93663783
_cell_formula_units_Z   1
loop_
 _symmetry_equiv_pos_site_id
 _symmetry_equiv_pos_as_xyz
  1  'x, y, z'
loop_
 _atom_site_type_symbol
 _atom_site_label
 _atom_site_symmetry_multiplicity
 _atom_site_fract_x
 _atom_site_fract_y
 _atom_site_fract_z
 _atom_site_occupancy
  Tb  Tb0  1  0.169855  0.176859  0.063907  1
  Tb  Tb1  1  0.829404  0.822791  0.936240  1
  Tb  Tb2  1  0.669808  0.323223  0.936545  1
  Y  Y3  1  0.633029  0.032138  0.250829  1
  Y  Y4  1  0.365813  0.966693  0.748890  1
  Y  Y5  1  0.134071  0.466991  0.748789  1
  Y  Y6  1  0.866798  0.533778  0.250530  1
  Y  Y7  1  0.669791  0.323550  0.561654  1
  Ho  Ho8  1  0.829562  0.823215  0.562895  1
  Ho  Ho9  1  0.329972  0.677086  0.064513  1
  Ho  Ho10  1  0.170154  0.176416  0.436958  1
  Ho  Ho11  1  0.329240  0.676573  0.436239  1
  Rh  Rh12  1  0.438304  0.384694  0.250286  1
  Rh  Rh13  1  0.560581  0.617467  0.750720  1
  Rh  Rh14  1  0.940518  0.114931  0.748965  1
  Rh  Rh15  1  0.063100  0.883594  0.252038  1
