# generated using pymatgen
data_CrNi2SeO8
_symmetry_space_group_name_H-M   'P 1'
_cell_length_a   4.98031603
_cell_length_b   6.40895900
_cell_length_c   4.98031491
_cell_angle_alpha   90.00000000
_cell_angle_beta   112.92470851
_cell_angle_gamma   90.00000000
_symmetry_Int_Tables_number   1
_chemical_formula_structural   CrNi2SeO8
_chemical_formula_sum   'Cr1 Ni2 Se1 O8'
_cell_volume   146.40944264
_cell_formula_units_Z   1
loop_
 _symmetry_equiv_pos_site_id
 _symmetry_equiv_pos_as_xyz
  1  'x, y, z'
loop_
 _atom_site_type_symbol
 _atom_site_label
 _atom_site_symmetry_multiplicity
 _atom_site_fract_x
 _atom_site_fract_y
 _atom_site_fract_z
 _atom_site_occupancy
  Cr  Cr0  1  0.357694  0.250000  0.642306  1
  Ni  Ni1  1  0.000574  0.003235  0.999426  1
  Ni  Ni2  1  0.000574  0.496765  0.999426  1
  Se  Se3  1  0.648507  0.750000  0.351493  1
  O  O4  1  0.276839  0.750000  0.227712  1
  O  O5  1  0.730414  0.250000  0.782903  1
  O  O6  1  0.217097  0.250000  0.269586  1
  O  O7  1  0.772288  0.750000  0.723161  1
  O  O8  1  0.754567  0.968587  0.245433  1
  O  O9  1  0.243440  0.457207  0.756560  1
  O  O10  1  0.243440  0.042793  0.756560  1
  O  O11  1  0.754567  0.531413  0.245433  1
