# generated using pymatgen
data_Ti8Al14AsIr5Rh2
_symmetry_space_group_name_H-M   'P 1'
_cell_length_a   8.64631844
_cell_length_b   8.64631832
_cell_length_c   8.64631928
_cell_angle_alpha   119.92997287
_cell_angle_beta   119.85037195
_cell_angle_gamma   90.19034861
_symmetry_Int_Tables_number   1
_chemical_formula_structural   Ti8Al14AsIr5Rh2
_chemical_formula_sum   'Ti8 Al14 As1 Ir5 Rh2'
_cell_volume   457.82151809
_cell_formula_units_Z   1
loop_
 _symmetry_equiv_pos_site_id
 _symmetry_equiv_pos_as_xyz
  1  'x, y, z'
loop_
 _atom_site_type_symbol
 _atom_site_label
 _atom_site_symmetry_multiplicity
 _atom_site_fract_x
 _atom_site_fract_y
 _atom_site_fract_z
 _atom_site_occupancy
  Ti  Ti0  1  0.795994  0.296988  0.085998  1
  Ti  Ti1  1  0.210989  0.296988  0.500996  1
  Ti  Ti2  1  0.203780  0.703780  0.500000  1
  Ti  Ti3  1  0.210989  0.709994  0.914002  1
  Ti  Ti4  1  0.795994  0.709994  0.499004  1
  Ti  Ti5  1  0.790070  0.290070  0.500000  1
  Ti  Ti6  1  0.379508  0.122392  0.742884  1
  Ti  Ti7  1  0.379508  0.636624  0.257116  1
  Al  Al8  1  0.157895  0.337137  0.179241  1
  Al  Al9  1  0.157895  0.978653  0.820759  1
  Al  Al10  1  0.154823  0.340730  0.814091  1
  Al  Al11  1  0.526638  0.340730  0.185909  1
  Al  Al12  1  0.841003  0.660081  0.819080  1
  Al  Al13  1  0.841003  0.021923  0.180920  1
  Al  Al14  1  0.838005  0.660406  0.177599  1
  Al  Al15  1  0.482807  0.660406  0.822401  1
  Al  Al16  1  0.380044  0.119575  0.260469  1
  Al  Al17  1  0.859108  0.119575  0.739531  1
  Al  Al18  1  0.620397  0.879711  0.259316  1
  Al  Al19  1  0.620397  0.361081  0.740684  1
  Al  Al20  1  0.620537  0.879672  0.740865  1
  Al  Al21  1  0.138807  0.879672  0.259135  1
  As  As22  1  0.997531  0.497531  0.500000  1
  Ir  Ir23  1  0.001508  0.999815  0.501443  1
  Ir  Ir24  1  0.498372  0.999815  0.998307  1
  Ir  Ir25  1  0.497501  0.497501  0.000000  1
  Ir  Ir26  1  0.498372  0.500064  0.498557  1
  Ir  Ir27  1  0.001508  0.500064  0.001693  1
  Rh  Rh28  1  0.000105  0.000105  0.000000  1
  Rh  Rh29  1  0.498914  0.998914  0.500000  1
