# generated using pymatgen
data_Nd2Zn7Ga
_symmetry_space_group_name_H-M   'P 1'
_cell_length_a   6.05346221
_cell_length_b   6.05346136
_cell_length_c   5.97815000
_cell_angle_alpha   90.00000000
_cell_angle_beta   90.00000000
_cell_angle_gamma   118.37179297
_symmetry_Int_Tables_number   1
_chemical_formula_structural   Nd2Zn7Ga
_chemical_formula_sum   'Nd2 Zn7 Ga1'
_cell_volume   192.75211711
_cell_formula_units_Z   1
loop_
 _symmetry_equiv_pos_site_id
 _symmetry_equiv_pos_as_xyz
  1  'x, y, z'
loop_
 _atom_site_type_symbol
 _atom_site_label
 _atom_site_symmetry_multiplicity
 _atom_site_fract_x
 _atom_site_fract_y
 _atom_site_fract_z
 _atom_site_occupancy
  Nd  Nd0  1  0.266764  0.733236  0.750000  1
  Nd  Nd1  1  0.732719  0.267281  0.250000  1
  Zn  Zn2  1  0.152353  0.847647  0.250000  1
  Zn  Zn3  1  0.608579  0.391421  0.750000  1
  Zn  Zn4  1  0.388163  0.611837  0.250000  1
  Zn  Zn5  1  0.782165  0.780187  0.002646  1
  Zn  Zn6  1  0.782165  0.780187  0.497354  1
  Zn  Zn7  1  0.219813  0.217835  0.002646  1
  Zn  Zn8  1  0.219813  0.217835  0.497354  1
  Ga  Ga9  1  0.847467  0.152533  0.750000  1
