# generated using pymatgen
data_Zr2(Al3Co)3
_symmetry_space_group_name_H-M   'P 1'
_cell_length_a   7.26432420
_cell_length_b   7.26432490
_cell_length_c   9.01982100
_cell_angle_alpha   90.00000000
_cell_angle_beta   90.00000000
_cell_angle_gamma   119.43573423
_symmetry_Int_Tables_number   1
_chemical_formula_structural   Zr2(Al3Co)3
_chemical_formula_sum   'Zr4 Al18 Co6'
_cell_volume   414.53424621
_cell_formula_units_Z   2
loop_
 _symmetry_equiv_pos_site_id
 _symmetry_equiv_pos_as_xyz
  1  'x, y, z'
loop_
 _atom_site_type_symbol
 _atom_site_label
 _atom_site_symmetry_multiplicity
 _atom_site_fract_x
 _atom_site_fract_y
 _atom_site_fract_z
 _atom_site_occupancy
  Zr  Zr0  1  0.991981  0.673110  0.250000  1
  Zr  Zr1  1  0.008019  0.326890  0.750000  1
  Zr  Zr2  1  0.673110  0.991981  0.250000  1
  Zr  Zr3  1  0.326890  0.008019  0.750000  1
  Al  Al4  1  0.994541  0.334926  0.073385  1
  Al  Al5  1  0.005459  0.665074  0.926615  1
  Al  Al6  1  0.005459  0.665074  0.573385  1
  Al  Al7  1  0.334926  0.994541  0.426615  1
  Al  Al8  1  0.994541  0.334926  0.426615  1
  Al  Al9  1  0.665074  0.005459  0.573385  1
  Al  Al10  1  0.665074  0.005459  0.926615  1
  Al  Al11  1  0.334926  0.994541  0.073385  1
  Al  Al12  1  0.338725  0.561015  0.250000  1
  Al  Al13  1  0.661275  0.438985  0.750000  1
  Al  Al14  1  0.561015  0.338725  0.250000  1
  Al  Al15  1  0.438985  0.661275  0.750000  1
  Al  Al16  1  0.330469  0.330469  0.547314  1
  Al  Al17  1  0.669531  0.669531  0.452686  1
  Al  Al18  1  0.669531  0.669531  0.047314  1
  Al  Al19  1  0.330469  0.330469  0.952686  1
  Al  Al20  1  0.119469  0.119469  0.250000  1
  Al  Al21  1  0.880531  0.880531  0.750000  1
  Co  Co22  1  0.671977  0.328023  0.000000  1
  Co  Co23  1  0.328023  0.671977  0.000000  1
  Co  Co24  1  0.328023  0.671977  0.500000  1
  Co  Co25  1  0.671977  0.328023  0.500000  1
  Co  Co26  1  0.000000  0.000000  0.000000  1
  Co  Co27  1  0.000000  0.000000  0.500000  1
