# generated using pymatgen
data_YLu3(Sc4Bi3)4
_symmetry_space_group_name_H-M   'P 1'
_cell_length_a   7.86978092
_cell_length_b   9.05059000
_cell_length_c   11.53615300
_cell_angle_alpha   90.00000000
_cell_angle_beta   89.97227593
_cell_angle_gamma   90.00000000
_symmetry_Int_Tables_number   1
_chemical_formula_structural   YLu3(Sc4Bi3)4
_chemical_formula_sum   'Y1 Lu3 Sc16 Bi12'
_cell_volume   821.67578904
_cell_formula_units_Z   1
loop_
 _symmetry_equiv_pos_site_id
 _symmetry_equiv_pos_as_xyz
  1  'x, y, z'
loop_
 _atom_site_type_symbol
 _atom_site_label
 _atom_site_symmetry_multiplicity
 _atom_site_fract_x
 _atom_site_fract_y
 _atom_site_fract_z
 _atom_site_occupancy
  Y  Y0  1  0.184156  0.250000  0.781245  1
  Lu  Lu1  1  0.815317  0.750000  0.218022  1
  Lu  Lu2  1  0.315307  0.750000  0.281890  1
  Lu  Lu3  1  0.684505  0.250000  0.718138  1
  Sc  Sc4  1  0.018313  0.250000  0.510840  1
  Sc  Sc5  1  0.981069  0.750000  0.488351  1
  Sc  Sc6  1  0.481205  0.750000  0.011771  1
  Sc  Sc7  1  0.519385  0.250000  0.988968  1
  Sc  Sc8  1  0.350997  0.250000  0.279747  1
  Sc  Sc9  1  0.649339  0.750000  0.719956  1
  Sc  Sc10  1  0.149289  0.750000  0.779864  1
  Sc  Sc11  1  0.850655  0.250000  0.220386  1
  Sc  Sc12  1  0.193411  0.067358  0.062406  1
  Sc  Sc13  1  0.806754  0.932526  0.937923  1
  Sc  Sc14  1  0.306317  0.932386  0.561901  1
  Sc  Sc15  1  0.806754  0.567474  0.937923  1
  Sc  Sc16  1  0.693727  0.067423  0.437940  1
  Sc  Sc17  1  0.193411  0.432642  0.062406  1
  Sc  Sc18  1  0.693727  0.432577  0.437940  1
  Sc  Sc19  1  0.306317  0.567614  0.561901  1
  Bi  Bi20  1  0.403608  0.250000  0.534261  1
  Bi  Bi21  1  0.596860  0.750000  0.465101  1
  Bi  Bi22  1  0.097051  0.750000  0.034806  1
  Bi  Bi23  1  0.901841  0.250000  0.966410  1
  Bi  Bi24  1  0.065059  0.008305  0.327762  1
  Bi  Bi25  1  0.933939  0.990815  0.671683  1
  Bi  Bi26  1  0.436411  0.990553  0.828062  1
  Bi  Bi27  1  0.933939  0.509185  0.671683  1
  Bi  Bi28  1  0.564934  0.008285  0.172443  1
  Bi  Bi29  1  0.065059  0.491695  0.327762  1
  Bi  Bi30  1  0.564934  0.491715  0.172443  1
  Bi  Bi31  1  0.436411  0.509447  0.828062  1
