# generated using pymatgen
data_Th3Ga24Pd2Rh7
_symmetry_space_group_name_H-M   'P 1'
_cell_length_a   8.49278516
_cell_length_b   8.49278526
_cell_length_c   8.49278477
_cell_angle_alpha   90.60339077
_cell_angle_beta   90.60339365
_cell_angle_gamma   90.60339804
_symmetry_Int_Tables_number   1
_chemical_formula_structural   Th3Ga24Pd2Rh7
_chemical_formula_sum   'Th3 Ga24 Pd2 Rh7'
_cell_volume   612.45986365
_cell_formula_units_Z   1
loop_
 _symmetry_equiv_pos_site_id
 _symmetry_equiv_pos_as_xyz
  1  'x, y, z'
loop_
 _atom_site_type_symbol
 _atom_site_label
 _atom_site_symmetry_multiplicity
 _atom_site_fract_x
 _atom_site_fract_y
 _atom_site_fract_z
 _atom_site_occupancy
  Th  Th0  1  0.000000  0.500000  0.000000  1
  Th  Th1  1  0.500000  0.000000  0.000000  1
  Th  Th2  1  0.000000  0.000000  0.500000  1
  Ga  Ga3  1  0.987944  0.636983  0.636983  1
  Ga  Ga4  1  0.636983  0.636983  0.987944  1
  Ga  Ga5  1  0.636983  0.987944  0.636983  1
  Ga  Ga6  1  0.012056  0.363017  0.363017  1
  Ga  Ga7  1  0.363017  0.363017  0.012056  1
  Ga  Ga8  1  0.363017  0.012056  0.363017  1
  Ga  Ga9  1  0.737740  0.500000  0.262260  1
  Ga  Ga10  1  0.262260  0.500000  0.737740  1
  Ga  Ga11  1  0.500000  0.262260  0.737740  1
  Ga  Ga12  1  0.500000  0.737740  0.262260  1
  Ga  Ga13  1  0.262260  0.737740  0.500000  1
  Ga  Ga14  1  0.737740  0.262260  0.500000  1
  Ga  Ga15  1  0.837377  0.146865  0.837377  1
  Ga  Ga16  1  0.146865  0.837377  0.837377  1
  Ga  Ga17  1  0.837377  0.837377  0.146865  1
  Ga  Ga18  1  0.162623  0.853135  0.162623  1
  Ga  Ga19  1  0.853135  0.162623  0.162623  1
  Ga  Ga20  1  0.162623  0.162623  0.853135  1
  Ga  Ga21  1  0.729035  0.482193  0.729035  1
  Ga  Ga22  1  0.482193  0.729035  0.729035  1
  Ga  Ga23  1  0.729035  0.729035  0.482193  1
  Ga  Ga24  1  0.270965  0.517807  0.270965  1
  Ga  Ga25  1  0.517807  0.270965  0.270965  1
  Ga  Ga26  1  0.270965  0.270965  0.517807  1
  Pd  Pd27  1  0.835831  0.835831  0.835831  1
  Pd  Pd28  1  0.164169  0.164169  0.164169  1
  Rh  Rh29  1  0.665414  0.334586  0.000000  1
  Rh  Rh30  1  0.000000  0.334586  0.665414  1
  Rh  Rh31  1  0.334586  0.000000  0.665414  1
  Rh  Rh32  1  0.334586  0.665414  0.000000  1
  Rh  Rh33  1  0.000000  0.665414  0.334586  1
  Rh  Rh34  1  0.665414  0.000000  0.334586  1
  Rh  Rh35  1  0.500000  0.500000  0.500000  1
