# generated using pymatgen
data_Ho4Co2TcRu5
_symmetry_space_group_name_H-M   'P 1'
_cell_length_a   5.17694720
_cell_length_b   5.30171159
_cell_length_c   8.87276700
_cell_angle_alpha   90.00000000
_cell_angle_beta   90.00000000
_cell_angle_gamma   121.39579337
_symmetry_Int_Tables_number   1
_chemical_formula_structural   Ho4Co2TcRu5
_chemical_formula_sum   'Ho4 Co2 Tc1 Ru5'
_cell_volume   207.87283779
_cell_formula_units_Z   1
loop_
 _symmetry_equiv_pos_site_id
 _symmetry_equiv_pos_as_xyz
  1  'x, y, z'
loop_
 _atom_site_type_symbol
 _atom_site_label
 _atom_site_symmetry_multiplicity
 _atom_site_fract_x
 _atom_site_fract_y
 _atom_site_fract_z
 _atom_site_occupancy
  Ho  Ho0  1  0.327247  0.662338  0.432856  1
  Ho  Ho1  1  0.657773  0.328063  0.564847  1
  Ho  Ho2  1  0.657773  0.328063  0.935153  1
  Ho  Ho3  1  0.327247  0.662338  0.067144  1
  Co  Co4  1  0.836677  0.163527  0.250000  1
  Co  Co5  1  0.177300  0.832710  0.750000  1
  Tc  Tc6  1  0.680030  0.839468  0.750000  1
  Ru  Ru7  1  0.980286  0.989018  0.500007  1
  Ru  Ru8  1  0.980286  0.989018  0.999993  1
  Ru  Ru9  1  0.833960  0.668228  0.250000  1
  Ru  Ru10  1  0.353450  0.178503  0.250000  1
  Ru  Ru11  1  0.187970  0.358725  0.750000  1
