# generated using pymatgen
data_Tb2TmLuIn4
_symmetry_space_group_name_H-M   'P 1'
_cell_length_a   6.51718713
_cell_length_b   6.51718683
_cell_length_c   9.98399800
_cell_angle_alpha   90.00000000
_cell_angle_beta   90.00000000
_cell_angle_gamma   98.63982807
_symmetry_Int_Tables_number   1
_chemical_formula_structural   Tb2TmLuIn4
_chemical_formula_sum   'Tb4 Tm2 Lu2 In8'
_cell_volume   419.24547445
_cell_formula_units_Z   2
loop_
 _symmetry_equiv_pos_site_id
 _symmetry_equiv_pos_as_xyz
  1  'x, y, z'
loop_
 _atom_site_type_symbol
 _atom_site_label
 _atom_site_symmetry_multiplicity
 _atom_site_fract_x
 _atom_site_fract_y
 _atom_site_fract_z
 _atom_site_occupancy
  Tb  Tb0  1  0.245705  0.754295  0.500000  1
  Tb  Tb1  1  0.245705  0.754295  0.000000  1
  Tb  Tb2  1  0.754295  0.245705  0.500000  1
  Tb  Tb3  1  0.754295  0.245705  0.000000  1
  Tm  Tm4  1  0.534907  0.534907  0.250000  1
  Tm  Tm5  1  0.465093  0.465093  0.750000  1
  Lu  Lu6  1  0.977632  0.977632  0.250000  1
  Lu  Lu7  1  0.022368  0.022368  0.750000  1
  In  In8  1  0.252269  0.252269  0.021838  1
  In  In9  1  0.747731  0.747731  0.978162  1
  In  In10  1  0.252269  0.252269  0.478162  1
  In  In11  1  0.747731  0.747731  0.521838  1
  In  In12  1  0.483457  0.023708  0.250000  1
  In  In13  1  0.976292  0.516543  0.750000  1
  In  In14  1  0.516543  0.976292  0.750000  1
  In  In15  1  0.023708  0.483457  0.250000  1
