# generated using pymatgen
data_K(S8Br)3
_symmetry_space_group_name_H-M   'P 1'
_cell_length_a   14.53236270
_cell_length_b   14.53236260
_cell_length_c   14.53236294
_cell_angle_alpha   118.38927304
_cell_angle_beta   118.38927493
_cell_angle_gamma   118.38926835
_symmetry_Int_Tables_number   1
_chemical_formula_structural   K(S8Br)3
_chemical_formula_sum   'K1 S24 Br3'
_cell_volume   1003.21196174
_cell_formula_units_Z   1
loop_
 _symmetry_equiv_pos_site_id
 _symmetry_equiv_pos_as_xyz
  1  'x, y, z'
loop_
 _atom_site_type_symbol
 _atom_site_label
 _atom_site_symmetry_multiplicity
 _atom_site_fract_x
 _atom_site_fract_y
 _atom_site_fract_z
 _atom_site_occupancy
  K  K0  1  0.446742  0.446742  0.446742  1
  S  S1  1  0.033271  0.638659  0.638659  1
  S  S2  1  0.638659  0.638659  0.033271  1
  S  S3  1  0.638659  0.033271  0.638659  1
  S  S4  1  0.233118  0.850883  0.716707  1
  S  S5  1  0.850883  0.716707  0.233118  1
  S  S6  1  0.716707  0.233118  0.850883  1
  S  S7  1  0.850883  0.233118  0.716707  1
  S  S8  1  0.233118  0.716707  0.850883  1
  S  S9  1  0.716707  0.850883  0.233118  1
  S  S10  1  0.108282  0.641961  0.453515  1
  S  S11  1  0.641961  0.453515  0.108282  1
  S  S12  1  0.453515  0.108282  0.641961  1
  S  S13  1  0.641961  0.108282  0.453515  1
  S  S14  1  0.108282  0.453515  0.641961  1
  S  S15  1  0.453515  0.641961  0.108282  1
  S  S16  1  0.344385  0.729741  0.595661  1
  S  S17  1  0.729741  0.595661  0.344385  1
  S  S18  1  0.595661  0.344385  0.729741  1
  S  S19  1  0.729741  0.344385  0.595661  1
  S  S20  1  0.344385  0.595661  0.729741  1
  S  S21  1  0.595661  0.729741  0.344385  1
  S  S22  1  0.188899  0.463217  0.463217  1
  S  S23  1  0.463217  0.463217  0.188899  1
  S  S24  1  0.463217  0.188899  0.463217  1
  Br  Br25  1  0.028658  0.898635  0.898635  1
  Br  Br26  1  0.898635  0.898635  0.028658  1
  Br  Br27  1  0.898635  0.028658  0.898635  1
