# generated using pymatgen
data_NdHo4In4PdAu
_symmetry_space_group_name_H-M   'P 1'
_cell_length_a   3.66704600
_cell_length_b   8.18876519
_cell_length_c   18.43382505
_cell_angle_alpha   89.96060461
_cell_angle_beta   90.00000000
_cell_angle_gamma   90.00000000
_symmetry_Int_Tables_number   1
_chemical_formula_structural   NdHo4In4PdAu
_chemical_formula_sum   'Nd2 Ho8 In8 Pd2 Au2'
_cell_volume   553.54143430
_cell_formula_units_Z   2
loop_
 _symmetry_equiv_pos_site_id
 _symmetry_equiv_pos_as_xyz
  1  'x, y, z'
loop_
 _atom_site_type_symbol
 _atom_site_label
 _atom_site_symmetry_multiplicity
 _atom_site_fract_x
 _atom_site_fract_y
 _atom_site_fract_z
 _atom_site_occupancy
  Nd  Nd0  1  0.000000  0.500000  0.500000  1
  Nd  Nd1  1  0.000000  0.000000  0.000000  1
  Ho  Ho2  1  0.000000  0.746376  0.282518  1
  Ho  Ho3  1  0.000000  0.253624  0.717482  1
  Ho  Ho4  1  0.000000  0.767520  0.779356  1
  Ho  Ho5  1  0.000000  0.232480  0.220644  1
  Ho  Ho6  1  0.000000  0.618946  0.080601  1
  Ho  Ho7  1  0.000000  0.381054  0.919399  1
  Ho  Ho8  1  0.000000  0.885528  0.583208  1
  Ho  Ho9  1  0.000000  0.114472  0.416792  1
  In  In10  1  0.500000  0.707336  0.931118  1
  In  In11  1  0.500000  0.292664  0.068882  1
  In  In12  1  0.500000  0.794211  0.431264  1
  In  In13  1  0.500000  0.205789  0.568736  1
  In  In14  1  0.500000  0.584300  0.649542  1
  In  In15  1  0.500000  0.415700  0.350458  1
  In  In16  1  0.500000  0.920072  0.150736  1
  In  In17  1  0.500000  0.079928  0.849264  1
  Pd  Pd18  1  0.500000  0.974735  0.696118  1
  Pd  Pd19  1  0.500000  0.025265  0.303882  1
  Au  Au20  1  0.500000  0.526588  0.197006  1
  Au  Au21  1  0.500000  0.473412  0.802994  1
