# generated using pymatgen
data_Hf9ReMoW2Se
_symmetry_space_group_name_H-M   'P 1'
_cell_length_a   8.70318700
_cell_length_b   8.70318658
_cell_length_c   8.63997700
_cell_angle_alpha   90.00000000
_cell_angle_beta   90.00000000
_cell_angle_gamma   119.84653807
_symmetry_Int_Tables_number   1
_chemical_formula_structural   Hf9ReMoW2Se
_chemical_formula_sum   'Hf18 Re2 Mo2 W4 Se2'
_cell_volume   567.63522543
_cell_formula_units_Z   2
loop_
 _symmetry_equiv_pos_site_id
 _symmetry_equiv_pos_as_xyz
  1  'x, y, z'
loop_
 _atom_site_type_symbol
 _atom_site_label
 _atom_site_symmetry_multiplicity
 _atom_site_fract_x
 _atom_site_fract_y
 _atom_site_fract_z
 _atom_site_occupancy
  Hf  Hf0  1  0.542914  0.085779  0.250000  1
  Hf  Hf1  1  0.457086  0.914221  0.750000  1
  Hf  Hf2  1  0.914221  0.457086  0.250000  1
  Hf  Hf3  1  0.085779  0.542914  0.750000  1
  Hf  Hf4  1  0.542882  0.457118  0.250000  1
  Hf  Hf5  1  0.457118  0.542882  0.750000  1
  Hf  Hf6  1  0.193219  0.385977  0.047451  1
  Hf  Hf7  1  0.806781  0.614023  0.952549  1
  Hf  Hf8  1  0.614023  0.806781  0.047451  1
  Hf  Hf9  1  0.806781  0.614023  0.547451  1
  Hf  Hf10  1  0.385977  0.193219  0.952549  1
  Hf  Hf11  1  0.193219  0.385977  0.452549  1
  Hf  Hf12  1  0.192482  0.807518  0.048082  1
  Hf  Hf13  1  0.385977  0.193219  0.547451  1
  Hf  Hf14  1  0.807518  0.192482  0.951918  1
  Hf  Hf15  1  0.614023  0.806781  0.452549  1
  Hf  Hf16  1  0.807518  0.192482  0.548082  1
  Hf  Hf17  1  0.192482  0.807518  0.451918  1
  Re  Re18  1  0.000000  0.000000  0.000000  1
  Re  Re19  1  0.000000  0.000000  0.500000  1
  Mo  Mo20  1  0.889818  0.110182  0.250000  1
  Mo  Mo21  1  0.110182  0.889818  0.750000  1
  W  W22  1  0.890553  0.781100  0.250000  1
  W  W23  1  0.109447  0.218900  0.750000  1
  W  W24  1  0.218900  0.109447  0.250000  1
  W  W25  1  0.781100  0.890553  0.750000  1
  Se  Se26  1  0.333396  0.666604  0.250000  1
  Se  Se27  1  0.666604  0.333396  0.750000  1
