# generated using pymatgen
data_Cd2P6Pd20Pb
_symmetry_space_group_name_H-M   'P 1'
_cell_length_a   8.64220099
_cell_length_b   8.64218930
_cell_length_c   8.64220100
_cell_angle_alpha   59.99997218
_cell_angle_beta   59.99992573
_cell_angle_gamma   60.00018410
_symmetry_Int_Tables_number   1
_chemical_formula_structural   Cd2P6Pd20Pb
_chemical_formula_sum   'Cd2 P6 Pd20 Pb1'
_cell_volume   456.41275349
_cell_formula_units_Z   1
loop_
 _symmetry_equiv_pos_site_id
 _symmetry_equiv_pos_as_xyz
  1  'x, y, z'
loop_
 _atom_site_type_symbol
 _atom_site_label
 _atom_site_symmetry_multiplicity
 _atom_site_fract_x
 _atom_site_fract_y
 _atom_site_fract_z
 _atom_site_occupancy
  Cd  Cd0  1  0.749999  0.750001  0.750000  1
  Cd  Cd1  1  0.000000  0.000000  0.000000  1
  P  P2  1  0.734255  0.265744  0.265745  1
  P  P3  1  0.265744  0.734256  0.734255  1
  P  P4  1  0.265745  0.734256  0.265744  1
  P  P5  1  0.734255  0.265744  0.734256  1
  P  P6  1  0.265746  0.265743  0.734256  1
  P  P7  1  0.734255  0.734256  0.265744  1
  Pd  Pd8  1  0.384611  0.384614  0.384613  1
  Pd  Pd9  1  0.616351  0.616351  0.616349  1
  Pd  Pd10  1  0.384613  0.384615  0.846161  1
  Pd  Pd11  1  0.384614  0.846160  0.384615  1
  Pd  Pd12  1  0.616352  0.616349  0.150949  1
  Pd  Pd13  1  0.616349  0.150949  0.616350  1
  Pd  Pd14  1  0.846164  0.384614  0.384613  1
  Pd  Pd15  1  0.150946  0.616350  0.616351  1
  Pd  Pd16  1  0.344389  0.998199  0.998197  1
  Pd  Pd17  1  0.659214  0.998197  0.998198  1
  Pd  Pd18  1  0.998198  0.344391  0.659214  1
  Pd  Pd19  1  0.998197  0.659212  0.344391  1
  Pd  Pd20  1  0.998198  0.344391  0.998197  1
  Pd  Pd21  1  0.659214  0.998197  0.344390  1
  Pd  Pd22  1  0.998197  0.659214  0.998197  1
  Pd  Pd23  1  0.344389  0.998198  0.659215  1
  Pd  Pd24  1  0.998197  0.998197  0.344390  1
  Pd  Pd25  1  0.998198  0.998198  0.659214  1
  Pd  Pd26  1  0.659215  0.344390  0.998196  1
  Pd  Pd27  1  0.344389  0.659215  0.998197  1
  Pb  Pb28  1  0.250001  0.249999  0.250000  1
