# generated using pymatgen
data_Tm3In3Ag2Hg
_symmetry_space_group_name_H-M   'P 1'
_cell_length_a   7.74080800
_cell_length_b   7.74080854
_cell_length_c   4.07223200
_cell_angle_alpha   90.00000000
_cell_angle_beta   90.00000000
_cell_angle_gamma   119.99999768
_symmetry_Int_Tables_number   1
_chemical_formula_structural   Tm3In3Ag2Hg
_chemical_formula_sum   'Tm3 In3 Ag2 Hg1'
_cell_volume   211.31765157
_cell_formula_units_Z   1
loop_
 _symmetry_equiv_pos_site_id
 _symmetry_equiv_pos_as_xyz
  1  'x, y, z'
loop_
 _atom_site_type_symbol
 _atom_site_label
 _atom_site_symmetry_multiplicity
 _atom_site_fract_x
 _atom_site_fract_y
 _atom_site_fract_z
 _atom_site_occupancy
  Tm  Tm0  1  0.407458  0.404056  0.500000  1
  Tm  Tm1  1  0.595944  0.003401  0.500000  1
  Tm  Tm2  1  0.996599  0.592542  0.500000  1
  In  In3  1  0.745833  0.738305  0.000000  1
  In  In4  1  0.261695  0.007528  0.000000  1
  In  In5  1  0.992472  0.254167  0.000000  1
  Ag  Ag6  1  0.666667  0.333333  0.000000  1
  Ag  Ag7  1  0.000000  0.000000  0.500000  1
  Hg  Hg8  1  0.333333  0.666667  0.000000  1
