# generated using pymatgen
data_Tb19ErCo3Bi8Os
_symmetry_space_group_name_H-M   'P 1'
_cell_length_a   8.03487969
_cell_length_b   8.92133654
_cell_length_c   12.46339239
_cell_angle_alpha   89.97166940
_cell_angle_beta   90.29727896
_cell_angle_gamma   89.93903810
_symmetry_Int_Tables_number   1
_chemical_formula_structural   Tb19ErCo3Bi8Os
_chemical_formula_sum   'Tb19 Er1 Co3 Bi8 Os1'
_cell_volume   893.38657761
_cell_formula_units_Z   1
loop_
 _symmetry_equiv_pos_site_id
 _symmetry_equiv_pos_as_xyz
  1  'x, y, z'
loop_
 _atom_site_type_symbol
 _atom_site_label
 _atom_site_symmetry_multiplicity
 _atom_site_fract_x
 _atom_site_fract_y
 _atom_site_fract_z
 _atom_site_occupancy
  Tb  Tb0  1  0.847184  0.750135  0.800276  1
  Tb  Tb1  1  0.151772  0.249938  0.197991  1
  Tb  Tb2  1  0.349076  0.249752  0.698462  1
  Tb  Tb3  1  0.653716  0.750097  0.294920  1
  Tb  Tb4  1  0.378894  0.750208  0.695003  1
  Tb  Tb5  1  0.618682  0.249658  0.309860  1
  Tb  Tb6  1  0.881004  0.249891  0.810599  1
  Tb  Tb7  1  0.118337  0.750050  0.187709  1
  Tb  Tb8  1  0.945081  0.750250  0.504219  1
  Tb  Tb9  1  0.049369  0.249887  0.496449  1
  Tb  Tb10  1  0.453221  0.250003  0.997331  1
  Tb  Tb11  1  0.546091  0.749975  0.002391  1
  Tb  Tb12  1  0.324197  0.964578  0.437070  1
  Tb  Tb13  1  0.176394  0.966554  0.936944  1
  Tb  Tb14  1  0.323675  0.535035  0.436856  1
  Tb  Tb15  1  0.822770  0.035271  0.062800  1
  Tb  Tb16  1  0.677511  0.458797  0.564777  1
  Tb  Tb17  1  0.822745  0.464782  0.062755  1
  Tb  Tb18  1  0.176408  0.533426  0.937000  1
  Er  Er19  1  0.676198  0.041327  0.564551  1
  Co  Co20  1  0.435178  0.249780  0.490693  1
  Co  Co21  1  0.059184  0.250014  0.991918  1
  Co  Co22  1  0.939053  0.749970  0.007323  1
  Bi  Bi23  1  0.572553  0.491394  0.827356  1
  Bi  Bi24  1  0.426995  0.507437  0.173287  1
  Bi  Bi25  1  0.072260  0.507351  0.674622  1
  Bi  Bi26  1  0.426912  0.992578  0.173255  1
  Bi  Bi27  1  0.929884  0.492200  0.325576  1
  Bi  Bi28  1  0.572758  0.008632  0.827239  1
  Bi  Bi29  1  0.930055  0.007881  0.325548  1
  Bi  Bi30  1  0.071822  0.992628  0.674557  1
  Os  Os31  1  0.571023  0.750518  0.510661  1
