# generated using pymatgen
data_SmHo(TaS2)8
_symmetry_space_group_name_H-M   'P 1'
_cell_length_a   6.69791000
_cell_length_b   6.69791032
_cell_length_c   13.87070200
_cell_angle_alpha   90.00000000
_cell_angle_beta   90.00000000
_cell_angle_gamma   120.00000832
_symmetry_Int_Tables_number   1
_chemical_formula_structural   SmHo(TaS2)8
_chemical_formula_sum   'Sm1 Ho1 Ta8 S16'
_cell_volume   538.89936571
_cell_formula_units_Z   1
loop_
 _symmetry_equiv_pos_site_id
 _symmetry_equiv_pos_as_xyz
  1  'x, y, z'
loop_
 _atom_site_type_symbol
 _atom_site_label
 _atom_site_symmetry_multiplicity
 _atom_site_fract_x
 _atom_site_fract_y
 _atom_site_fract_z
 _atom_site_occupancy
  Sm  Sm0  1  0.000000  0.000000  0.000000  1
  Ho  Ho1  1  0.000000  0.000000  0.500000  1
  Ta  Ta2  1  0.504900  0.495100  0.747128  1
  Ta  Ta3  1  0.009798  0.504900  0.252872  1
  Ta  Ta4  1  0.495100  0.990202  0.252872  1
  Ta  Ta5  1  0.504900  0.009798  0.747128  1
  Ta  Ta6  1  0.990202  0.495100  0.747128  1
  Ta  Ta7  1  0.495100  0.504900  0.252872  1
  Ta  Ta8  1  0.000000  0.000000  0.747267  1
  Ta  Ta9  1  0.000000  0.000000  0.252733  1
  S  S10  1  0.831157  0.168843  0.365440  1
  S  S11  1  0.831157  0.662313  0.365440  1
  S  S12  1  0.337687  0.168843  0.365440  1
  S  S13  1  0.661270  0.830635  0.859292  1
  S  S14  1  0.168843  0.337687  0.634560  1
  S  S15  1  0.169365  0.830635  0.859292  1
  S  S16  1  0.169365  0.338730  0.859292  1
  S  S17  1  0.830635  0.169365  0.140708  1
  S  S18  1  0.338730  0.169365  0.140708  1
  S  S19  1  0.662313  0.831157  0.634560  1
  S  S20  1  0.333333  0.666667  0.136993  1
  S  S21  1  0.666667  0.333333  0.632074  1
  S  S22  1  0.666667  0.333333  0.863007  1
  S  S23  1  0.333333  0.666667  0.367926  1
  S  S24  1  0.830635  0.661270  0.140708  1
  S  S25  1  0.168843  0.831157  0.634560  1
