# generated using pymatgen
data_PrNd15Cd2(InIr2)2
_symmetry_space_group_name_H-M   'P 1'
_cell_length_a   9.98937439
_cell_length_b   9.98937460
_cell_length_c   9.99004500
_cell_angle_alpha   59.99777664
_cell_angle_beta   59.99777596
_cell_angle_gamma   59.96778291
_symmetry_Int_Tables_number   1
_chemical_formula_structural   PrNd15Cd2(InIr2)2
_chemical_formula_sum   'Pr1 Nd15 Cd2 In2 Ir4'
_cell_volume   704.70701041
_cell_formula_units_Z   1
loop_
 _symmetry_equiv_pos_site_id
 _symmetry_equiv_pos_as_xyz
  1  'x, y, z'
loop_
 _atom_site_type_symbol
 _atom_site_label
 _atom_site_symmetry_multiplicity
 _atom_site_fract_x
 _atom_site_fract_y
 _atom_site_fract_z
 _atom_site_occupancy
  Pr  Pr0  1  0.939440  0.939440  0.560560  1
  Nd  Nd1  1  0.348300  0.348300  0.346758  1
  Nd  Nd2  1  0.348300  0.348300  0.956640  1
  Nd  Nd3  1  0.349675  0.954803  0.347760  1
  Nd  Nd4  1  0.954803  0.349675  0.347760  1
  Nd  Nd5  1  0.808786  0.190356  0.191535  1
  Nd  Nd6  1  0.190356  0.808786  0.809323  1
  Nd  Nd7  1  0.190356  0.808786  0.191535  1
  Nd  Nd8  1  0.808786  0.190356  0.809323  1
  Nd  Nd9  1  0.188768  0.188768  0.811232  1
  Nd  Nd10  1  0.807383  0.807383  0.192617  1
  Nd  Nd11  1  0.941116  0.560727  0.560708  1
  Nd  Nd12  1  0.560727  0.941116  0.937448  1
  Nd  Nd13  1  0.560727  0.941116  0.560708  1
  Nd  Nd14  1  0.941116  0.560727  0.937448  1
  Nd  Nd15  1  0.560996  0.560996  0.939004  1
  Cd  Cd16  1  0.578664  0.260115  0.580609  1
  Cd  Cd17  1  0.260115  0.578664  0.580609  1
  In  In18  1  0.580153  0.580153  0.581557  1
  In  In19  1  0.580153  0.580153  0.258136  1
  Ir  Ir20  1  0.141808  0.141808  0.140724  1
  Ir  Ir21  1  0.141808  0.141808  0.575658  1
  Ir  Ir22  1  0.141954  0.575706  0.141170  1
  Ir  Ir23  1  0.575706  0.141954  0.141170  1
