# generated using pymatgen
data_LaHo4Ge5P7Ir19
_symmetry_space_group_name_H-M   'P 1'
_cell_length_a   12.90876287
_cell_length_b   12.81180790
_cell_length_c   4.01438300
_cell_angle_alpha   90.00000000
_cell_angle_beta   90.00000000
_cell_angle_gamma   119.38051540
_symmetry_Int_Tables_number   1
_chemical_formula_structural   LaHo4Ge5P7Ir19
_chemical_formula_sum   'La1 Ho4 Ge5 P7 Ir19'
_cell_volume   578.52453785
_cell_formula_units_Z   1
loop_
 _symmetry_equiv_pos_site_id
 _symmetry_equiv_pos_as_xyz
  1  'x, y, z'
loop_
 _atom_site_type_symbol
 _atom_site_label
 _atom_site_symmetry_multiplicity
 _atom_site_fract_x
 _atom_site_fract_y
 _atom_site_fract_z
 _atom_site_occupancy
  La  La0  1  0.661838  0.329392  0.000000  1
  Ho  Ho1  1  0.999892  0.815377  0.500000  1
  Ho  Ho2  1  0.181620  0.185498  0.500000  1
  Ho  Ho3  1  0.819181  0.003057  0.500000  1
  Ho  Ho4  1  0.340148  0.670863  0.000000  1
  Ge  Ge5  1  0.521345  0.678134  0.500000  1
  Ge  Ge6  1  0.317679  0.836645  0.500000  1
  Ge  Ge7  1  0.169757  0.489289  0.500000  1
  Ge  Ge8  1  0.476447  0.154700  0.500000  1
  Ge  Ge9  1  0.681385  0.519598  0.500000  1
  P  P10  1  0.000907  0.182208  0.000000  1
  P  P11  1  0.826614  0.823723  0.000000  1
  P  P12  1  0.172982  0.000128  0.000000  1
  P  P13  1  0.827751  0.308705  0.500000  1
  P  P14  1  0.003149  0.640826  0.000000  1
  P  P15  1  0.360532  0.360599  0.000000  1
  P  P16  1  0.640414  0.999896  0.000000  1
  Ir  Ir17  1  0.996309  0.283469  0.500000  1
  Ir  Ir18  1  0.735823  0.733397  0.500000  1
  Ir  Ir19  1  0.264316  0.999640  0.500000  1
  Ir  Ir20  1  0.638480  0.815921  0.000000  1
  Ir  Ir21  1  0.186487  0.821830  0.000000  1
  Ir  Ir22  1  0.178561  0.366601  0.000000  1
  Ir  Ir23  1  0.360495  0.177799  0.000000  1
  Ir  Ir24  1  0.818565  0.632504  0.000000  1
  Ir  Ir25  1  0.823735  0.199908  0.000000  1
  Ir  Ir26  1  0.517659  0.869805  0.500000  1
  Ir  Ir27  1  0.120590  0.646251  0.500000  1
  Ir  Ir28  1  0.353753  0.477014  0.500000  1
  Ir  Ir29  1  0.477558  0.352064  0.500000  1
  Ir  Ir30  1  0.871794  0.504735  0.500000  1
  Ir  Ir31  1  0.649802  0.120535  0.500000  1
  Ir  Ir32  1  0.998310  0.003666  0.000000  1
  Ir  Ir33  1  0.004633  0.459800  0.000000  1
  Ir  Ir34  1  0.540823  0.538054  0.000000  1
  Ir  Ir35  1  0.460663  0.998371  0.000000  1
