# generated using pymatgen
data_LiTm2PRh5
_symmetry_space_group_name_H-M   'P 1'
_cell_length_a   5.98659495
_cell_length_b   5.90015428
_cell_length_c   5.90015470
_cell_angle_alpha   60.97167109
_cell_angle_beta   59.51415813
_cell_angle_gamma   59.51416363
_symmetry_Int_Tables_number   1
_chemical_formula_structural   LiTm2PRh5
_chemical_formula_sum   'Li1 Tm2 P1 Rh5'
_cell_volume   147.29986850
_cell_formula_units_Z   1
loop_
 _symmetry_equiv_pos_site_id
 _symmetry_equiv_pos_as_xyz
  1  'x, y, z'
loop_
 _atom_site_type_symbol
 _atom_site_label
 _atom_site_symmetry_multiplicity
 _atom_site_fract_x
 _atom_site_fract_y
 _atom_site_fract_z
 _atom_site_occupancy
  Li  Li0  1  0.785044  0.214955  0.214955  1
  Tm  Tm1  1  0.250662  0.249338  0.249338  1
  Tm  Tm2  1  0.750662  0.749338  0.749338  1
  P  P3  1  0.492712  0.507288  0.507288  1
  Rh  Rh4  1  0.236282  0.763717  0.237932  1
  Rh  Rh5  1  0.762067  0.763717  0.237932  1
  Rh  Rh6  1  0.236282  0.237932  0.763717  1
  Rh  Rh7  1  0.762067  0.237932  0.763717  1
  Rh  Rh8  1  0.224219  0.775780  0.775780  1
