# generated using pymatgen
data_Sc10B2Cl15
_symmetry_space_group_name_H-M   'P 1'
_cell_length_a   8.19987980
_cell_length_b   8.93496571
_cell_length_c   9.68463297
_cell_angle_alpha   90.97842224
_cell_angle_beta   114.69359874
_cell_angle_gamma   110.97674433
_symmetry_Int_Tables_number   1
_chemical_formula_structural   Sc10B2Cl15
_chemical_formula_sum   'Sc10 B2 Cl15'
_cell_volume   590.21525887
_cell_formula_units_Z   1
loop_
 _symmetry_equiv_pos_site_id
 _symmetry_equiv_pos_as_xyz
  1  'x, y, z'
loop_
 _atom_site_type_symbol
 _atom_site_label
 _atom_site_symmetry_multiplicity
 _atom_site_fract_x
 _atom_site_fract_y
 _atom_site_fract_z
 _atom_site_occupancy
  Sc  Sc0  1  0.273056  0.923502  0.949617  1
  Sc  Sc1  1  0.726844  0.076348  0.050234  1
  Sc  Sc2  1  0.474426  0.296529  0.902891  1
  Sc  Sc3  1  0.525468  0.703421  0.096920  1
  Sc  Sc4  1  0.414102  0.956686  0.672933  1
  Sc  Sc5  1  0.585933  0.043172  0.327186  1
  Sc  Sc6  1  0.198082  0.590221  0.722588  1
  Sc  Sc7  1  0.802040  0.409865  0.277479  1
  Sc  Sc8  1  0.323840  0.253821  0.178988  1
  Sc  Sc9  1  0.676123  0.746276  0.821149  1
  B  B10  1  0.531005  0.178241  0.120666  1
  B  B11  1  0.468952  0.821758  0.879327  1
  Cl  Cl12  1  0.947468  0.659860  0.773779  1
  Cl  Cl13  1  0.052508  0.340130  0.226177  1
  Cl  Cl14  1  0.000080  0.000079  0.000052  1
  Cl  Cl15  1  0.409966  0.467189  0.663390  1
  Cl  Cl16  1  0.590190  0.532942  0.336651  1
  Cl  Cl17  1  0.174422  0.058624  0.704859  1
  Cl  Cl18  1  0.825523  0.941381  0.295094  1
  Cl  Cl19  1  0.238466  0.412412  0.944161  1
  Cl  Cl20  1  0.761555  0.587613  0.055878  1
  Cl  Cl21  1  0.362345  0.115944  0.412611  1
  Cl  Cl22  1  0.637653  0.883961  0.587415  1
  Cl  Cl23  1  0.116270  0.698583  0.474043  1
  Cl  Cl24  1  0.883722  0.301417  0.525940  1
  Cl  Cl25  1  0.702928  0.233619  0.821119  1
  Cl  Cl26  1  0.297034  0.766407  0.178851  1
