# generated using pymatgen
data_Dy20Ir9OsRh2
_symmetry_space_group_name_H-M   'P 1'
_cell_length_a   10.84680100
_cell_length_b   10.84680100
_cell_length_c   6.40346700
_cell_angle_alpha   90.00000000
_cell_angle_beta   90.00000000
_cell_angle_gamma   90.00000000
_symmetry_Int_Tables_number   1
_chemical_formula_structural   Dy20Ir9OsRh2
_chemical_formula_sum   'Dy20 Ir9 Os1 Rh2'
_cell_volume   753.38769164
_cell_formula_units_Z   1
loop_
 _symmetry_equiv_pos_site_id
 _symmetry_equiv_pos_as_xyz
  1  'x, y, z'
loop_
 _atom_site_type_symbol
 _atom_site_label
 _atom_site_symmetry_multiplicity
 _atom_site_fract_x
 _atom_site_fract_y
 _atom_site_fract_z
 _atom_site_occupancy
  Dy  Dy0  1  0.292241  0.087580  0.376267  1
  Dy  Dy1  1  0.292868  0.912488  0.881733  1
  Dy  Dy2  1  0.707132  0.087512  0.881733  1
  Dy  Dy3  1  0.707759  0.912420  0.376267  1
  Dy  Dy4  1  0.587512  0.792868  0.881733  1
  Dy  Dy5  1  0.587580  0.207759  0.376267  1
  Dy  Dy6  1  0.412420  0.792241  0.376267  1
  Dy  Dy7  1  0.412488  0.207132  0.881733  1
  Dy  Dy8  1  0.209040  0.411360  0.620145  1
  Dy  Dy9  1  0.209141  0.588415  0.121608  1
  Dy  Dy10  1  0.790859  0.411585  0.121608  1
  Dy  Dy11  1  0.790960  0.588640  0.620145  1
  Dy  Dy12  1  0.911585  0.709141  0.121608  1
  Dy  Dy13  1  0.911360  0.290960  0.620145  1
  Dy  Dy14  1  0.088640  0.709040  0.620145  1
  Dy  Dy15  1  0.088415  0.290859  0.121608  1
  Dy  Dy16  1  0.000000  0.000000  0.499348  1
  Dy  Dy17  1  0.000000  0.000000  0.999147  1
  Dy  Dy18  1  0.500000  0.500000  0.999147  1
  Dy  Dy19  1  0.500000  0.500000  0.499348  1
  Ir  Ir20  1  0.847438  0.154027  0.250223  1
  Ir  Ir21  1  0.847438  0.846241  0.749826  1
  Ir  Ir22  1  0.152562  0.153759  0.749826  1
  Ir  Ir23  1  0.152562  0.845973  0.250223  1
  Ir  Ir24  1  0.653759  0.347438  0.749826  1
  Ir  Ir25  1  0.654027  0.652562  0.250223  1
  Ir  Ir26  1  0.345973  0.347438  0.250223  1
  Ir  Ir27  1  0.346241  0.652562  0.749826  1
  Ir  Ir28  1  0.000000  0.500000  0.377114  1
  Os  Os29  1  0.500000  0.000000  0.125927  1
  Rh  Rh30  1  0.500000  0.000000  0.623791  1
  Rh  Rh31  1  0.000000  0.500000  0.876963  1
