# generated using pymatgen
data_Ba6Sr2ErUSe12
_symmetry_space_group_name_H-M   'P 1'
_cell_length_a   8.97632229
_cell_length_b   8.97632174
_cell_length_c   8.97632187
_cell_angle_alpha   90.95670219
_cell_angle_beta   90.95670364
_cell_angle_gamma   90.95670615
_symmetry_Int_Tables_number   1
_chemical_formula_structural   Ba6Sr2ErUSe12
_chemical_formula_sum   'Ba6 Sr2 Er1 U1 Se12'
_cell_volume   722.95547887
_cell_formula_units_Z   1
loop_
 _symmetry_equiv_pos_site_id
 _symmetry_equiv_pos_as_xyz
  1  'x, y, z'
loop_
 _atom_site_type_symbol
 _atom_site_label
 _atom_site_symmetry_multiplicity
 _atom_site_fract_x
 _atom_site_fract_y
 _atom_site_fract_z
 _atom_site_occupancy
  Ba  Ba0  1  0.871329  0.621636  0.258501  1
  Ba  Ba1  1  0.258501  0.871329  0.621636  1
  Ba  Ba2  1  0.621636  0.258501  0.871329  1
  Ba  Ba3  1  0.741499  0.128671  0.378364  1
  Ba  Ba4  1  0.378364  0.741499  0.128671  1
  Ba  Ba5  1  0.128671  0.378364  0.741499  1
  Sr  Sr6  1  0.255428  0.255428  0.255428  1
  Sr  Sr7  1  0.744572  0.744572  0.744572  1
  Er  Er8  1  0.500000  0.500000  0.500000  1
  U  U9  1  0.000000  0.000000  0.000000  1
  Se  Se10  1  0.199420  0.556602  0.414071  1
  Se  Se11  1  0.414071  0.199420  0.556602  1
  Se  Se12  1  0.556602  0.414071  0.199420  1
  Se  Se13  1  0.923248  0.050801  0.705242  1
  Se  Se14  1  0.705242  0.923248  0.050801  1
  Se  Se15  1  0.050801  0.705242  0.923248  1
  Se  Se16  1  0.800580  0.443398  0.585929  1
  Se  Se17  1  0.585929  0.800580  0.443398  1
  Se  Se18  1  0.443398  0.585929  0.800580  1
  Se  Se19  1  0.076752  0.949199  0.294758  1
  Se  Se20  1  0.294758  0.076752  0.949199  1
  Se  Se21  1  0.949199  0.294758  0.076752  1
