# generated using pymatgen
data_LaPr4P12Pd2Ru17
_symmetry_space_group_name_H-M   'P 1'
_cell_length_a   12.68986803
_cell_length_b   12.78394339
_cell_length_c   4.03432100
_cell_angle_alpha   90.00000000
_cell_angle_beta   90.00000000
_cell_angle_gamma   120.24553570
_symmetry_Int_Tables_number   1
_chemical_formula_structural   LaPr4P12Pd2Ru17
_chemical_formula_sum   'La1 Pr4 P12 Pd2 Ru17'
_cell_volume   565.38356222
_cell_formula_units_Z   1
loop_
 _symmetry_equiv_pos_site_id
 _symmetry_equiv_pos_as_xyz
  1  'x, y, z'
loop_
 _atom_site_type_symbol
 _atom_site_label
 _atom_site_symmetry_multiplicity
 _atom_site_fract_x
 _atom_site_fract_y
 _atom_site_fract_z
 _atom_site_occupancy
  La  La0  1  0.000000  0.816638  0.500000  1
  Pr  Pr1  1  0.183072  0.181815  0.500000  1
  Pr  Pr2  1  0.816928  0.998743  0.500000  1
  Pr  Pr3  1  0.327597  0.663493  0.000000  1
  Pr  Pr4  1  0.672403  0.335896  0.000000  1
  P  P5  1  0.807237  0.810020  0.000000  1
  P  P6  1  0.192763  0.002784  0.000000  1
  P  P7  1  0.000000  0.184755  0.000000  1
  P  P8  1  0.168810  0.474532  0.500000  1
  P  P9  1  0.518774  0.700820  0.500000  1
  P  P10  1  0.297540  0.822638  0.500000  1
  P  P11  1  0.702460  0.525099  0.500000  1
  P  P12  1  0.831190  0.305723  0.500000  1
  P  P13  1  0.481226  0.182047  0.500000  1
  P  P14  1  0.368820  0.369115  0.000000  1
  P  P15  1  0.631180  0.000295  0.000000  1
  P  P16  1  0.000000  0.622219  0.000000  1
  Pd  Pd17  1  0.552090  0.554059  0.000000  1
  Pd  Pd18  1  0.447910  0.001969  0.000000  1
  Ru  Ru19  1  0.000000  0.443422  0.000000  1
  Ru  Ru20  1  0.708054  0.711024  0.500000  1
  Ru  Ru21  1  0.291946  0.002970  0.500000  1
  Ru  Ru22  1  0.000000  0.283273  0.500000  1
  Ru  Ru23  1  0.184309  0.377071  0.000000  1
  Ru  Ru24  1  0.616558  0.804690  0.000000  1
  Ru  Ru25  1  0.193678  0.815812  0.000000  1
  Ru  Ru26  1  0.806322  0.622134  0.000000  1
  Ru  Ru27  1  0.815691  0.192763  0.000000  1
  Ru  Ru28  1  0.383442  0.188132  0.000000  1
  Ru  Ru29  1  0.365879  0.492343  0.500000  1
  Ru  Ru30  1  0.507347  0.879262  0.500000  1
  Ru  Ru31  1  0.122437  0.631117  0.500000  1
  Ru  Ru32  1  0.877563  0.508678  0.500000  1
  Ru  Ru33  1  0.634121  0.126462  0.500000  1
  Ru  Ru34  1  0.492653  0.371914  0.500000  1
  Ru  Ru35  1  0.000000  0.996278  0.000000  1
