# generated using pymatgen
data_CaDy5Si24Os3Ru5
_symmetry_space_group_name_H-M   'P 1'
_cell_length_a   10.12793431
_cell_length_b   10.12793243
_cell_length_c   8.14462007
_cell_angle_alpha   89.99391858
_cell_angle_beta   89.99405574
_cell_angle_gamma   132.54504001
_symmetry_Int_Tables_number   1
_chemical_formula_structural   CaDy5Si24Os3Ru5
_chemical_formula_sum   'Ca1 Dy5 Si24 Os3 Ru5'
_cell_volume   615.50316521
_cell_formula_units_Z   1
loop_
 _symmetry_equiv_pos_site_id
 _symmetry_equiv_pos_as_xyz
  1  'x, y, z'
loop_
 _atom_site_type_symbol
 _atom_site_label
 _atom_site_symmetry_multiplicity
 _atom_site_fract_x
 _atom_site_fract_y
 _atom_site_fract_z
 _atom_site_occupancy
  Ca  Ca0  1  0.500034  0.499965  0.500001  1
  Dy  Dy1  1  0.000020  0.999979  0.000000  1
  Dy  Dy2  1  0.501733  0.001997  0.749866  1
  Dy  Dy3  1  0.998003  0.498267  0.250134  1
  Dy  Dy4  1  0.497997  0.997776  0.250004  1
  Dy  Dy5  1  0.002224  0.502003  0.749997  1
  Si  Si6  1  0.796566  0.203435  0.500000  1
  Si  Si7  1  0.296150  0.703851  0.000000  1
  Si  Si8  1  0.203532  0.796468  0.500000  1
  Si  Si9  1  0.704402  0.295598  0.000000  1
  Si  Si10  1  0.333638  0.333380  0.832123  1
  Si  Si11  1  0.666620  0.666362  0.167876  1
  Si  Si12  1  0.168414  0.168489  0.333962  1
  Si  Si13  1  0.831511  0.831586  0.666038  1
  Si  Si14  1  0.122564  0.889275  0.728211  1
  Si  Si15  1  0.110725  0.877436  0.271789  1
  Si  Si16  1  0.611503  0.378580  0.228819  1
  Si  Si17  1  0.621420  0.388498  0.771182  1
  Si  Si18  1  0.876929  0.110512  0.270765  1
  Si  Si19  1  0.889488  0.123071  0.729235  1
  Si  Si20  1  0.389298  0.622183  0.770769  1
  Si  Si21  1  0.377817  0.610702  0.229232  1
  Si  Si22  1  0.345849  0.113819  0.505781  1
  Si  Si23  1  0.886182  0.654151  0.494219  1
  Si  Si24  1  0.388607  0.155780  0.004779  1
  Si  Si25  1  0.844219  0.611393  0.995222  1
  Si  Si26  1  0.654301  0.886315  0.493912  1
  Si  Si27  1  0.113684  0.345698  0.506089  1
  Si  Si28  1  0.612723  0.845805  0.994406  1
  Si  Si29  1  0.154195  0.387277  0.005594  1
  Os  Os30  1  0.671153  0.328847  0.499999  1
  Os  Os31  1  0.170076  0.829925  0.000000  1
  Os  Os32  1  0.328920  0.671080  0.500001  1
  Ru  Ru33  1  0.829731  0.170267  0.999998  1
  Ru  Ru34  1  0.125177  0.125051  0.628252  1
  Ru  Ru35  1  0.874950  0.874824  0.371748  1
  Ru  Ru36  1  0.372511  0.372863  0.125662  1
  Ru  Ru37  1  0.627136  0.627490  0.874338  1
