# generated using pymatgen
data_BeNb4B4SbRu10
_symmetry_space_group_name_H-M   'P 1'
_cell_length_a   9.34273300
_cell_length_b   9.34273300
_cell_length_c   2.99734700
_cell_angle_alpha   90.00000000
_cell_angle_beta   90.00000000
_cell_angle_gamma   90.00000000
_symmetry_Int_Tables_number   1
_chemical_formula_structural   BeNb4B4SbRu10
_chemical_formula_sum   'Be1 Nb4 B4 Sb1 Ru10'
_cell_volume   261.62840822
_cell_formula_units_Z   1
loop_
 _symmetry_equiv_pos_site_id
 _symmetry_equiv_pos_as_xyz
  1  'x, y, z'
loop_
 _atom_site_type_symbol
 _atom_site_label
 _atom_site_symmetry_multiplicity
 _atom_site_fract_x
 _atom_site_fract_y
 _atom_site_fract_z
 _atom_site_occupancy
  Be  Be0  1  0.500000  0.500000  0.000000  1
  Nb  Nb1  1  0.817645  0.671909  0.000000  1
  Nb  Nb2  1  0.182355  0.328091  0.000000  1
  Nb  Nb3  1  0.328091  0.817645  0.000000  1
  Nb  Nb4  1  0.671909  0.182355  0.000000  1
  B  B5  1  0.614707  0.865821  0.000000  1
  B  B6  1  0.385293  0.134179  0.000000  1
  B  B7  1  0.134179  0.614707  0.000000  1
  B  B8  1  0.865821  0.385293  0.000000  1
  Sb  Sb9  1  0.000000  0.000000  0.000000  1
  Ru  Ru10  1  0.562429  0.707116  0.500000  1
  Ru  Ru11  1  0.437571  0.292884  0.500000  1
  Ru  Ru12  1  0.074485  0.778555  0.500000  1
  Ru  Ru13  1  0.925515  0.221445  0.500000  1
  Ru  Ru14  1  0.292884  0.562429  0.500000  1
  Ru  Ru15  1  0.707116  0.437571  0.500000  1
  Ru  Ru16  1  0.221445  0.074485  0.500000  1
  Ru  Ru17  1  0.778555  0.925515  0.500000  1
  Ru  Ru18  1  0.500000  0.000000  0.500000  1
  Ru  Ru19  1  0.000000  0.500000  0.500000  1
