# generated using pymatgen
data_YbPuF6
_symmetry_space_group_name_H-M   'P 1'
_cell_length_a   6.20558936
_cell_length_b   6.20557908
_cell_length_c   6.20557600
_cell_angle_alpha   60.00012091
_cell_angle_beta   59.99996251
_cell_angle_gamma   59.99991611
_symmetry_Int_Tables_number   1
_chemical_formula_structural   YbPuF6
_chemical_formula_sum   'Yb1 Pu1 F6'
_cell_volume   168.97888796
_cell_formula_units_Z   1
loop_
 _symmetry_equiv_pos_site_id
 _symmetry_equiv_pos_as_xyz
  1  'x, y, z'
loop_
 _atom_site_type_symbol
 _atom_site_label
 _atom_site_symmetry_multiplicity
 _atom_site_fract_x
 _atom_site_fract_y
 _atom_site_fract_z
 _atom_site_occupancy
  Yb  Yb0  1  0.499999  0.499999  0.499999  1
  Pu  Pu1  1  0.000000  0.000000  0.000000  1
  F  F2  1  0.753909  0.246090  0.246090  1
  F  F3  1  0.246090  0.753909  0.246090  1
  F  F4  1  0.753910  0.753910  0.246089  1
  F  F5  1  0.753910  0.246089  0.753910  1
  F  F6  1  0.246089  0.753910  0.753910  1
  F  F7  1  0.246090  0.246090  0.753909  1
