# generated using pymatgen
data_MnTe24
_symmetry_space_group_name_H-M   'P 1'
_cell_length_a   8.71204700
_cell_length_b   8.71204623
_cell_length_c   14.66318700
_cell_angle_alpha   90.00000000
_cell_angle_beta   90.00000000
_cell_angle_gamma   119.99999153
_symmetry_Int_Tables_number   1
_chemical_formula_structural   MnTe24
_chemical_formula_sum   'Mn1 Te24'
_cell_volume   963.82774323
_cell_formula_units_Z   1
loop_
 _symmetry_equiv_pos_site_id
 _symmetry_equiv_pos_as_xyz
  1  'x, y, z'
loop_
 _atom_site_type_symbol
 _atom_site_label
 _atom_site_symmetry_multiplicity
 _atom_site_fract_x
 _atom_site_fract_y
 _atom_site_fract_z
 _atom_site_occupancy
  Mn  Mn0  1  0.000000  0.000000  0.000000  1
  Te  Te1  1  0.503559  0.496441  0.780452  1
  Te  Te2  1  0.496441  0.503559  0.219548  1
  Te  Te3  1  0.503559  0.007118  0.780452  1
  Te  Te4  1  0.496441  0.992882  0.219548  1
  Te  Te5  1  0.992882  0.496441  0.780452  1
  Te  Te6  1  0.007118  0.503559  0.219548  1
  Te  Te7  1  0.000000  0.000000  0.766933  1
  Te  Te8  1  0.000000  0.000000  0.233067  1
  Te  Te9  1  0.837693  0.675388  0.097398  1
  Te  Te10  1  0.830017  0.660035  0.656662  1
  Te  Te11  1  0.837693  0.162307  0.097398  1
  Te  Te12  1  0.830017  0.169983  0.656662  1
  Te  Te13  1  0.333333  0.666667  0.095894  1
  Te  Te14  1  0.333333  0.666667  0.663122  1
  Te  Te15  1  0.324612  0.162307  0.097398  1
  Te  Te16  1  0.339965  0.169983  0.656662  1
  Te  Te17  1  0.675388  0.837693  0.902602  1
  Te  Te18  1  0.660035  0.830017  0.343338  1
  Te  Te19  1  0.666667  0.333333  0.904106  1
  Te  Te20  1  0.666667  0.333333  0.336878  1
  Te  Te21  1  0.162307  0.837693  0.902602  1
  Te  Te22  1  0.169983  0.830017  0.343338  1
  Te  Te23  1  0.162307  0.324612  0.902602  1
  Te  Te24  1  0.169983  0.339965  0.343338  1
