# generated using pymatgen
data_Pr3Nd14Sm3Sn16
_symmetry_space_group_name_H-M   'P 1'
_cell_length_a   8.30497505
_cell_length_b   8.45752936
_cell_length_c   16.00116905
_cell_angle_alpha   90.00405349
_cell_angle_beta   90.00838419
_cell_angle_gamma   89.97859392
_symmetry_Int_Tables_number   1
_chemical_formula_structural   Pr3Nd14Sm3Sn16
_chemical_formula_sum   'Pr3 Nd14 Sm3 Sn16'
_cell_volume   1123.91514587
_cell_formula_units_Z   1
loop_
 _symmetry_equiv_pos_site_id
 _symmetry_equiv_pos_as_xyz
  1  'x, y, z'
loop_
 _atom_site_type_symbol
 _atom_site_label
 _atom_site_symmetry_multiplicity
 _atom_site_fract_x
 _atom_site_fract_y
 _atom_site_fract_z
 _atom_site_occupancy
  Pr  Pr0  1  0.981577  0.819260  0.400753  1
  Pr  Pr1  1  0.518678  0.319085  0.599065  1
  Pr  Pr2  1  0.018277  0.180420  0.900923  1
  Nd  Nd3  1  0.367761  0.835401  0.879530  1
  Nd  Nd4  1  0.867384  0.664753  0.620553  1
  Nd  Nd5  1  0.632486  0.164455  0.379269  1
  Nd  Nd6  1  0.132585  0.335516  0.121084  1
  Nd  Nd7  1  0.632520  0.164403  0.120693  1
  Nd  Nd8  1  0.132615  0.335496  0.378929  1
  Nd  Nd9  1  0.367665  0.835462  0.620482  1
  Nd  Nd10  1  0.867289  0.664743  0.879486  1
  Nd  Nd11  1  0.518742  0.319159  0.900784  1
  Nd  Nd12  1  0.018309  0.180365  0.599258  1
  Nd  Nd13  1  0.481411  0.680589  0.400446  1
  Nd  Nd14  1  0.981560  0.819269  0.099411  1
  Nd  Nd15  1  0.481443  0.680601  0.099516  1
  Nd  Nd16  1  0.197391  0.501606  0.750005  1
  Sm  Sm17  1  0.697941  0.998273  0.749991  1
  Sm  Sm18  1  0.801854  0.498562  0.249970  1
  Sm  Sm19  1  0.301823  0.001370  0.249937  1
  Sn  Sn20  1  0.292904  0.034407  0.043104  1
  Sn  Sn21  1  0.792821  0.465461  0.456969  1
  Sn  Sn22  1  0.707146  0.965521  0.542929  1
  Sn  Sn23  1  0.207490  0.535465  0.958256  1
  Sn  Sn24  1  0.706935  0.965373  0.957206  1
  Sn  Sn25  1  0.207125  0.535411  0.541721  1
  Sn  Sn26  1  0.292921  0.034698  0.457045  1
  Sn  Sn27  1  0.792652  0.465583  0.042969  1
  Sn  Sn28  1  0.568106  0.617112  0.750046  1
  Sn  Sn29  1  0.065597  0.884789  0.749948  1
  Sn  Sn30  1  0.434017  0.383616  0.249995  1
  Sn  Sn31  1  0.933777  0.116495  0.249946  1
  Sn  Sn32  1  0.324438  0.141872  0.750080  1
  Sn  Sn33  1  0.822198  0.355276  0.749925  1
  Sn  Sn34  1  0.676168  0.856069  0.249926  1
  Sn  Sn35  1  0.176393  0.644063  0.249850  1
