# generated using pymatgen
data_Y9Er3(LuPd2)8
_symmetry_space_group_name_H-M   'P 1'
_cell_length_a   7.45510602
_cell_length_b   7.53129318
_cell_length_c   14.62957300
_cell_angle_alpha   89.99259771
_cell_angle_beta   90.00424236
_cell_angle_gamma   90.01005792
_symmetry_Int_Tables_number   1
_chemical_formula_structural   Y9Er3(LuPd2)8
_chemical_formula_sum   'Y9 Er3 Lu8 Pd16'
_cell_volume   821.40060246
_cell_formula_units_Z   1
loop_
 _symmetry_equiv_pos_site_id
 _symmetry_equiv_pos_as_xyz
  1  'x, y, z'
loop_
 _atom_site_type_symbol
 _atom_site_label
 _atom_site_symmetry_multiplicity
 _atom_site_fract_x
 _atom_site_fract_y
 _atom_site_fract_z
 _atom_site_occupancy
  Y  Y0  1  0.656812  0.833123  0.878116  1
  Y  Y1  1  0.998418  0.820125  0.406609  1
  Y  Y2  1  0.498449  0.679800  0.093694  1
  Y  Y3  1  0.501638  0.320142  0.593388  1
  Y  Y4  1  0.001628  0.180141  0.906545  1
  Y  Y5  1  0.000590  0.178665  0.592981  1
  Y  Y6  1  0.500675  0.321273  0.906958  1
  Y  Y7  1  0.499324  0.678850  0.407001  1
  Y  Y8  1  0.999562  0.821302  0.093052  1
  Er  Er9  1  0.342647  0.166649  0.377946  1
  Er  Er10  1  0.842620  0.333378  0.122280  1
  Er  Er11  1  0.157293  0.666615  0.621911  1
  Lu  Lu12  1  0.680444  0.989480  0.250061  1
  Lu  Lu13  1  0.180426  0.510445  0.250057  1
  Lu  Lu14  1  0.819784  0.489203  0.749782  1
  Lu  Lu15  1  0.319276  0.010784  0.749745  1
  Lu  Lu16  1  0.657780  0.832935  0.622811  1
  Lu  Lu17  1  0.157873  0.667064  0.877053  1
  Lu  Lu18  1  0.842286  0.332930  0.377103  1
  Lu  Lu19  1  0.342159  0.167226  0.122982  1
  Pd  Pd20  1  0.815791  0.642505  0.250405  1
  Pd  Pd21  1  0.315718  0.857504  0.249152  1
  Pd  Pd22  1  0.684708  0.143471  0.748921  1
  Pd  Pd23  1  0.183851  0.357161  0.750836  1
  Pd  Pd24  1  0.545165  0.385757  0.249802  1
  Pd  Pd25  1  0.045111  0.114367  0.249868  1
  Pd  Pd26  1  0.956153  0.886443  0.749453  1
  Pd  Pd27  1  0.454147  0.612782  0.749347  1
  Pd  Pd28  1  0.817413  0.535232  0.541045  1
  Pd  Pd29  1  0.315296  0.965508  0.959617  1
  Pd  Pd30  1  0.682662  0.035285  0.459025  1
  Pd  Pd31  1  0.183045  0.464791  0.040904  1
  Pd  Pd32  1  0.176570  0.465657  0.456883  1
  Pd  Pd33  1  0.676315  0.035486  0.044082  1
  Pd  Pd34  1  0.323524  0.965699  0.543177  1
  Pd  Pd35  1  0.824842  0.532219  0.957406  1
