# generated using pymatgen
data_Cs6SmInBr12
_symmetry_space_group_name_H-M   'P 1'
_cell_length_a   10.00536388
_cell_length_b   9.98324568
_cell_length_c   8.28674800
_cell_angle_alpha   90.00000000
_cell_angle_beta   90.00000000
_cell_angle_gamma   90.20361865
_symmetry_Int_Tables_number   1
_chemical_formula_structural   Cs6SmInBr12
_chemical_formula_sum   'Cs6 Sm1 In1 Br12'
_cell_volume   827.72493098
_cell_formula_units_Z   1
loop_
 _symmetry_equiv_pos_site_id
 _symmetry_equiv_pos_as_xyz
  1  'x, y, z'
loop_
 _atom_site_type_symbol
 _atom_site_label
 _atom_site_symmetry_multiplicity
 _atom_site_fract_x
 _atom_site_fract_y
 _atom_site_fract_z
 _atom_site_occupancy
  Cs  Cs0  1  0.000000  0.000000  0.500000  1
  Cs  Cs1  1  0.000000  0.000000  0.000000  1
  Cs  Cs2  1  0.236786  0.584736  0.500000  1
  Cs  Cs3  1  0.763214  0.415264  0.500000  1
  Cs  Cs4  1  0.416891  0.232786  0.000000  1
  Cs  Cs5  1  0.583109  0.767214  0.000000  1
  Sm  Sm6  1  0.000000  0.500000  0.000000  1
  In  In7  1  0.500000  0.000000  0.500000  1
  Br  Br8  1  0.686789  0.057229  0.734699  1
  Br  Br9  1  0.313211  0.942771  0.734699  1
  Br  Br10  1  0.941975  0.695300  0.244403  1
  Br  Br11  1  0.058025  0.304700  0.244403  1
  Br  Br12  1  0.313211  0.942771  0.265301  1
  Br  Br13  1  0.686789  0.057229  0.265301  1
  Br  Br14  1  0.058025  0.304700  0.755597  1
  Br  Br15  1  0.941975  0.695300  0.755597  1
  Br  Br16  1  0.568382  0.737213  0.500000  1
  Br  Br17  1  0.431618  0.262787  0.500000  1
  Br  Br18  1  0.275587  0.571737  0.000000  1
  Br  Br19  1  0.724413  0.428263  0.000000  1
