# generated using pymatgen
data_Tb3HoIn2Cu3Rh
_symmetry_space_group_name_H-M   'P 1'
_cell_length_a   7.63701823
_cell_length_b   7.63261077
_cell_length_c   3.70702200
_cell_angle_alpha   90.00000000
_cell_angle_beta   90.00000000
_cell_angle_gamma   90.43374748
_symmetry_Int_Tables_number   1
_chemical_formula_structural   Tb3HoIn2Cu3Rh
_chemical_formula_sum   'Tb3 Ho1 In2 Cu3 Rh1'
_cell_volume   216.07755746
_cell_formula_units_Z   1
loop_
 _symmetry_equiv_pos_site_id
 _symmetry_equiv_pos_as_xyz
  1  'x, y, z'
loop_
 _atom_site_type_symbol
 _atom_site_label
 _atom_site_symmetry_multiplicity
 _atom_site_fract_x
 _atom_site_fract_y
 _atom_site_fract_z
 _atom_site_occupancy
  Tb  Tb0  1  0.671546  0.171955  0.500000  1
  Tb  Tb1  1  0.317554  0.817565  0.500000  1
  Tb  Tb2  1  0.836157  0.679276  0.500000  1
  Ho  Ho3  1  0.178953  0.336489  0.500000  1
  In  In4  1  0.505224  0.497337  0.000000  1
  In  In5  1  0.002054  0.006425  0.000000  1
  Cu  Cu6  1  0.874546  0.376552  0.000000  1
  Cu  Cu7  1  0.616585  0.880740  0.000000  1
  Cu  Cu8  1  0.378077  0.115812  0.000000  1
  Rh  Rh9  1  0.119305  0.617849  0.000000  1
