# generated using pymatgen
data_Ac10Nd7Sm3Sn16
_symmetry_space_group_name_H-M   'P 1'
_cell_length_a   8.51321001
_cell_length_b   8.65398359
_cell_length_c   16.52468906
_cell_angle_alpha   89.69799789
_cell_angle_beta   90.00463888
_cell_angle_gamma   90.00244731
_symmetry_Int_Tables_number   1
_chemical_formula_structural   Ac10Nd7Sm3Sn16
_chemical_formula_sum   'Ac10 Nd7 Sm3 Sn16'
_cell_volume   1217.40947009
_cell_formula_units_Z   1
loop_
 _symmetry_equiv_pos_site_id
 _symmetry_equiv_pos_as_xyz
  1  'x, y, z'
loop_
 _atom_site_type_symbol
 _atom_site_label
 _atom_site_symmetry_multiplicity
 _atom_site_fract_x
 _atom_site_fract_y
 _atom_site_fract_z
 _atom_site_occupancy
  Ac  Ac0  1  0.488087  0.819945  0.904523  1
  Ac  Ac1  1  0.987927  0.680418  0.595423  1
  Ac  Ac2  1  0.513343  0.176166  0.400418  1
  Ac  Ac3  1  0.013424  0.323939  0.099609  1
  Ac  Ac4  1  0.512784  0.182046  0.099311  1
  Ac  Ac5  1  0.012951  0.317960  0.400637  1
  Ac  Ac6  1  0.484882  0.817527  0.595954  1
  Ac  Ac7  1  0.984584  0.682784  0.904056  1
  Ac  Ac8  1  0.640437  0.340705  0.884318  1
  Ac  Ac9  1  0.140263  0.159038  0.615666  1
  Nd  Nd10  1  0.360969  0.659018  0.373510  1
  Nd  Nd11  1  0.861037  0.840948  0.126422  1
  Nd  Nd12  1  0.355771  0.660127  0.122342  1
  Nd  Nd13  1  0.855850  0.839868  0.377662  1
  Nd  Nd14  1  0.644672  0.338046  0.622850  1
  Nd  Nd15  1  0.144296  0.161674  0.877153  1
  Nd  Nd16  1  0.306957  0.497671  0.751141  1
  Sm  Sm17  1  0.806321  0.002584  0.748936  1
  Sm  Sm18  1  0.694784  0.501822  0.250476  1
  Sm  Sm19  1  0.194811  0.998229  0.249530  1
  Sn  Sn20  1  0.193291  0.960680  0.043748  1
  Sn  Sn21  1  0.693322  0.539255  0.456198  1
  Sn  Sn22  1  0.789886  0.038629  0.541939  1
  Sn  Sn23  1  0.289901  0.461149  0.958418  1
  Sn  Sn24  1  0.817656  0.036004  0.959896  1
  Sn  Sn25  1  0.317733  0.463870  0.539839  1
  Sn  Sn26  1  0.195766  0.948743  0.448919  1
  Sn  Sn27  1  0.695844  0.551195  0.051142  1
  Sn  Sn28  1  0.683212  0.645258  0.748442  1
  Sn  Sn29  1  0.182744  0.855871  0.751567  1
  Sn  Sn30  1  0.318245  0.359667  0.249415  1
  Sn  Sn31  1  0.818341  0.140336  0.250543  1
  Sn  Sn32  1  0.443932  0.121127  0.751443  1
  Sn  Sn33  1  0.942809  0.377844  0.748560  1
  Sn  Sn34  1  0.556561  0.871468  0.248679  1
  Sn  Sn35  1  0.056604  0.628390  0.251315  1
