# generated using pymatgen
data_DyEr(Tc2Ge)4
_symmetry_space_group_name_H-M   'P 1'
_cell_length_a   4.20443300
_cell_length_b   7.26787297
_cell_length_c   7.64330768
_cell_angle_alpha   90.13043418
_cell_angle_beta   90.00024059
_cell_angle_gamma   89.99985245
_symmetry_Int_Tables_number   1
_chemical_formula_structural   DyEr(Tc2Ge)4
_chemical_formula_sum   'Dy1 Er1 Tc8 Ge4'
_cell_volume   233.55812568
_cell_formula_units_Z   1
loop_
 _symmetry_equiv_pos_site_id
 _symmetry_equiv_pos_as_xyz
  1  'x, y, z'
loop_
 _atom_site_type_symbol
 _atom_site_label
 _atom_site_symmetry_multiplicity
 _atom_site_fract_x
 _atom_site_fract_y
 _atom_site_fract_z
 _atom_site_occupancy
  Dy  Dy0  1  0.500002  0.999999  0.000001  1
  Er  Er1  1  0.999992  0.500012  0.499993  1
  Tc  Tc2  1  0.999990  0.913606  0.653089  1
  Tc  Tc3  1  0.000019  0.353660  0.105196  1
  Tc  Tc4  1  0.499989  0.585694  0.153813  1
  Tc  Tc5  1  0.000011  0.086395  0.346886  1
  Tc  Tc6  1  0.500009  0.147167  0.604773  1
  Tc  Tc7  1  0.500013  0.414277  0.846176  1
  Tc  Tc8  1  0.999985  0.646355  0.894798  1
  Tc  Tc9  1  0.499988  0.852825  0.395235  1
  Ge  Ge10  1  0.499989  0.715458  0.695186  1
  Ge  Ge11  1  0.500010  0.284552  0.304878  1
  Ge  Ge12  1  0.000014  0.216174  0.804047  1
  Ge  Ge13  1  0.999989  0.783825  0.195928  1
