# generated using pymatgen
data_KRb7Ti2Sn6(PO5)8
_symmetry_space_group_name_H-M   'P 1'
_cell_length_a   10.86771700
_cell_length_b   6.58795641
_cell_length_c   13.28155800
_cell_angle_alpha   89.94168628
_cell_angle_beta   90.00000000
_cell_angle_gamma   90.00000000
_symmetry_Int_Tables_number   1
_chemical_formula_structural   KRb7Ti2Sn6(PO5)8
_chemical_formula_sum   'K1 Rb7 Ti2 Sn6 P8 O40'
_cell_volume   950.90654362
_cell_formula_units_Z   1
loop_
 _symmetry_equiv_pos_site_id
 _symmetry_equiv_pos_as_xyz
  1  'x, y, z'
loop_
 _atom_site_type_symbol
 _atom_site_label
 _atom_site_symmetry_multiplicity
 _atom_site_fract_x
 _atom_site_fract_y
 _atom_site_fract_z
 _atom_site_occupancy
  K  K0  1  0.055614  0.299486  0.896456  1
  Rb  Rb1  1  0.306828  0.283030  0.109959  1
  Rb  Rb2  1  0.808046  0.717865  0.889740  1
  Rb  Rb3  1  0.808963  0.782510  0.379559  1
  Rb  Rb4  1  0.308534  0.216341  0.620537  1
  Rb  Rb5  1  0.062135  0.187102  0.391199  1
  Rb  Rb6  1  0.562069  0.813352  0.608699  1
  Rb  Rb7  1  0.556742  0.691459  0.101757  1
  Ti  Ti8  1  0.998700  0.998124  0.130503  1
  Ti  Ti9  1  0.498325  0.002667  0.868488  1
  Sn  Sn10  1  0.499546  0.497768  0.373274  1
  Sn  Sn11  1  0.999836  0.501030  0.628002  1
  Sn  Sn12  1  0.249941  0.751379  0.251051  1
  Sn  Sn13  1  0.750238  0.249053  0.749371  1
  Sn  Sn14  1  0.748561  0.260527  0.244653  1
  Sn  Sn15  1  0.247624  0.738227  0.756123  1
  P  P16  1  0.247833  0.843087  0.998623  1
  P  P17  1  0.749148  0.158811  0.000818  1
  P  P18  1  0.749539  0.335679  0.500883  1
  P  P19  1  0.248962  0.664015  0.499953  1
  P  P20  1  0.501152  0.002847  0.323803  1
  P  P21  1  0.001626  0.997018  0.677092  1
  P  P22  1  0.002418  0.502572  0.176666  1
  P  P23  1  0.502101  0.497917  0.821633  1
  O  O24  1  0.221136  0.692552  0.910566  1
  O  O25  1  0.722318  0.306830  0.089880  1
  O  O26  1  0.727423  0.192948  0.591883  1
  O  O27  1  0.226472  0.806329  0.408797  1
  O  O28  1  0.272728  0.708036  0.092934  1
  O  O29  1  0.775861  0.294995  0.907186  1
  O  O30  1  0.771199  0.203588  0.406083  1
  O  O31  1  0.269842  0.796118  0.594800  1
  O  O32  1  0.477913  0.184540  0.395291  1
  O  O33  1  0.978951  0.814556  0.606048  1
  O  O34  1  0.980320  0.695361  0.112495  1
  O  O35  1  0.480101  0.306578  0.886813  1
  O  O36  1  0.390020  0.972159  0.252140  1
  O  O37  1  0.890491  0.028222  0.748663  1
  O  O38  1  0.892152  0.470817  0.249626  1
  O  O39  1  0.391561  0.529014  0.748893  1
  O  O40  1  0.636598  0.490344  0.272608  1
  O  O41  1  0.134833  0.507367  0.730894  1
  O  O42  1  0.124703  0.967974  0.221485  1
  O  O43  1  0.624143  0.033644  0.777517  1
  O  O44  1  0.525094  0.817140  0.392936  1
  O  O45  1  0.025368  0.182012  0.607426  1
  O  O46  1  0.023462  0.314853  0.108996  1
  O  O47  1  0.523404  0.687530  0.887792  1
  O  O48  1  0.373493  0.530451  0.265500  1
  O  O49  1  0.873978  0.469162  0.735570  1
  O  O50  1  0.881118  0.047435  0.225521  1
  O  O51  1  0.380417  0.952615  0.774106  1
  O  O52  1  0.137099  0.986951  0.014333  1
  O  O53  1  0.637882  0.017837  0.983144  1
  O  O54  1  0.637865  0.482225  0.487903  1
  O  O55  1  0.137653  0.516836  0.513227  1
  O  O56  1  0.366025  0.969012  0.979127  1
  O  O57  1  0.866634  0.030927  0.020217  1
  O  O58  1  0.866195  0.471580  0.514829  1
  O  O59  1  0.365910  0.528785  0.486166  1
  O  O60  1  0.614480  0.032399  0.253521  1
  O  O61  1  0.114904  0.969007  0.747672  1
  O  O62  1  0.115609  0.526459  0.247943  1
  O  O63  1  0.615362  0.472946  0.750624  1
