# generated using pymatgen
data_Er8Si12Ir3Au
_symmetry_space_group_name_H-M   'P 1'
_cell_length_a   8.17690700
_cell_length_b   8.17683730
_cell_length_c   7.84539100
_cell_angle_alpha   89.99947043
_cell_angle_beta   90.00050056
_cell_angle_gamma   119.99985736
_symmetry_Int_Tables_number   1
_chemical_formula_structural   Er8Si12Ir3Au
_chemical_formula_sum   'Er8 Si12 Ir3 Au1'
_cell_volume   454.27649194
_cell_formula_units_Z   1
loop_
 _symmetry_equiv_pos_site_id
 _symmetry_equiv_pos_as_xyz
  1  'x, y, z'
loop_
 _atom_site_type_symbol
 _atom_site_label
 _atom_site_symmetry_multiplicity
 _atom_site_fract_x
 _atom_site_fract_y
 _atom_site_fract_z
 _atom_site_occupancy
  Er  Er0  1  0.513902  0.027801  0.245163  1
  Er  Er1  1  0.491141  0.982276  0.753909  1
  Er  Er2  1  0.972201  0.486098  0.245161  1
  Er  Er3  1  0.017718  0.508857  0.753906  1
  Er  Er4  1  0.513900  0.486100  0.245164  1
  Er  Er5  1  0.491140  0.508860  0.753914  1
  Er  Er6  1  0.999999  0.000001  0.250887  1
  Er  Er7  1  0.999998  0.000002  0.753005  1
  Si  Si8  1  0.166660  0.333315  0.004152  1
  Si  Si9  1  0.834080  0.668162  0.996598  1
  Si  Si10  1  0.666685  0.833341  0.004151  1
  Si  Si11  1  0.831728  0.663458  0.501154  1
  Si  Si12  1  0.331839  0.165920  0.996599  1
  Si  Si13  1  0.161019  0.322053  0.502081  1
  Si  Si14  1  0.166660  0.833342  0.004154  1
  Si  Si15  1  0.336545  0.168274  0.501154  1
  Si  Si16  1  0.834079  0.165921  0.996600  1
  Si  Si17  1  0.677947  0.838981  0.502083  1
  Si  Si18  1  0.831729  0.168270  0.501157  1
  Si  Si19  1  0.161025  0.838976  0.502086  1
  Ir  Ir20  1  0.333332  0.666672  0.030024  1
  Ir  Ir21  1  0.666664  0.333329  0.963778  1
  Ir  Ir22  1  0.666674  0.333320  0.540813  1
  Au  Au23  1  0.333335  0.666672  0.452309  1
