# generated using pymatgen
data_CePr2Mg3Ir2Pd
_symmetry_space_group_name_H-M   'P 1'
_cell_length_a   7.50951382
_cell_length_b   7.50951295
_cell_length_c   4.05630500
_cell_angle_alpha   90.00000000
_cell_angle_beta   90.00000000
_cell_angle_gamma   118.18029466
_symmetry_Int_Tables_number   1
_chemical_formula_structural   CePr2Mg3Ir2Pd
_chemical_formula_sum   'Ce1 Pr2 Mg3 Ir2 Pd1'
_cell_volume   201.63212191
_cell_formula_units_Z   1
loop_
 _symmetry_equiv_pos_site_id
 _symmetry_equiv_pos_as_xyz
  1  'x, y, z'
loop_
 _atom_site_type_symbol
 _atom_site_label
 _atom_site_symmetry_multiplicity
 _atom_site_fract_x
 _atom_site_fract_y
 _atom_site_fract_z
 _atom_site_occupancy
  Ce  Ce0  1  0.427460  0.427460  0.500000  1
  Pr  Pr1  1  0.001628  0.582907  0.500000  1
  Pr  Pr2  1  0.582907  0.001628  0.500000  1
  Mg  Mg3  1  0.760246  0.760246  0.000000  1
  Mg  Mg4  1  0.245146  0.002836  0.000000  1
  Mg  Mg5  1  0.002836  0.245146  0.000000  1
  Ir  Ir6  1  0.643874  0.334739  0.000000  1
  Ir  Ir7  1  0.334739  0.643874  0.000000  1
  Pd  Pd8  1  0.001165  0.001165  0.500000  1
