# generated using pymatgen
data_Zr6Ta3Al13Co2Ir5
_symmetry_space_group_name_H-M   'P 1'
_cell_length_a   8.77494943
_cell_length_b   8.77495083
_cell_length_c   8.81417224
_cell_angle_alpha   59.72677669
_cell_angle_beta   59.72676852
_cell_angle_gamma   59.97211712
_symmetry_Int_Tables_number   1
_chemical_formula_structural   Zr6Ta3Al13Co2Ir5
_chemical_formula_sum   'Zr6 Ta3 Al13 Co2 Ir5'
_cell_volume   477.81419764
_cell_formula_units_Z   1
loop_
 _symmetry_equiv_pos_site_id
 _symmetry_equiv_pos_as_xyz
  1  'x, y, z'
loop_
 _atom_site_type_symbol
 _atom_site_label
 _atom_site_symmetry_multiplicity
 _atom_site_fract_x
 _atom_site_fract_y
 _atom_site_fract_z
 _atom_site_occupancy
  Zr  Zr0  1  0.685717  0.685717  0.311377  1
  Zr  Zr1  1  0.308630  0.688939  0.310105  1
  Zr  Zr2  1  0.688939  0.308630  0.310105  1
  Zr  Zr3  1  0.316993  0.316993  0.681723  1
  Zr  Zr4  1  0.692325  0.303470  0.692932  1
  Zr  Zr5  1  0.303470  0.692325  0.692932  1
  Ta  Ta6  1  0.884282  0.884282  0.354322  1
  Ta  Ta7  1  0.883239  0.354333  0.881363  1
  Ta  Ta8  1  0.354333  0.883239  0.881363  1
  Al  Al9  1  0.883339  0.883339  0.883612  1
  Al  Al10  1  0.116301  0.116301  0.644515  1
  Al  Al11  1  0.115953  0.643747  0.119223  1
  Al  Al12  1  0.643747  0.115953  0.119223  1
  Al  Al13  1  0.119841  0.119841  0.122312  1
  Al  Al14  1  0.664805  0.664805  0.010745  1
  Al  Al15  1  0.673711  0.009292  0.660819  1
  Al  Al16  1  0.009292  0.673711  0.660819  1
  Al  Al17  1  0.659148  0.659148  0.659475  1
  Al  Al18  1  0.337482  0.337482  0.990441  1
  Al  Al19  1  0.329778  0.990048  0.340625  1
  Al  Al20  1  0.990048  0.329778  0.340625  1
  Al  Al21  1  0.336108  0.336108  0.336440  1
  Co  Co22  1  0.005306  0.005306  0.003540  1
  Co  Co23  1  0.997611  0.997611  0.489959  1
  Ir  Ir24  1  0.501553  0.997902  0.503586  1
  Ir  Ir25  1  0.997902  0.501553  0.503586  1
  Ir  Ir26  1  0.502820  0.502820  0.997977  1
  Ir  Ir27  1  0.999065  0.498264  0.998127  1
  Ir  Ir28  1  0.498264  0.999065  0.998127  1
