# generated using pymatgen
data_Tm5Lu5AlSb5
_symmetry_space_group_name_H-M   'P 1'
_cell_length_a   8.76137700
_cell_length_b   8.77275181
_cell_length_c   6.25142000
_cell_angle_alpha   90.00000000
_cell_angle_beta   90.00000000
_cell_angle_gamma   119.95711410
_symmetry_Int_Tables_number   1
_chemical_formula_structural   Tm5Lu5AlSb5
_chemical_formula_sum   'Tm5 Lu5 Al1 Sb5'
_cell_volume   416.29868341
_cell_formula_units_Z   1
loop_
 _symmetry_equiv_pos_site_id
 _symmetry_equiv_pos_as_xyz
  1  'x, y, z'
loop_
 _atom_site_type_symbol
 _atom_site_label
 _atom_site_symmetry_multiplicity
 _atom_site_fract_x
 _atom_site_fract_y
 _atom_site_fract_z
 _atom_site_occupancy
  Tm  Tm0  1  0.247053  0.000000  0.250000  1
  Tm  Tm1  1  0.990069  0.234677  0.250000  1
  Tm  Tm2  1  0.755392  0.765323  0.250000  1
  Tm  Tm3  1  0.243246  0.242488  0.750000  1
  Tm  Tm4  1  0.000756  0.757512  0.750000  1
  Lu  Lu5  1  0.338937  0.674052  0.001877  1
  Lu  Lu6  1  0.664885  0.325948  0.498123  1
  Lu  Lu7  1  0.664885  0.325948  0.001877  1
  Lu  Lu8  1  0.338937  0.674052  0.498123  1
  Lu  Lu9  1  0.759487  0.000000  0.750000  1
  Al  Al10  1  0.602335  0.000000  0.250000  1
  Sb  Sb11  1  0.394370  0.000000  0.750000  1
  Sb  Sb12  1  0.997711  0.608482  0.250000  1
  Sb  Sb13  1  0.389228  0.391518  0.250000  1
  Sb  Sb14  1  0.609599  0.606490  0.750000  1
  Sb  Sb15  1  0.003109  0.393510  0.750000  1
