# generated using pymatgen
data_Zr2Co4As3
_symmetry_space_group_name_H-M   'P 1'
_cell_length_a   12.58141700
_cell_length_b   12.58141661
_cell_length_c   3.79024800
_cell_angle_alpha   90.00000000
_cell_angle_beta   90.00000000
_cell_angle_gamma   120.00000365
_symmetry_Int_Tables_number   1
_chemical_formula_structural   Zr2Co4As3
_chemical_formula_sum   'Zr8 Co16 As12'
_cell_volume   519.58588353
_cell_formula_units_Z   4
loop_
 _symmetry_equiv_pos_site_id
 _symmetry_equiv_pos_as_xyz
  1  'x, y, z'
loop_
 _atom_site_type_symbol
 _atom_site_label
 _atom_site_symmetry_multiplicity
 _atom_site_fract_x
 _atom_site_fract_y
 _atom_site_fract_z
 _atom_site_occupancy
  Zr  Zr0  1  0.824830  0.824830  0.500000  1
  Zr  Zr1  1  0.442591  0.442591  0.000000  1
  Zr  Zr2  1  0.000000  0.175170  0.500000  1
  Zr  Zr3  1  0.557409  0.000000  0.000000  1
  Zr  Zr4  1  0.333333  0.666667  0.000000  1
  Zr  Zr5  1  0.666667  0.333333  0.000000  1
  Zr  Zr6  1  0.000000  0.557409  0.000000  1
  Zr  Zr7  1  0.175170  0.000000  0.500000  1
  Co  Co8  1  0.626736  0.821605  0.000000  1
  Co  Co9  1  0.373264  0.194870  0.000000  1
  Co  Co10  1  0.000000  0.719829  0.500000  1
  Co  Co11  1  0.280171  0.280171  0.500000  1
  Co  Co12  1  0.876736  0.355926  0.500000  1
  Co  Co13  1  0.719829  0.000000  0.500000  1
  Co  Co14  1  0.821605  0.626736  0.000000  1
  Co  Co15  1  0.178395  0.805130  0.000000  1
  Co  Co16  1  0.355926  0.876736  0.500000  1
  Co  Co17  1  0.123264  0.479190  0.500000  1
  Co  Co18  1  0.644074  0.520810  0.500000  1
  Co  Co19  1  0.000000  0.000000  0.000000  1
  Co  Co20  1  0.520810  0.644074  0.500000  1
  Co  Co21  1  0.479190  0.123264  0.500000  1
  Co  Co22  1  0.194870  0.373264  0.000000  1
  Co  Co23  1  0.805130  0.178395  0.000000  1
  As  As24  1  0.000000  0.345520  0.000000  1
  As  As25  1  0.825128  0.515236  0.500000  1
  As  As26  1  0.690107  0.174872  0.500000  1
  As  As27  1  0.175997  0.175997  0.000000  1
  As  As28  1  0.654480  0.654480  0.000000  1
  As  As29  1  0.824003  0.000000  0.000000  1
  As  As30  1  0.515236  0.825128  0.500000  1
  As  As31  1  0.174872  0.690107  0.500000  1
  As  As32  1  0.345520  0.000000  0.000000  1
  As  As33  1  0.484764  0.309893  0.500000  1
  As  As34  1  0.000000  0.824003  0.000000  1
  As  As35  1  0.309893  0.484764  0.500000  1
