# generated using pymatgen
data_Ca2TaH9
_symmetry_space_group_name_H-M   'P 1'
_cell_length_a   8.74497600
_cell_length_b   8.74497654
_cell_length_c   5.04558100
_cell_angle_alpha   90.00000000
_cell_angle_beta   90.00000000
_cell_angle_gamma   119.99999794
_symmetry_Int_Tables_number   1
_chemical_formula_structural   Ca2TaH9
_chemical_formula_sum   'Ca6 Ta3 H27'
_cell_volume   334.16356396
_cell_formula_units_Z   3
loop_
 _symmetry_equiv_pos_site_id
 _symmetry_equiv_pos_as_xyz
  1  'x, y, z'
loop_
 _atom_site_type_symbol
 _atom_site_label
 _atom_site_symmetry_multiplicity
 _atom_site_fract_x
 _atom_site_fract_y
 _atom_site_fract_z
 _atom_site_occupancy
  Ca  Ca0  1  0.264686  0.000000  0.500000  1
  Ca  Ca1  1  0.000000  0.264686  0.500000  1
  Ca  Ca2  1  0.735314  0.735314  0.500000  1
  Ca  Ca3  1  0.599347  0.000000  0.000000  1
  Ca  Ca4  1  0.000000  0.599347  0.000000  1
  Ca  Ca5  1  0.400653  0.400653  0.000000  1
  Ta  Ta6  1  0.000000  0.000000  0.000000  1
  Ta  Ta7  1  0.333333  0.666667  0.500000  1
  Ta  Ta8  1  0.666667  0.333333  0.500000  1
  H  H9  1  0.846675  0.000000  0.255302  1
  H  H10  1  0.000000  0.846675  0.255302  1
  H  H11  1  0.846675  0.000000  0.744698  1
  H  H12  1  0.000000  0.846675  0.744698  1
  H  H13  1  0.153325  0.153325  0.255302  1
  H  H14  1  0.153325  0.153325  0.744698  1
  H  H15  1  0.211045  0.000000  0.000000  1
  H  H16  1  0.000000  0.211045  0.000000  1
  H  H17  1  0.788955  0.788955  0.000000  1
  H  H18  1  0.179813  0.517724  0.237832  1
  H  H19  1  0.482276  0.662088  0.237832  1
  H  H20  1  0.179813  0.517724  0.762168  1
  H  H21  1  0.517724  0.179813  0.762168  1
  H  H22  1  0.337912  0.820187  0.237832  1
  H  H23  1  0.482276  0.662088  0.762168  1
  H  H24  1  0.662088  0.482276  0.762168  1
  H  H25  1  0.517724  0.179813  0.237832  1
  H  H26  1  0.337912  0.820187  0.762168  1
  H  H27  1  0.662088  0.482276  0.237832  1
  H  H28  1  0.820187  0.337912  0.762168  1
  H  H29  1  0.820187  0.337912  0.237832  1
  H  H30  1  0.315254  0.449618  0.500000  1
  H  H31  1  0.550382  0.865636  0.500000  1
  H  H32  1  0.449618  0.315254  0.500000  1
  H  H33  1  0.134364  0.684746  0.500000  1
  H  H34  1  0.865636  0.550382  0.500000  1
  H  H35  1  0.684746  0.134364  0.500000  1
