# generated using pymatgen
data_InBi5S9
_symmetry_space_group_name_H-M   'P 1'
_cell_length_a   4.05194900
_cell_length_b   10.97207664
_cell_length_c   18.41668700
_cell_angle_alpha   81.50470540
_cell_angle_beta   90.00000000
_cell_angle_gamma   90.00000000
_symmetry_Int_Tables_number   1
_chemical_formula_structural   InBi5S9
_chemical_formula_sum   'In2 Bi10 S18'
_cell_volume   809.79090803
_cell_formula_units_Z   2
loop_
 _symmetry_equiv_pos_site_id
 _symmetry_equiv_pos_as_xyz
  1  'x, y, z'
loop_
 _atom_site_type_symbol
 _atom_site_label
 _atom_site_symmetry_multiplicity
 _atom_site_fract_x
 _atom_site_fract_y
 _atom_site_fract_z
 _atom_site_occupancy
  In  In0  1  0.250000  0.172698  0.276429  1
  In  In1  1  0.750000  0.827302  0.723571  1
  Bi  Bi2  1  0.250000  0.898936  0.912287  1
  Bi  Bi3  1  0.750000  0.101064  0.087713  1
  Bi  Bi4  1  0.250000  0.805397  0.224737  1
  Bi  Bi5  1  0.750000  0.194603  0.775263  1
  Bi  Bi6  1  0.250000  0.813569  0.542326  1
  Bi  Bi7  1  0.750000  0.186431  0.457674  1
  Bi  Bi8  1  0.250000  0.525852  0.905164  1
  Bi  Bi9  1  0.750000  0.474148  0.094836  1
  Bi  Bi10  1  0.250000  0.436914  0.605038  1
  Bi  Bi11  1  0.750000  0.563086  0.394962  1
  S  S12  1  0.250000  0.978276  0.765613  1
  S  S13  1  0.750000  0.021724  0.234387  1
  S  S14  1  0.250000  0.938902  0.076795  1
  S  S15  1  0.750000  0.061098  0.923205  1
  S  S16  1  0.250000  0.731504  0.375167  1
  S  S17  1  0.750000  0.268496  0.624833  1
  S  S18  1  0.250000  0.698739  0.681257  1
  S  S19  1  0.750000  0.301261  0.318743  1
  S  S20  1  0.250000  0.624243  0.030587  1
  S  S21  1  0.750000  0.375757  0.969413  1
  S  S22  1  0.250000  0.384219  0.467543  1
  S  S23  1  0.750000  0.615781  0.532457  1
  S  S24  1  0.250000  0.352349  0.786466  1
  S  S25  1  0.750000  0.647651  0.213534  1
  S  S26  1  0.250000  0.279249  0.139158  1
  S  S27  1  0.750000  0.720751  0.860842  1
  S  S28  1  0.250000  0.046986  0.412462  1
  S  S29  1  0.750000  0.953014  0.587538  1
