# generated using pymatgen
data_Hf18Re5Mo(WS)2
_symmetry_space_group_name_H-M   'P 1'
_cell_length_a   8.71967651
_cell_length_b   8.71967663
_cell_length_c   8.48804100
_cell_angle_alpha   90.00000000
_cell_angle_beta   90.00000000
_cell_angle_gamma   121.48175143
_symmetry_Int_Tables_number   1
_chemical_formula_structural   Hf18Re5Mo(WS)2
_chemical_formula_sum   'Hf18 Re5 Mo1 W2 S2'
_cell_volume   550.37505456
_cell_formula_units_Z   1
loop_
 _symmetry_equiv_pos_site_id
 _symmetry_equiv_pos_as_xyz
  1  'x, y, z'
loop_
 _atom_site_type_symbol
 _atom_site_label
 _atom_site_symmetry_multiplicity
 _atom_site_fract_x
 _atom_site_fract_y
 _atom_site_fract_z
 _atom_site_occupancy
  Hf  Hf0  1  0.192992  0.807008  0.453029  1
  Hf  Hf1  1  0.202605  0.395400  0.445079  1
  Hf  Hf2  1  0.604600  0.797395  0.445079  1
  Hf  Hf3  1  0.806804  0.193196  0.549077  1
  Hf  Hf4  1  0.798420  0.605448  0.556372  1
  Hf  Hf5  1  0.394552  0.201580  0.556372  1
  Hf  Hf6  1  0.806804  0.193196  0.950923  1
  Hf  Hf7  1  0.798420  0.605448  0.943628  1
  Hf  Hf8  1  0.394552  0.201580  0.943628  1
  Hf  Hf9  1  0.192992  0.807008  0.046971  1
  Hf  Hf10  1  0.202605  0.395400  0.054921  1
  Hf  Hf11  1  0.604600  0.797395  0.054921  1
  Hf  Hf12  1  0.550753  0.449247  0.250000  1
  Hf  Hf13  1  0.540444  0.079267  0.250000  1
  Hf  Hf14  1  0.920733  0.459556  0.250000  1
  Hf  Hf15  1  0.449416  0.550584  0.750000  1
  Hf  Hf16  1  0.457652  0.918290  0.750000  1
  Hf  Hf17  1  0.081710  0.542348  0.750000  1
  Re  Re18  1  0.888796  0.775980  0.250000  1
  Re  Re19  1  0.224020  0.111204  0.250000  1
  Re  Re20  1  0.109400  0.890600  0.750000  1
  Re  Re21  1  0.111390  0.224324  0.750000  1
  Re  Re22  1  0.775676  0.888610  0.750000  1
  Mo  Mo23  1  0.890789  0.109211  0.250000  1
  W  W24  1  0.000477  0.999523  0.499901  1
  W  W25  1  0.000477  0.999523  0.000099  1
  S  S26  1  0.318846  0.681154  0.250000  1
  S  S27  1  0.679473  0.320527  0.750000  1
