# generated using pymatgen
data_Y4MgCo8P12Rh11
_symmetry_space_group_name_H-M   'P 1'
_cell_length_a   3.79649200
_cell_length_b   10.67571242
_cell_length_c   12.32787706
_cell_angle_alpha   89.81335266
_cell_angle_beta   90.00000000
_cell_angle_gamma   90.00000000
_symmetry_Int_Tables_number   1
_chemical_formula_structural   Y4MgCo8P12Rh11
_chemical_formula_sum   'Y4 Mg1 Co8 P12 Rh11'
_cell_volume   499.64937172
_cell_formula_units_Z   1
loop_
 _symmetry_equiv_pos_site_id
 _symmetry_equiv_pos_as_xyz
  1  'x, y, z'
loop_
 _atom_site_type_symbol
 _atom_site_label
 _atom_site_symmetry_multiplicity
 _atom_site_fract_x
 _atom_site_fract_y
 _atom_site_fract_z
 _atom_site_occupancy
  Y  Y0  1  0.250000  0.919007  0.207871  1
  Y  Y1  1  0.750000  0.081349  0.791134  1
  Y  Y2  1  0.750000  0.418785  0.289299  1
  Y  Y3  1  0.250000  0.580878  0.710210  1
  Mg  Mg4  1  0.250000  0.794284  0.488048  1
  Co  Co5  1  0.250000  0.613897  0.193281  1
  Co  Co6  1  0.750000  0.384139  0.802505  1
  Co  Co7  1  0.750000  0.119788  0.304420  1
  Co  Co8  1  0.250000  0.880880  0.697327  1
  Co  Co9  1  0.250000  0.037341  0.434905  1
  Co  Co10  1  0.750000  0.963416  0.566005  1
  Co  Co11  1  0.750000  0.536097  0.065551  1
  Co  Co12  1  0.250000  0.463308  0.932136  1
  P  P13  1  0.250000  0.068858  0.612132  1
  P  P14  1  0.750000  0.934553  0.385016  1
  P  P15  1  0.750000  0.568182  0.889371  1
  P  P16  1  0.250000  0.430102  0.108569  1
  P  P17  1  0.250000  0.227061  0.369072  1
  P  P18  1  0.750000  0.773416  0.637780  1
  P  P19  1  0.750000  0.724550  0.129059  1
  P  P20  1  0.250000  0.274165  0.870708  1
  P  P21  1  0.250000  0.901054  0.883413  1
  P  P22  1  0.750000  0.101482  0.119039  1
  P  P23  1  0.750000  0.400044  0.616530  1
  P  P24  1  0.250000  0.594508  0.377557  1
  Rh  Rh25  1  0.750000  0.209283  0.513312  1
  Rh  Rh26  1  0.750000  0.283679  0.007601  1
  Rh  Rh27  1  0.250000  0.716714  0.992797  1
  Rh  Rh28  1  0.250000  0.091919  0.979961  1
  Rh  Rh29  1  0.750000  0.909221  0.022648  1
  Rh  Rh30  1  0.750000  0.595267  0.520577  1
  Rh  Rh31  1  0.250000  0.404833  0.478681  1
  Rh  Rh32  1  0.250000  0.273015  0.681018  1
  Rh  Rh33  1  0.750000  0.724146  0.318891  1
  Rh  Rh34  1  0.750000  0.774408  0.825280  1
  Rh  Rh35  1  0.250000  0.226367  0.178294  1
