# generated using pymatgen
data_La3InSn2Pd3
_symmetry_space_group_name_H-M   'P 1'
_cell_length_a   7.72176757
_cell_length_b   7.72176707
_cell_length_c   4.24087900
_cell_angle_alpha   90.00000000
_cell_angle_beta   90.00000000
_cell_angle_gamma   119.88984004
_symmetry_Int_Tables_number   1
_chemical_formula_structural   La3InSn2Pd3
_chemical_formula_sum   'La3 In1 Sn2 Pd3'
_cell_volume   219.23048863
_cell_formula_units_Z   1
loop_
 _symmetry_equiv_pos_site_id
 _symmetry_equiv_pos_as_xyz
  1  'x, y, z'
loop_
 _atom_site_type_symbol
 _atom_site_label
 _atom_site_symmetry_multiplicity
 _atom_site_fract_x
 _atom_site_fract_y
 _atom_site_fract_z
 _atom_site_occupancy
  La  La0  1  0.000874  0.585143  0.000000  1
  La  La1  1  0.414793  0.414793  0.000000  1
  La  La2  1  0.585143  0.000874  0.000000  1
  In  In3  1  0.751103  0.751103  0.500000  1
  Sn  Sn4  1  0.997676  0.244921  0.500000  1
  Sn  Sn5  1  0.244921  0.997676  0.500000  1
  Pd  Pd6  1  0.666584  0.332548  0.500000  1
  Pd  Pd7  1  0.006359  0.006359  0.000000  1
  Pd  Pd8  1  0.332548  0.666584  0.500000  1
