# generated using pymatgen
data_Hf2Ti3(ReTc)12
_symmetry_space_group_name_H-M   'P 1'
_cell_length_a   8.38432492
_cell_length_b   8.38032461
_cell_length_c   8.38032511
_cell_angle_alpha   109.46154844
_cell_angle_beta   109.48088797
_cell_angle_gamma   109.48089245
_symmetry_Int_Tables_number   1
_chemical_formula_structural   Hf2Ti3(ReTc)12
_chemical_formula_sum   'Hf2 Ti3 Re12 Tc12'
_cell_volume   453.22732127
_cell_formula_units_Z   1
loop_
 _symmetry_equiv_pos_site_id
 _symmetry_equiv_pos_as_xyz
  1  'x, y, z'
loop_
 _atom_site_type_symbol
 _atom_site_label
 _atom_site_symmetry_multiplicity
 _atom_site_fract_x
 _atom_site_fract_y
 _atom_site_fract_z
 _atom_site_occupancy
  Hf  Hf0  1  0.002898  0.000000  0.000000  1
  Hf  Hf1  1  0.626799  0.000000  0.000000  1
  Ti  Ti2  1  0.000046  0.626429  0.000000  1
  Ti  Ti3  1  0.000046  0.000000  0.626429  1
  Ti  Ti4  1  0.373616  0.373571  0.373571  1
  Re  Re5  1  0.376191  0.194286  0.000000  1
  Re  Re6  1  0.181905  0.805714  0.805714  1
  Re  Re7  1  0.376191  0.000000  0.194286  1
  Re  Re8  1  0.193561  0.374743  0.000000  1
  Re  Re9  1  0.001928  0.378225  0.195117  1
  Re  Re10  1  0.806811  0.183108  0.804883  1
  Re  Re11  1  0.806811  0.804883  0.183108  1
  Re  Re12  1  0.001928  0.195117  0.378225  1
  Re  Re13  1  0.193561  0.000000  0.374743  1
  Re  Re14  1  0.623703  0.621775  0.816892  1
  Re  Re15  1  0.818818  0.625257  0.625257  1
  Re  Re16  1  0.623703  0.816892  0.621775  1
  Tc  Tc17  1  0.396468  0.675464  0.000000  1
  Tc  Tc18  1  0.721003  0.324536  0.324536  1
  Tc  Tc19  1  0.396468  0.000000  0.675464  1
  Tc  Tc20  1  0.681827  0.400340  0.000000  1
  Tc  Tc21  1  0.999651  0.400942  0.681807  1
  Tc  Tc22  1  0.317844  0.719135  0.318193  1
  Tc  Tc23  1  0.317844  0.318193  0.719135  1
  Tc  Tc24  1  0.999651  0.681807  0.400942  1
  Tc  Tc25  1  0.681827  0.000000  0.400340  1
  Tc  Tc26  1  0.598709  0.599058  0.280865  1
  Tc  Tc27  1  0.281487  0.599660  0.599660  1
  Tc  Tc28  1  0.598709  0.280865  0.599058  1
