# generated using pymatgen
data_Ce3Ho(AlIr)4
_symmetry_space_group_name_H-M   'P 1'
_cell_length_a   6.86568549
_cell_length_b   4.33828900
_cell_length_c   7.94153370
_cell_angle_alpha   90.00000000
_cell_angle_beta   89.59135058
_cell_angle_gamma   90.00000000
_symmetry_Int_Tables_number   1
_chemical_formula_structural   Ce3Ho(AlIr)4
_chemical_formula_sum   'Ce3 Ho1 Al4 Ir4'
_cell_volume   236.53516819
_cell_formula_units_Z   1
loop_
 _symmetry_equiv_pos_site_id
 _symmetry_equiv_pos_as_xyz
  1  'x, y, z'
loop_
 _atom_site_type_symbol
 _atom_site_label
 _atom_site_symmetry_multiplicity
 _atom_site_fract_x
 _atom_site_fract_y
 _atom_site_fract_z
 _atom_site_occupancy
  Ce  Ce0  1  0.464200  0.250000  0.316139  1
  Ce  Ce1  1  0.033858  0.750000  0.821533  1
  Ce  Ce2  1  0.536519  0.750000  0.683091  1
  Ho  Ho3  1  0.963508  0.250000  0.183916  1
  Al  Al4  1  0.864450  0.250000  0.558310  1
  Al  Al5  1  0.360676  0.250000  0.940650  1
  Al  Al6  1  0.133688  0.750000  0.435720  1
  Al  Al7  1  0.641758  0.750000  0.064005  1
  Ir  Ir8  1  0.737760  0.250000  0.878793  1
  Ir  Ir9  1  0.238923  0.250000  0.618318  1
  Ir  Ir10  1  0.263869  0.750000  0.115742  1
  Ir  Ir11  1  0.760790  0.750000  0.383782  1
