# generated using pymatgen
data_Y8GaPdPt23
_symmetry_space_group_name_H-M   'P 1'
_cell_length_a   8.40415000
_cell_length_b   8.37110100
_cell_length_c   8.37110100
_cell_angle_alpha   90.00000000
_cell_angle_beta   90.00000000
_cell_angle_gamma   90.00000000
_symmetry_Int_Tables_number   1
_chemical_formula_structural   Y8GaPdPt23
_chemical_formula_sum   'Y8 Ga1 Pd1 Pt23'
_cell_volume   588.92360103
_cell_formula_units_Z   1
loop_
 _symmetry_equiv_pos_site_id
 _symmetry_equiv_pos_as_xyz
  1  'x, y, z'
loop_
 _atom_site_type_symbol
 _atom_site_label
 _atom_site_symmetry_multiplicity
 _atom_site_fract_x
 _atom_site_fract_y
 _atom_site_fract_z
 _atom_site_occupancy
  Y  Y0  1  0.250983  0.250808  0.749192  1
  Y  Y1  1  0.250983  0.749192  0.250808  1
  Y  Y2  1  0.748774  0.251296  0.251296  1
  Y  Y3  1  0.748774  0.748704  0.748704  1
  Y  Y4  1  0.748774  0.748704  0.251296  1
  Y  Y5  1  0.748774  0.251296  0.748704  1
  Y  Y6  1  0.250983  0.749192  0.749192  1
  Y  Y7  1  0.250983  0.250808  0.250808  1
  Ga  Ga8  1  0.001775  0.000000  0.000000  1
  Pd  Pd9  1  0.705593  0.000000  0.000000  1
  Pt  Pt10  1  0.499987  0.500000  0.746645  1
  Pt  Pt11  1  0.499987  0.253355  0.500000  1
  Pt  Pt12  1  0.254216  0.500000  0.500000  1
  Pt  Pt13  1  0.499987  0.500000  0.253355  1
  Pt  Pt14  1  0.499987  0.746645  0.500000  1
  Pt  Pt15  1  0.746000  0.500000  0.500000  1
  Pt  Pt16  1  0.999256  0.000000  0.703529  1
  Pt  Pt17  1  0.999256  0.296471  0.000000  1
  Pt  Pt18  1  0.297946  0.000000  0.000000  1
  Pt  Pt19  1  0.999256  0.000000  0.296471  1
  Pt  Pt20  1  0.999256  0.703529  0.000000  1
  Pt  Pt21  1  0.999991  0.500000  0.737893  1
  Pt  Pt22  1  0.500050  0.261765  0.000000  1
  Pt  Pt23  1  0.262125  0.000000  0.500000  1
  Pt  Pt24  1  0.999991  0.262107  0.500000  1
  Pt  Pt25  1  0.500050  0.000000  0.738235  1
  Pt  Pt26  1  0.262125  0.500000  0.000000  1
  Pt  Pt27  1  0.999991  0.500000  0.262107  1
  Pt  Pt28  1  0.500050  0.738235  0.000000  1
  Pt  Pt29  1  0.999991  0.737893  0.500000  1
  Pt  Pt30  1  0.500050  0.000000  0.261765  1
  Pt  Pt31  1  0.737027  0.000000  0.500000  1
  Pt  Pt32  1  0.737027  0.500000  0.000000  1
