# generated using pymatgen
data_Lu12Fe2RePb2
_symmetry_space_group_name_H-M   'P 1'
_cell_length_a   8.24653637
_cell_length_b   8.24653558
_cell_length_c   8.24653493
_cell_angle_alpha   108.76004424
_cell_angle_beta   108.76005900
_cell_angle_gamma   110.90311177
_symmetry_Int_Tables_number   1
_chemical_formula_structural   Lu12Fe2RePb2
_chemical_formula_sum   'Lu12 Fe2 Re1 Pb2'
_cell_volume   431.50785128
_cell_formula_units_Z   1
loop_
 _symmetry_equiv_pos_site_id
 _symmetry_equiv_pos_as_xyz
  1  'x, y, z'
loop_
 _atom_site_type_symbol
 _atom_site_label
 _atom_site_symmetry_multiplicity
 _atom_site_fract_x
 _atom_site_fract_y
 _atom_site_fract_z
 _atom_site_occupancy
  Lu  Lu0  1  0.308739  0.308739  0.617478  1
  Lu  Lu1  1  0.691261  0.691261  0.382522  1
  Lu  Lu2  1  0.691261  0.308739  0.000000  1
  Lu  Lu3  1  0.308739  0.691261  0.000000  1
  Lu  Lu4  1  0.193934  0.428908  0.234975  1
  Lu  Lu5  1  0.806066  0.571092  0.765025  1
  Lu  Lu6  1  0.193934  0.958959  0.765025  1
  Lu  Lu7  1  0.958959  0.193934  0.765025  1
  Lu  Lu8  1  0.806066  0.041041  0.234975  1
  Lu  Lu9  1  0.041041  0.806066  0.234975  1
  Lu  Lu10  1  0.428908  0.193934  0.234975  1
  Lu  Lu11  1  0.571092  0.806066  0.765025  1
  Fe  Fe12  1  0.384865  0.384865  0.000000  1
  Fe  Fe13  1  0.615135  0.615135  0.000000  1
  Re  Re14  1  0.000000  0.000000  0.000000  1
  Pb  Pb15  1  0.000000  0.500000  0.500000  1
  Pb  Pb16  1  0.500000  0.000000  0.500000  1
