# generated using pymatgen
data_TbYTmAlC3
_symmetry_space_group_name_H-M   'P 1'
_cell_length_a   3.56749200
_cell_length_b   7.06473397
_cell_length_c   9.93413280
_cell_angle_alpha   90.23205239
_cell_angle_beta   90.00000000
_cell_angle_gamma   90.00000000
_symmetry_Int_Tables_number   1
_chemical_formula_structural   TbYTmAlC3
_chemical_formula_sum   'Tb2 Y2 Tm2 Al2 C6'
_cell_volume   250.37168940
_cell_formula_units_Z   2
loop_
 _symmetry_equiv_pos_site_id
 _symmetry_equiv_pos_as_xyz
  1  'x, y, z'
loop_
 _atom_site_type_symbol
 _atom_site_label
 _atom_site_symmetry_multiplicity
 _atom_site_fract_x
 _atom_site_fract_y
 _atom_site_fract_z
 _atom_site_occupancy
  Tb  Tb0  1  0.000000  0.749871  0.459430  1
  Tb  Tb1  1  0.000000  0.250129  0.540570  1
  Y  Y2  1  0.500000  0.988906  0.197306  1
  Y  Y3  1  0.500000  0.011094  0.802694  1
  Tm  Tm4  1  0.500000  0.513437  0.201592  1
  Tm  Tm5  1  0.500000  0.486563  0.798408  1
  Al  Al6  1  0.000000  0.739042  0.003502  1
  Al  Al7  1  0.000000  0.260958  0.996498  1
  C  C8  1  0.500000  0.508644  0.566513  1
  C  C9  1  0.500000  0.491356  0.433487  1
  C  C10  1  0.500000  0.991024  0.566341  1
  C  C11  1  0.500000  0.008976  0.433659  1
  C  C12  1  0.000000  0.745602  0.207007  1
  C  C13  1  0.000000  0.254398  0.792993  1
