# generated using pymatgen
data_Sc8Si16Ru11Pt
_symmetry_space_group_name_H-M   'P 1'
_cell_length_a   9.97079917
_cell_length_b   9.96473127
_cell_length_c   13.38140854
_cell_angle_alpha   53.76464923
_cell_angle_beta   53.77596313
_cell_angle_gamma   31.02228159
_symmetry_Int_Tables_number   1
_chemical_formula_structural   Sc8Si16Ru11Pt
_chemical_formula_sum   'Sc8 Si16 Ru11 Pt1'
_cell_volume   541.17188171
_cell_formula_units_Z   1
loop_
 _symmetry_equiv_pos_site_id
 _symmetry_equiv_pos_as_xyz
  1  'x, y, z'
loop_
 _atom_site_type_symbol
 _atom_site_label
 _atom_site_symmetry_multiplicity
 _atom_site_fract_x
 _atom_site_fract_y
 _atom_site_fract_z
 _atom_site_occupancy
  Sc  Sc0  1  0.293144  0.559465  0.645452  1
  Sc  Sc1  1  0.709840  0.962266  0.860177  1
  Sc  Sc2  1  0.292578  0.039069  0.139113  1
  Sc  Sc3  1  0.442199  0.708214  0.850020  1
  Sc  Sc4  1  0.038813  0.291867  0.637789  1
  Sc  Sc5  1  0.558805  0.290322  0.146910  1
  Sc  Sc6  1  0.961233  0.707724  0.362237  1
  Sc  Sc7  1  0.707486  0.441240  0.355829  1
  Si  Si8  1  0.017718  0.746183  0.107654  1
  Si  Si9  1  0.615752  0.855482  0.601696  1
  Si  Si10  1  0.974043  0.256109  0.887320  1
  Si  Si11  1  0.387296  0.613552  0.252239  1
  Si  Si12  1  0.385115  0.142849  0.398664  1
  Si  Si13  1  0.572605  0.082126  0.065448  1
  Si  Si14  1  0.147389  0.384833  0.896393  1
  Si  Si15  1  0.253124  0.975504  0.391987  1
  Si  Si16  1  0.079188  0.575504  0.566712  1
  Si  Si17  1  0.427665  0.921327  0.932593  1
  Si  Si18  1  0.128876  0.871542  0.749233  1
  Si  Si19  1  0.747321  0.024223  0.608684  1
  Si  Si20  1  0.865454  0.135085  0.253285  1
  Si  Si21  1  0.617434  0.382083  0.750141  1
  Si  Si22  1  0.920521  0.424726  0.434413  1
  Si  Si23  1  0.855301  0.614907  0.102576  1
  Ru  Ru24  1  0.170031  0.351120  0.218150  1
  Ru  Ru25  1  0.352987  0.167741  0.717859  1
  Ru  Ru26  1  0.831751  0.646249  0.783999  1
  Ru  Ru27  1  0.507930  0.248935  0.430018  1
  Ru  Ru28  1  0.859604  0.101529  0.914072  1
  Ru  Ru29  1  0.649298  0.830054  0.282274  1
  Ru  Ru30  1  0.246744  0.510861  0.931283  1
  Ru  Ru31  1  0.751850  0.489968  0.071012  1
  Ru  Ru32  1  0.102545  0.859727  0.412767  1
  Ru  Ru33  1  0.897186  0.141355  0.585896  1
  Ru  Ru34  1  0.491341  0.751753  0.569266  1
  Pt  Pt35  1  0.139833  0.894504  0.086838  1
