# generated using pymatgen
data_DyHoSc2(B6Ir)2
_symmetry_space_group_name_H-M   'P 1'
_cell_length_a   3.54779600
_cell_length_b   9.01516901
_cell_length_c   11.38328802
_cell_angle_alpha   90.00605024
_cell_angle_beta   90.00000000
_cell_angle_gamma   90.00000000
_symmetry_Int_Tables_number   1
_chemical_formula_structural   DyHoSc2(B6Ir)2
_chemical_formula_sum   'Dy2 Ho2 Sc4 B24 Ir4'
_cell_volume   364.08286060
_cell_formula_units_Z   2
loop_
 _symmetry_equiv_pos_site_id
 _symmetry_equiv_pos_as_xyz
  1  'x, y, z'
loop_
 _atom_site_type_symbol
 _atom_site_label
 _atom_site_symmetry_multiplicity
 _atom_site_fract_x
 _atom_site_fract_y
 _atom_site_fract_z
 _atom_site_occupancy
  Dy  Dy0  1  0.500000  0.319979  0.414057  1
  Dy  Dy1  1  0.500000  0.680021  0.585943  1
  Ho  Ho2  1  0.500000  0.180144  0.914075  1
  Ho  Ho3  1  0.500000  0.819856  0.085925  1
  Sc  Sc4  1  0.500000  0.445160  0.124186  1
  Sc  Sc5  1  0.500000  0.554840  0.875814  1
  Sc  Sc6  1  0.500000  0.054873  0.624247  1
  Sc  Sc7  1  0.500000  0.945127  0.375753  1
  B  B8  1  0.000000  0.100250  0.472898  1
  B  B9  1  0.000000  0.899750  0.527102  1
  B  B10  1  0.000000  0.399495  0.972825  1
  B  B11  1  0.000000  0.600505  0.027175  1
  B  B12  1  0.000000  0.129859  0.318398  1
  B  B13  1  0.000000  0.870141  0.681602  1
  B  B14  1  0.000000  0.369949  0.818525  1
  B  B15  1  0.000000  0.630051  0.181475  1
  B  B16  1  0.000000  0.054635  0.065511  1
  B  B17  1  0.000000  0.945365  0.934489  1
  B  B18  1  0.000000  0.445271  0.565718  1
  B  B19  1  0.000000  0.554729  0.434282  1
  B  B20  1  0.000000  0.481811  0.285043  1
  B  B21  1  0.000000  0.518189  0.714957  1
  B  B22  1  0.000000  0.018379  0.785160  1
  B  B23  1  0.000000  0.981621  0.214840  1
  B  B24  1  0.000000  0.253892  0.080063  1
  B  B25  1  0.000000  0.746108  0.919937  1
  B  B26  1  0.000000  0.246036  0.580272  1
  B  B27  1  0.000000  0.753964  0.419728  1
  B  B28  1  0.000000  0.295699  0.235369  1
  B  B29  1  0.000000  0.704301  0.764631  1
  B  B30  1  0.000000  0.204228  0.735584  1
  B  B31  1  0.000000  0.795772  0.264416  1
  Ir  Ir32  1  0.500000  0.141264  0.181263  1
  Ir  Ir33  1  0.500000  0.858736  0.818737  1
  Ir  Ir34  1  0.500000  0.358468  0.681575  1
  Ir  Ir35  1  0.500000  0.641532  0.318425  1
