# generated using pymatgen
data_Y5Co19(SiP3)3
_symmetry_space_group_name_H-M   'P 1'
_cell_length_a   12.03768400
_cell_length_b   12.03768387
_cell_length_c   3.68348500
_cell_angle_alpha   90.00000000
_cell_angle_beta   90.00000000
_cell_angle_gamma   120.00000035
_symmetry_Int_Tables_number   1
_chemical_formula_structural   Y5Co19(SiP3)3
_chemical_formula_sum   'Y5 Co19 Si3 P9'
_cell_volume   462.24839114
_cell_formula_units_Z   1
loop_
 _symmetry_equiv_pos_site_id
 _symmetry_equiv_pos_as_xyz
  1  'x, y, z'
loop_
 _atom_site_type_symbol
 _atom_site_label
 _atom_site_symmetry_multiplicity
 _atom_site_fract_x
 _atom_site_fract_y
 _atom_site_fract_z
 _atom_site_occupancy
  Y  Y0  1  0.333333  0.666667  0.000000  1
  Y  Y1  1  0.666667  0.333333  0.000000  1
  Y  Y2  1  0.185259  0.000000  0.500000  1
  Y  Y3  1  0.000000  0.185259  0.500000  1
  Y  Y4  1  0.814741  0.814741  0.500000  1
  Co  Co5  1  0.202723  0.378113  0.000000  1
  Co  Co6  1  0.621887  0.824610  0.000000  1
  Co  Co7  1  0.175390  0.797277  0.000000  1
  Co  Co8  1  0.824610  0.621887  0.000000  1
  Co  Co9  1  0.797277  0.175390  0.000000  1
  Co  Co10  1  0.378113  0.202723  0.000000  1
  Co  Co11  1  0.557034  0.000000  0.000000  1
  Co  Co12  1  0.000000  0.557034  0.000000  1
  Co  Co13  1  0.442966  0.442966  0.000000  1
  Co  Co14  1  0.126911  0.485440  0.500000  1
  Co  Co15  1  0.514560  0.641472  0.500000  1
  Co  Co16  1  0.358528  0.873089  0.500000  1
  Co  Co17  1  0.641472  0.514560  0.500000  1
  Co  Co18  1  0.873089  0.358528  0.500000  1
  Co  Co19  1  0.485440  0.126911  0.500000  1
  Co  Co20  1  0.715560  0.000000  0.500000  1
  Co  Co21  1  0.000000  0.715560  0.500000  1
  Co  Co22  1  0.284440  0.284440  0.500000  1
  Co  Co23  1  0.000000  0.000000  0.000000  1
  Si  Si24  1  0.369773  0.000000  0.000000  1
  Si  Si25  1  0.000000  0.369773  0.000000  1
  Si  Si26  1  0.630227  0.630227  0.000000  1
  P  P27  1  0.313781  0.479633  0.500000  1
  P  P28  1  0.520367  0.834149  0.500000  1
  P  P29  1  0.165851  0.686219  0.500000  1
  P  P30  1  0.834149  0.520367  0.500000  1
  P  P31  1  0.686219  0.165851  0.500000  1
  P  P32  1  0.479633  0.313781  0.500000  1
  P  P33  1  0.817995  0.000000  0.000000  1
  P  P34  1  0.000000  0.817995  0.000000  1
  P  P35  1  0.182005  0.182005  0.000000  1
