# generated using pymatgen
data_Y7Ho13Cd6IrRu
_symmetry_space_group_name_H-M   'P 1'
_cell_length_a   9.60917813
_cell_length_b   9.60666754
_cell_length_c   9.81427439
_cell_angle_alpha   90.00000112
_cell_angle_beta   90.05279227
_cell_angle_gamma   119.99136422
_symmetry_Int_Tables_number   1
_chemical_formula_structural   Y7Ho13Cd6IrRu
_chemical_formula_sum   'Y7 Ho13 Cd6 Ir1 Ru1'
_cell_volume   784.66697188
_cell_formula_units_Z   1
loop_
 _symmetry_equiv_pos_site_id
 _symmetry_equiv_pos_as_xyz
  1  'x, y, z'
loop_
 _atom_site_type_symbol
 _atom_site_label
 _atom_site_symmetry_multiplicity
 _atom_site_fract_x
 _atom_site_fract_y
 _atom_site_fract_z
 _atom_site_occupancy
  Y  Y0  1  0.581630  0.790815  0.059282  1
  Y  Y1  1  0.541180  0.458630  0.250118  1
  Y  Y2  1  0.541180  0.082549  0.250118  1
  Y  Y3  1  0.917678  0.458839  0.250023  1
  Y  Y4  1  0.458832  0.541024  0.749809  1
  Y  Y5  1  0.458832  0.917808  0.749809  1
  Y  Y6  1  0.082298  0.541149  0.750017  1
  Ho  Ho7  1  0.000004  0.000002  0.499635  1
  Ho  Ho8  1  0.000229  0.000115  0.000315  1
  Ho  Ho9  1  0.209577  0.790444  0.440228  1
  Ho  Ho10  1  0.209577  0.419133  0.440228  1
  Ho  Ho11  1  0.580776  0.790388  0.440361  1
  Ho  Ho12  1  0.790234  0.209824  0.560328  1
  Ho  Ho13  1  0.790234  0.580408  0.560328  1
  Ho  Ho14  1  0.419561  0.209779  0.560320  1
  Ho  Ho15  1  0.790339  0.209970  0.939626  1
  Ho  Ho16  1  0.790339  0.580367  0.939626  1
  Ho  Ho17  1  0.419626  0.209812  0.939692  1
  Ho  Ho18  1  0.209405  0.790382  0.059802  1
  Ho  Ho19  1  0.209405  0.419024  0.059802  1
  Cd  Cd20  1  0.885508  0.114529  0.250001  1
  Cd  Cd21  1  0.885508  0.770979  0.250001  1
  Cd  Cd22  1  0.229022  0.114511  0.250016  1
  Cd  Cd23  1  0.114528  0.885433  0.750006  1
  Cd  Cd24  1  0.114528  0.229095  0.750006  1
  Cd  Cd25  1  0.770915  0.885457  0.749993  1
  Ir  Ir26  1  0.332435  0.666218  0.250557  1
  Ru  Ru27  1  0.666625  0.333312  0.749953  1
