# generated using pymatgen
data_TbY2ZnCd3Pd2
_symmetry_space_group_name_H-M   'P 1'
_cell_length_a   7.80325369
_cell_length_b   7.80325341
_cell_length_c   3.76123700
_cell_angle_alpha   90.00000000
_cell_angle_beta   90.00000000
_cell_angle_gamma   119.78532320
_symmetry_Int_Tables_number   1
_chemical_formula_structural   TbY2ZnCd3Pd2
_chemical_formula_sum   'Tb1 Y2 Zn1 Cd3 Pd2'
_cell_volume   198.76878686
_cell_formula_units_Z   1
loop_
 _symmetry_equiv_pos_site_id
 _symmetry_equiv_pos_as_xyz
  1  'x, y, z'
loop_
 _atom_site_type_symbol
 _atom_site_label
 _atom_site_symmetry_multiplicity
 _atom_site_fract_x
 _atom_site_fract_y
 _atom_site_fract_z
 _atom_site_occupancy
  Tb  Tb0  1  0.411714  0.411714  0.000000  1
  Y  Y1  1  0.588833  0.999892  0.000000  1
  Y  Y2  1  0.999892  0.588833  0.000000  1
  Zn  Zn3  1  0.999947  0.999947  0.000000  1
  Cd  Cd4  1  0.258500  0.999471  0.500000  1
  Cd  Cd5  1  0.999471  0.258500  0.500000  1
  Cd  Cd6  1  0.742206  0.742206  0.500000  1
  Pd  Pd7  1  0.333572  0.665864  0.500000  1
  Pd  Pd8  1  0.665864  0.333572  0.500000  1
