# generated using pymatgen
data_U8AlS17
_symmetry_space_group_name_H-M   'P 1'
_cell_length_a   7.78362224
_cell_length_b   7.78362194
_cell_length_c   10.42707329
_cell_angle_alpha   80.62785324
_cell_angle_beta   80.62785127
_cell_angle_gamma   65.18673584
_symmetry_Int_Tables_number   1
_chemical_formula_structural   U8AlS17
_chemical_formula_sum   'U8 Al1 S17'
_cell_volume   562.58857460
_cell_formula_units_Z   1
loop_
 _symmetry_equiv_pos_site_id
 _symmetry_equiv_pos_as_xyz
  1  'x, y, z'
loop_
 _atom_site_type_symbol
 _atom_site_label
 _atom_site_symmetry_multiplicity
 _atom_site_fract_x
 _atom_site_fract_y
 _atom_site_fract_z
 _atom_site_occupancy
  U  U0  1  0.819221  0.303177  0.302283  1
  U  U1  1  0.303177  0.819221  0.302283  1
  U  U2  1  0.180779  0.696823  0.697717  1
  U  U3  1  0.696823  0.180779  0.697717  1
  U  U4  1  0.204274  0.204274  0.544624  1
  U  U5  1  0.795726  0.795726  0.455376  1
  U  U6  1  0.677922  0.677922  0.982203  1
  U  U7  1  0.322078  0.322078  0.017797  1
  Al  Al8  1  0.000000  0.000000  0.000000  1
  S  S9  1  0.822000  0.432379  0.535824  1
  S  S10  1  0.432379  0.822000  0.535824  1
  S  S11  1  0.178000  0.567621  0.464176  1
  S  S12  1  0.567621  0.178000  0.464176  1
  S  S13  1  0.944719  0.319622  0.031431  1
  S  S14  1  0.319622  0.944719  0.031431  1
  S  S15  1  0.055281  0.680378  0.968569  1
  S  S16  1  0.680378  0.055281  0.968569  1
  S  S17  1  0.212461  0.212461  0.280521  1
  S  S18  1  0.787539  0.787539  0.719479  1
  S  S19  1  0.055714  0.055714  0.772522  1
  S  S20  1  0.944286  0.944286  0.227478  1
  S  S21  1  0.301184  0.301184  0.754690  1
  S  S22  1  0.698816  0.698816  0.245310  1
  S  S23  1  0.520868  0.520868  0.829386  1
  S  S24  1  0.479132  0.479132  0.170614  1
  S  S25  1  0.000000  0.000000  0.500000  1
