# generated using pymatgen
data_CsRb3Sn2Au7
_symmetry_space_group_name_H-M   'P 1'
_cell_length_a   10.71315991
_cell_length_b   10.71315986
_cell_length_c   10.71316067
_cell_angle_alpha   38.04323345
_cell_angle_beta   38.04323454
_cell_angle_gamma   38.04323452
_symmetry_Int_Tables_number   1
_chemical_formula_structural   CsRb3Sn2Au7
_chemical_formula_sum   'Cs1 Rb3 Sn2 Au7'
_cell_volume   419.19311885
_cell_formula_units_Z   1
loop_
 _symmetry_equiv_pos_site_id
 _symmetry_equiv_pos_as_xyz
  1  'x, y, z'
loop_
 _atom_site_type_symbol
 _atom_site_label
 _atom_site_symmetry_multiplicity
 _atom_site_fract_x
 _atom_site_fract_y
 _atom_site_fract_z
 _atom_site_occupancy
  Cs  Cs0  1  0.187629  0.187629  0.187629  1
  Rb  Rb1  1  0.813028  0.813028  0.813028  1
  Rb  Rb2  1  0.684576  0.684576  0.684576  1
  Rb  Rb3  1  0.315661  0.315661  0.315661  1
  Sn  Sn4  1  0.449437  0.449437  0.449437  1
  Sn  Sn5  1  0.550656  0.550656  0.550656  1
  Au  Au6  1  0.787817  0.787817  0.193221  1
  Au  Au7  1  0.212233  0.805800  0.212233  1
  Au  Au8  1  0.787817  0.193221  0.787817  1
  Au  Au9  1  0.805800  0.212233  0.212233  1
  Au  Au10  1  0.193221  0.787817  0.787817  1
  Au  Au11  1  0.999893  0.999893  0.999893  1
  Au  Au12  1  0.212233  0.212233  0.805800  1
