# generated using pymatgen
data_Hf12MnFe5Os6
_symmetry_space_group_name_H-M   'P 1'
_cell_length_a   4.52816600
_cell_length_b   6.44366500
_cell_length_c   13.59756500
_cell_angle_alpha   90.00000000
_cell_angle_beta   90.00015177
_cell_angle_gamma   90.00000000
_symmetry_Int_Tables_number   1
_chemical_formula_structural   Hf12MnFe5Os6
_chemical_formula_sum   'Hf12 Mn1 Fe5 Os6'
_cell_volume   396.74954446
_cell_formula_units_Z   1
loop_
 _symmetry_equiv_pos_site_id
 _symmetry_equiv_pos_as_xyz
  1  'x, y, z'
loop_
 _atom_site_type_symbol
 _atom_site_label
 _atom_site_symmetry_multiplicity
 _atom_site_fract_x
 _atom_site_fract_y
 _atom_site_fract_z
 _atom_site_occupancy
  Hf  Hf0  1  0.500001  0.248509  0.000000  1
  Hf  Hf1  1  0.500001  0.751491  0.000000  1
  Hf  Hf2  1  0.000175  0.249691  0.165985  1
  Hf  Hf3  1  0.000175  0.750309  0.165985  1
  Hf  Hf4  1  0.500182  0.250018  0.333207  1
  Hf  Hf5  1  0.500182  0.749982  0.333207  1
  Hf  Hf6  1  0.000000  0.250194  0.500000  1
  Hf  Hf7  1  0.000000  0.749806  0.500000  1
  Hf  Hf8  1  0.499819  0.250018  0.666793  1
  Hf  Hf9  1  0.499819  0.749982  0.666793  1
  Hf  Hf10  1  0.999826  0.249691  0.834015  1
  Hf  Hf11  1  0.999826  0.750309  0.834015  1
  Mn  Mn12  1  0.000000  0.000000  0.000000  1
  Fe  Fe13  1  0.500236  0.500001  0.167379  1
  Fe  Fe14  1  0.000230  0.000000  0.333913  1
  Fe  Fe15  1  0.500001  0.500001  0.500000  1
  Fe  Fe16  1  0.999771  0.000000  0.666087  1
  Fe  Fe17  1  0.499765  0.500001  0.832621  1
  Os  Os18  1  0.000000  0.500001  0.000000  1
  Os  Os19  1  0.500189  0.000000  0.167614  1
  Os  Os20  1  0.000201  0.500001  0.333560  1
  Os  Os21  1  0.500001  0.000000  0.500000  1
  Os  Os22  1  0.999800  0.500001  0.666440  1
  Os  Os23  1  0.499809  0.000000  0.832386  1
