# generated using pymatgen
data_NdY3Si6IrRh
_symmetry_space_group_name_H-M   'P 1'
_cell_length_a   8.20400900
_cell_length_b   8.20400944
_cell_length_c   8.06948800
_cell_angle_alpha   90.00000000
_cell_angle_beta   90.00000000
_cell_angle_gamma   119.99999421
_symmetry_Int_Tables_number   1
_chemical_formula_structural   NdY3Si6IrRh
_chemical_formula_sum   'Nd2 Y6 Si12 Ir2 Rh2'
_cell_volume   470.35841316
_cell_formula_units_Z   2
loop_
 _symmetry_equiv_pos_site_id
 _symmetry_equiv_pos_as_xyz
  1  'x, y, z'
loop_
 _atom_site_type_symbol
 _atom_site_label
 _atom_site_symmetry_multiplicity
 _atom_site_fract_x
 _atom_site_fract_y
 _atom_site_fract_z
 _atom_site_occupancy
  Nd  Nd0  1  0.000000  0.000000  0.249034  1
  Nd  Nd1  1  0.000000  0.000000  0.750966  1
  Y  Y2  1  0.508627  0.491373  0.250302  1
  Y  Y3  1  0.508627  0.017254  0.250302  1
  Y  Y4  1  0.982746  0.491373  0.250302  1
  Y  Y5  1  0.491373  0.508627  0.749698  1
  Y  Y6  1  0.491373  0.982746  0.749698  1
  Y  Y7  1  0.017254  0.508627  0.749698  1
  Si  Si8  1  0.168096  0.831904  0.500434  1
  Si  Si9  1  0.168096  0.336192  0.500434  1
  Si  Si10  1  0.663808  0.831904  0.500434  1
  Si  Si11  1  0.831904  0.168096  0.499566  1
  Si  Si12  1  0.831904  0.663808  0.499566  1
  Si  Si13  1  0.336192  0.168096  0.499566  1
  Si  Si14  1  0.831774  0.168226  0.000975  1
  Si  Si15  1  0.831774  0.663548  0.000975  1
  Si  Si16  1  0.336452  0.168226  0.000975  1
  Si  Si17  1  0.168226  0.831774  0.999025  1
  Si  Si18  1  0.168226  0.336452  0.999025  1
  Si  Si19  1  0.663548  0.831774  0.999025  1
  Ir  Ir20  1  0.333333  0.666667  0.468625  1
  Ir  Ir21  1  0.666667  0.333333  0.531375  1
  Rh  Rh22  1  0.666667  0.333333  0.965411  1
  Rh  Rh23  1  0.333333  0.666667  0.034589  1
