# generated using pymatgen
data_Nd2Lu4CuRh17
_symmetry_space_group_name_H-M   'P 1'
_cell_length_a   5.26430100
_cell_length_b   5.26434532
_cell_length_c   17.34188800
_cell_angle_alpha   90.00000000
_cell_angle_beta   90.00000000
_cell_angle_gamma   120.00034358
_symmetry_Int_Tables_number   1
_chemical_formula_structural   Nd2Lu4CuRh17
_chemical_formula_sum   'Nd2 Lu4 Cu1 Rh17'
_cell_volume   416.20815772
_cell_formula_units_Z   1
loop_
 _symmetry_equiv_pos_site_id
 _symmetry_equiv_pos_as_xyz
  1  'x, y, z'
loop_
 _atom_site_type_symbol
 _atom_site_label
 _atom_site_symmetry_multiplicity
 _atom_site_fract_x
 _atom_site_fract_y
 _atom_site_fract_z
 _atom_site_occupancy
  Nd  Nd0  1  0.333330  0.666651  0.750000  1
  Nd  Nd1  1  0.666668  0.333321  0.250000  1
  Lu  Lu2  1  0.333327  0.666672  0.958518  1
  Lu  Lu3  1  0.666670  0.333333  0.039904  1
  Lu  Lu4  1  0.666670  0.333333  0.460096  1
  Lu  Lu5  1  0.333327  0.666672  0.541482  1
  Cu  Cu6  1  0.333377  0.666700  0.250000  1
  Rh  Rh7  1  0.169279  0.830740  0.374715  1
  Rh  Rh8  1  0.169257  0.338518  0.374715  1
  Rh  Rh9  1  0.661481  0.830749  0.374716  1
  Rh  Rh10  1  0.832348  0.167641  0.623016  1
  Rh  Rh11  1  0.832357  0.664713  0.623023  1
  Rh  Rh12  1  0.335289  0.167637  0.623021  1
  Rh  Rh13  1  0.832348  0.167641  0.876984  1
  Rh  Rh14  1  0.832357  0.664713  0.876977  1
  Rh  Rh15  1  0.335289  0.167637  0.876979  1
  Rh  Rh16  1  0.169279  0.830740  0.125285  1
  Rh  Rh17  1  0.169257  0.338518  0.125285  1
  Rh  Rh18  1  0.661481  0.830749  0.125284  1
  Rh  Rh19  1  0.666658  0.333354  0.750000  1
  Rh  Rh20  1  0.999971  0.000023  0.250000  1
  Rh  Rh21  1  0.000003  0.999966  0.750000  1
  Rh  Rh22  1  0.999990  0.999989  0.497235  1
  Rh  Rh23  1  0.999990  0.999989  0.002765  1
