# generated using pymatgen
data_Pr2Tm4Co17TcP12
_symmetry_space_group_name_H-M   'P 1'
_cell_length_a   3.72351700
_cell_length_b   10.58115200
_cell_length_c   12.28536800
_cell_angle_alpha   90.00000000
_cell_angle_beta   90.00000000
_cell_angle_gamma   90.00000000
_symmetry_Int_Tables_number   1
_chemical_formula_structural   Pr2Tm4Co17TcP12
_chemical_formula_sum   'Pr2 Tm4 Co17 Tc1 P12'
_cell_volume   484.03243440
_cell_formula_units_Z   1
loop_
 _symmetry_equiv_pos_site_id
 _symmetry_equiv_pos_as_xyz
  1  'x, y, z'
loop_
 _atom_site_type_symbol
 _atom_site_label
 _atom_site_symmetry_multiplicity
 _atom_site_fract_x
 _atom_site_fract_y
 _atom_site_fract_z
 _atom_site_occupancy
  Pr  Pr0  1  0.000000  0.500000  0.524864  1
  Pr  Pr1  1  0.500000  0.000000  0.477356  1
  Tm  Tm2  1  0.500000  0.817686  0.204961  1
  Tm  Tm3  1  0.500000  0.182314  0.204961  1
  Tm  Tm4  1  0.000000  0.682777  0.796690  1
  Tm  Tm5  1  0.000000  0.317223  0.796690  1
  Co  Co6  1  0.000000  0.000000  0.842608  1
  Co  Co7  1  0.500000  0.500000  0.707499  1
  Co  Co8  1  0.000000  0.000000  0.291657  1
  Co  Co9  1  0.000000  0.500000  0.987502  1
  Co  Co10  1  0.500000  0.000000  0.014097  1
  Co  Co11  1  0.500000  0.331848  0.991020  1
  Co  Co12  1  0.500000  0.668152  0.991020  1
  Co  Co13  1  0.000000  0.166689  0.005772  1
  Co  Co14  1  0.000000  0.833311  0.005772  1
  Co  Co15  1  0.500000  0.295884  0.428339  1
  Co  Co16  1  0.500000  0.704116  0.428339  1
  Co  Co17  1  0.000000  0.204338  0.571094  1
  Co  Co18  1  0.000000  0.795662  0.571094  1
  Co  Co19  1  0.500000  0.879078  0.713013  1
  Co  Co20  1  0.500000  0.120922  0.713013  1
  Co  Co21  1  0.000000  0.620935  0.288004  1
  Co  Co22  1  0.000000  0.379065  0.288004  1
  Tc  Tc23  1  0.500000  0.500000  0.154146  1
  P  P24  1  0.500000  0.500000  0.882581  1
  P  P25  1  0.000000  0.000000  0.116081  1
  P  P26  1  0.500000  0.500000  0.343860  1
  P  P27  1  0.000000  0.000000  0.661124  1
  P  P28  1  0.500000  0.307164  0.619712  1
  P  P29  1  0.500000  0.692836  0.619712  1
  P  P30  1  0.000000  0.192073  0.381242  1
  P  P31  1  0.000000  0.807927  0.381242  1
  P  P32  1  0.500000  0.848239  0.893056  1
  P  P33  1  0.500000  0.151761  0.893056  1
  P  P34  1  0.000000  0.656290  0.105410  1
  P  P35  1  0.000000  0.343710  0.105410  1
