# generated using pymatgen
data_DyHoCo9P6Ru
_symmetry_space_group_name_H-M   'P 1'
_cell_length_a   3.67452200
_cell_length_b   10.33521200
_cell_length_c   11.76067900
_cell_angle_alpha   90.00000000
_cell_angle_beta   90.00000000
_cell_angle_gamma   90.00000000
_symmetry_Int_Tables_number   1
_chemical_formula_structural   DyHoCo9P6Ru
_chemical_formula_sum   'Dy2 Ho2 Co18 P12 Ru2'
_cell_volume   446.63488145
_cell_formula_units_Z   2
loop_
 _symmetry_equiv_pos_site_id
 _symmetry_equiv_pos_as_xyz
  1  'x, y, z'
loop_
 _atom_site_type_symbol
 _atom_site_label
 _atom_site_symmetry_multiplicity
 _atom_site_fract_x
 _atom_site_fract_y
 _atom_site_fract_z
 _atom_site_occupancy
  Dy  Dy0  1  0.250000  0.582343  0.702235  1
  Dy  Dy1  1  0.250000  0.917657  0.202235  1
  Ho  Ho2  1  0.750000  0.414085  0.295655  1
  Ho  Ho3  1  0.750000  0.085915  0.795655  1
  Co  Co4  1  0.750000  0.283827  0.008820  1
  Co  Co5  1  0.750000  0.216173  0.508820  1
  Co  Co6  1  0.250000  0.406019  0.487573  1
  Co  Co7  1  0.250000  0.093981  0.987573  1
  Co  Co8  1  0.750000  0.590924  0.510135  1
  Co  Co9  1  0.750000  0.909076  0.010135  1
  Co  Co10  1  0.250000  0.220808  0.176704  1
  Co  Co11  1  0.250000  0.279192  0.676704  1
  Co  Co12  1  0.750000  0.778456  0.822935  1
  Co  Co13  1  0.750000  0.721544  0.322935  1
  Co  Co14  1  0.250000  0.886749  0.701725  1
  Co  Co15  1  0.250000  0.613251  0.201725  1
  Co  Co16  1  0.750000  0.116759  0.301076  1
  Co  Co17  1  0.750000  0.383241  0.801076  1
  Co  Co18  1  0.250000  0.464237  0.932620  1
  Co  Co19  1  0.250000  0.035763  0.432620  1
  Co  Co20  1  0.750000  0.532667  0.069081  1
  Co  Co21  1  0.750000  0.967333  0.569081  1
  P  P22  1  0.250000  0.417131  0.112358  1
  P  P23  1  0.250000  0.082869  0.612358  1
  P  P24  1  0.750000  0.578508  0.887119  1
  P  P25  1  0.750000  0.921492  0.387119  1
  P  P26  1  0.250000  0.270106  0.869129  1
  P  P27  1  0.250000  0.229894  0.369129  1
  P  P28  1  0.750000  0.728644  0.132637  1
  P  P29  1  0.750000  0.771356  0.632637  1
  P  P30  1  0.250000  0.594754  0.390289  1
  P  P31  1  0.250000  0.905246  0.890289  1
  P  P32  1  0.750000  0.396884  0.608506  1
  P  P33  1  0.750000  0.103116  0.108506  1
  Ru  Ru34  1  0.250000  0.715136  0.991403  1
  Ru  Ru35  1  0.250000  0.784864  0.491403  1
