# generated using pymatgen
data_Y2Zr2IrRh
_symmetry_space_group_name_H-M   'P 1'
_cell_length_a   4.60846000
_cell_length_b   7.11529472
_cell_length_c   8.30243358
_cell_angle_alpha   90.32483975
_cell_angle_beta   90.00000000
_cell_angle_gamma   90.00000000
_symmetry_Int_Tables_number   1
_chemical_formula_structural   Y2Zr2IrRh
_chemical_formula_sum   'Y4 Zr4 Ir2 Rh2'
_cell_volume   272.23699721
_cell_formula_units_Z   2
loop_
 _symmetry_equiv_pos_site_id
 _symmetry_equiv_pos_as_xyz
  1  'x, y, z'
loop_
 _atom_site_type_symbol
 _atom_site_label
 _atom_site_symmetry_multiplicity
 _atom_site_fract_x
 _atom_site_fract_y
 _atom_site_fract_z
 _atom_site_occupancy
  Y  Y0  1  0.250000  0.513087  0.175679  1
  Y  Y1  1  0.750000  0.486913  0.824321  1
  Y  Y2  1  0.750000  0.982877  0.677954  1
  Y  Y3  1  0.250000  0.017123  0.322046  1
  Zr  Zr4  1  0.250000  0.643094  0.576473  1
  Zr  Zr5  1  0.750000  0.356906  0.423527  1
  Zr  Zr6  1  0.750000  0.856855  0.074735  1
  Zr  Zr7  1  0.250000  0.143145  0.925265  1
  Ir  Ir8  1  0.250000  0.769022  0.907568  1
  Ir  Ir9  1  0.750000  0.230978  0.092432  1
  Rh  Rh10  1  0.750000  0.729297  0.410361  1
  Rh  Rh11  1  0.250000  0.270703  0.589639  1
