# generated using pymatgen
data_Tm4Al3Tc3Mo2
_symmetry_space_group_name_H-M   'P 1'
_cell_length_a   5.52728061
_cell_length_b   5.40468306
_cell_length_c   8.74185000
_cell_angle_alpha   90.00000000
_cell_angle_beta   90.00000000
_cell_angle_gamma   119.26896449
_symmetry_Int_Tables_number   1
_chemical_formula_structural   Tm4Al3Tc3Mo2
_chemical_formula_sum   'Tm4 Al3 Tc3 Mo2'
_cell_volume   227.80749505
_cell_formula_units_Z   1
loop_
 _symmetry_equiv_pos_site_id
 _symmetry_equiv_pos_as_xyz
  1  'x, y, z'
loop_
 _atom_site_type_symbol
 _atom_site_label
 _atom_site_symmetry_multiplicity
 _atom_site_fract_x
 _atom_site_fract_y
 _atom_site_fract_z
 _atom_site_occupancy
  Tm  Tm0  1  0.327676  0.663838  0.438678  1
  Tm  Tm1  1  0.671045  0.335523  0.559619  1
  Tm  Tm2  1  0.671045  0.335523  0.940381  1
  Tm  Tm3  1  0.327676  0.663838  0.061322  1
  Al  Al4  1  0.334753  0.167376  0.250000  1
  Al  Al5  1  0.187046  0.844500  0.750000  1
  Al  Al6  1  0.187046  0.342546  0.750000  1
  Tc  Tc7  1  0.970263  0.985131  0.503348  1
  Tc  Tc8  1  0.970263  0.985131  0.996652  1
  Tc  Tc9  1  0.683460  0.841731  0.750000  1
  Mo  Mo10  1  0.834863  0.170700  0.250000  1
  Mo  Mo11  1  0.834863  0.664164  0.250000  1
