# generated using pymatgen
data_Tm6Al24Ru7Pt
_symmetry_space_group_name_H-M   'P 1'
_cell_length_a   8.76298859
_cell_length_b   8.76298785
_cell_length_c   9.55308560
_cell_angle_alpha   89.87451582
_cell_angle_beta   90.12548616
_cell_angle_gamma   119.88639346
_symmetry_Int_Tables_number   1
_chemical_formula_structural   Tm6Al24Ru7Pt
_chemical_formula_sum   'Tm6 Al24 Ru7 Pt1'
_cell_volume   636.02384619
_cell_formula_units_Z   1
loop_
 _symmetry_equiv_pos_site_id
 _symmetry_equiv_pos_as_xyz
  1  'x, y, z'
loop_
 _atom_site_type_symbol
 _atom_site_label
 _atom_site_symmetry_multiplicity
 _atom_site_fract_x
 _atom_site_fract_y
 _atom_site_fract_z
 _atom_site_occupancy
  Tm  Tm0  1  0.805468  0.194532  0.748325  1
  Tm  Tm1  1  0.194532  0.805468  0.251675  1
  Tm  Tm2  1  0.387071  0.191420  0.748943  1
  Tm  Tm3  1  0.612929  0.808580  0.251057  1
  Tm  Tm4  1  0.808580  0.612929  0.748943  1
  Tm  Tm5  1  0.191420  0.387071  0.251057  1
  Al  Al6  1  0.669287  0.330713  0.978290  1
  Al  Al7  1  0.330713  0.669287  0.021710  1
  Al  Al8  1  0.333488  0.666512  0.479181  1
  Al  Al9  1  0.666512  0.333488  0.520819  1
  Al  Al10  1  0.836842  0.163158  0.422277  1
  Al  Al11  1  0.163158  0.836842  0.577723  1
  Al  Al12  1  0.325417  0.163368  0.422268  1
  Al  Al13  1  0.162635  0.837365  0.921163  1
  Al  Al14  1  0.674583  0.836632  0.577732  1
  Al  Al15  1  0.837365  0.162635  0.078837  1
  Al  Al16  1  0.836632  0.674583  0.422268  1
  Al  Al17  1  0.675951  0.842180  0.920917  1
  Al  Al18  1  0.163368  0.325417  0.577732  1
  Al  Al19  1  0.324049  0.157820  0.079083  1
  Al  Al20  1  0.157820  0.324049  0.920917  1
  Al  Al21  1  0.842180  0.675951  0.079083  1
  Al  Al22  1  0.437624  0.562376  0.746774  1
  Al  Al23  1  0.562376  0.437624  0.253226  1
  Al  Al24  1  0.122819  0.560951  0.750260  1
  Al  Al25  1  0.877181  0.439049  0.249740  1
  Al  Al26  1  0.439049  0.877181  0.750260  1
  Al  Al27  1  0.560951  0.122819  0.249740  1
  Al  Al28  1  0.000362  0.999638  0.749828  1
  Al  Al29  1  0.999638  0.000362  0.250172  1
  Ru  Ru30  1  0.000000  0.500000  0.000000  1
  Ru  Ru31  1  0.500000  0.500000  0.500000  1
  Ru  Ru32  1  0.500000  0.000000  0.000000  1
  Ru  Ru33  1  0.000000  0.500000  0.500000  1
  Ru  Ru34  1  0.500000  0.000000  0.500000  1
  Ru  Ru35  1  0.000000  0.000000  0.000000  1
  Ru  Ru36  1  0.000000  0.000000  0.500000  1
  Pt  Pt37  1  0.500000  0.500000  0.000000  1
