# generated using pymatgen
data_YbGa4(Fe3Ge)2
_symmetry_space_group_name_H-M   'P 1'
_cell_length_a   5.01171979
_cell_length_b   6.53121699
_cell_length_c   6.53121695
_cell_angle_alpha   79.92821839
_cell_angle_beta   67.43853675
_cell_angle_gamma   67.43854574
_symmetry_Int_Tables_number   1
_chemical_formula_structural   YbGa4(Fe3Ge)2
_chemical_formula_sum   'Yb1 Ga4 Fe6 Ge2'
_cell_volume   182.21761801
_cell_formula_units_Z   1
loop_
 _symmetry_equiv_pos_site_id
 _symmetry_equiv_pos_as_xyz
  1  'x, y, z'
loop_
 _atom_site_type_symbol
 _atom_site_label
 _atom_site_symmetry_multiplicity
 _atom_site_fract_x
 _atom_site_fract_y
 _atom_site_fract_z
 _atom_site_occupancy
  Yb  Yb0  1  0.000000  0.000000  0.000000  1
  Ga  Ga1  1  0.337883  0.662117  0.662117  1
  Ga  Ga2  1  0.662117  0.337883  0.337883  1
  Ga  Ga3  1  0.327667  0.172333  0.172333  1
  Ga  Ga4  1  0.672333  0.827667  0.827667  1
  Fe  Fe5  1  0.500000  0.248758  0.751242  1
  Fe  Fe6  1  0.500000  0.751242  0.248758  1
  Fe  Fe7  1  0.000000  0.500000  0.000000  1
  Fe  Fe8  1  0.500000  0.500000  0.000000  1
  Fe  Fe9  1  0.000000  0.000000  0.500000  1
  Fe  Fe10  1  0.500000  0.000000  0.500000  1
  Ge  Ge11  1  0.000000  0.657003  0.342997  1
  Ge  Ge12  1  0.000000  0.342997  0.657003  1
