# generated using pymatgen
data_Ta6Tc5B6Os
_symmetry_space_group_name_H-M   'P 1'
_cell_length_a   3.16402200
_cell_length_b   9.06536442
_cell_length_c   15.72913016
_cell_angle_alpha   89.89166943
_cell_angle_beta   90.00000000
_cell_angle_gamma   90.00000000
_symmetry_Int_Tables_number   1
_chemical_formula_structural   Ta6Tc5B6Os
_chemical_formula_sum   'Ta12 Tc10 B12 Os2'
_cell_volume   451.15803012
_cell_formula_units_Z   2
loop_
 _symmetry_equiv_pos_site_id
 _symmetry_equiv_pos_as_xyz
  1  'x, y, z'
loop_
 _atom_site_type_symbol
 _atom_site_label
 _atom_site_symmetry_multiplicity
 _atom_site_fract_x
 _atom_site_fract_y
 _atom_site_fract_z
 _atom_site_occupancy
  Ta  Ta0  1  0.000000  0.805155  0.493937  1
  Ta  Ta1  1  0.000000  0.194845  0.506063  1
  Ta  Ta2  1  0.000000  0.305116  0.006507  1
  Ta  Ta3  1  0.000000  0.694884  0.993493  1
  Ta  Ta4  1  0.000000  0.516033  0.595435  1
  Ta  Ta5  1  0.000000  0.483967  0.404565  1
  Ta  Ta6  1  0.000000  0.016233  0.904882  1
  Ta  Ta7  1  0.000000  0.983767  0.095118  1
  Ta  Ta8  1  0.000000  0.678708  0.206718  1
  Ta  Ta9  1  0.000000  0.321292  0.793282  1
  Ta  Ta10  1  0.000000  0.182479  0.293232  1
  Ta  Ta11  1  0.000000  0.817521  0.706768  1
  Tc  Tc12  1  0.500000  0.717988  0.358271  1
  Tc  Tc13  1  0.500000  0.282012  0.641729  1
  Tc  Tc14  1  0.500000  0.216288  0.141934  1
  Tc  Tc15  1  0.500000  0.783712  0.858066  1
  Tc  Tc16  1  0.500000  0.518405  0.094846  1
  Tc  Tc17  1  0.500000  0.481595  0.905154  1
  Tc  Tc18  1  0.500000  0.018410  0.404762  1
  Tc  Tc19  1  0.500000  0.981590  0.595238  1
  Tc  Tc20  1  0.500000  0.567651  0.732551  1
  Tc  Tc21  1  0.500000  0.432349  0.267449  1
  B  B22  1  0.500000  0.604283  0.494042  1
  B  B23  1  0.500000  0.395717  0.505958  1
  B  B24  1  0.500000  0.104421  0.005455  1
  B  B25  1  0.500000  0.895579  0.994545  1
  B  B26  1  0.000000  0.609887  0.832640  1
  B  B27  1  0.000000  0.390113  0.167360  1
  B  B28  1  0.000000  0.109683  0.666116  1
  B  B29  1  0.000000  0.890317  0.333884  1
  B  B30  1  0.500000  0.716961  0.603038  1
  B  B31  1  0.500000  0.283039  0.396962  1
  B  B32  1  0.500000  0.217927  0.897613  1
  B  B33  1  0.500000  0.782073  0.102387  1
  Os  Os34  1  0.500000  0.068592  0.767340  1
  Os  Os35  1  0.500000  0.931408  0.232660  1
