# generated using pymatgen
data_Nd2DyCu5(Ni4B)2
_symmetry_space_group_name_H-M   'P 1'
_cell_length_a   5.06911201
_cell_length_b   5.06911272
_cell_length_c   10.91034400
_cell_angle_alpha   90.00000000
_cell_angle_beta   90.00000000
_cell_angle_gamma   119.89670921
_symmetry_Int_Tables_number   1
_chemical_formula_structural   Nd2DyCu5(Ni4B)2
_chemical_formula_sum   'Nd2 Dy1 Cu5 Ni8 B2'
_cell_volume   243.04349227
_cell_formula_units_Z   1
loop_
 _symmetry_equiv_pos_site_id
 _symmetry_equiv_pos_as_xyz
  1  'x, y, z'
loop_
 _atom_site_type_symbol
 _atom_site_label
 _atom_site_symmetry_multiplicity
 _atom_site_fract_x
 _atom_site_fract_y
 _atom_site_fract_z
 _atom_site_occupancy
  Nd  Nd0  1  0.000000  0.000000  0.673567  1
  Nd  Nd1  1  0.000000  0.000000  0.326433  1
  Dy  Dy2  1  0.000000  0.000000  0.000000  1
  Cu  Cu3  1  0.500000  0.500000  0.500000  1
  Cu  Cu4  1  0.331772  0.668228  0.315978  1
  Cu  Cu5  1  0.668228  0.331772  0.315978  1
  Cu  Cu6  1  0.668228  0.331772  0.684022  1
  Cu  Cu7  1  0.331772  0.668228  0.684022  1
  Ni  Ni8  1  0.000000  0.500000  0.871900  1
  Ni  Ni9  1  0.500000  0.000000  0.500000  1
  Ni  Ni10  1  0.000000  0.500000  0.500000  1
  Ni  Ni11  1  0.500000  0.000000  0.128100  1
  Ni  Ni12  1  0.500000  0.500000  0.128313  1
  Ni  Ni13  1  0.000000  0.500000  0.128100  1
  Ni  Ni14  1  0.500000  0.000000  0.871900  1
  Ni  Ni15  1  0.500000  0.500000  0.871687  1
  B  B16  1  0.666370  0.333630  0.000000  1
  B  B17  1  0.333630  0.666370  0.000000  1
