# generated using pymatgen
data_Er7ZrAlPd24
_symmetry_space_group_name_H-M   'P 1'
_cell_length_a   8.29472326
_cell_length_b   8.29472350
_cell_length_c   8.29472401
_cell_angle_alpha   89.84372105
_cell_angle_beta   90.15628212
_cell_angle_gamma   90.15627175
_symmetry_Int_Tables_number   1
_chemical_formula_structural   Er7ZrAlPd24
_chemical_formula_sum   'Er7 Zr1 Al1 Pd24'
_cell_volume   570.69086089
_cell_formula_units_Z   1
loop_
 _symmetry_equiv_pos_site_id
 _symmetry_equiv_pos_as_xyz
  1  'x, y, z'
loop_
 _atom_site_type_symbol
 _atom_site_label
 _atom_site_symmetry_multiplicity
 _atom_site_fract_x
 _atom_site_fract_y
 _atom_site_fract_z
 _atom_site_occupancy
  Er  Er0  1  0.251831  0.252132  0.252132  1
  Er  Er1  1  0.747926  0.747998  0.747998  1
  Er  Er2  1  0.747868  0.748169  0.252132  1
  Er  Er3  1  0.747868  0.252132  0.748169  1
  Er  Er4  1  0.252002  0.252074  0.747998  1
  Er  Er5  1  0.252002  0.747998  0.252074  1
  Er  Er6  1  0.252341  0.747659  0.747659  1
  Zr  Zr7  1  0.745631  0.254369  0.254369  1
  Al  Al8  1  0.000797  0.999203  0.999203  1
  Pd  Pd9  1  0.259441  0.499127  0.000349  1
  Pd  Pd10  1  0.740733  0.497329  0.003954  1
  Pd  Pd11  1  0.996046  0.259267  0.497329  1
  Pd  Pd12  1  0.502671  0.259267  0.003954  1
  Pd  Pd13  1  0.999651  0.740559  0.499127  1
  Pd  Pd14  1  0.500873  0.740559  0.000349  1
  Pd  Pd15  1  0.502671  0.003954  0.259267  1
  Pd  Pd16  1  0.259441  0.000349  0.499127  1
  Pd  Pd17  1  0.500873  0.000349  0.740559  1
  Pd  Pd18  1  0.740733  0.003954  0.497329  1
  Pd  Pd19  1  0.996046  0.497329  0.259267  1
  Pd  Pd20  1  0.999651  0.499127  0.740559  1
  Pd  Pd21  1  0.252686  0.499335  0.499335  1
  Pd  Pd22  1  0.747040  0.497062  0.497062  1
  Pd  Pd23  1  0.502938  0.252960  0.497062  1
  Pd  Pd24  1  0.500665  0.747314  0.499335  1
  Pd  Pd25  1  0.502938  0.497062  0.252960  1
  Pd  Pd26  1  0.500665  0.499335  0.747314  1
  Pd  Pd27  1  0.288679  0.000038  0.000038  1
  Pd  Pd28  1  0.712732  0.002681  0.002681  1
  Pd  Pd29  1  0.997319  0.287268  0.002681  1
  Pd  Pd30  1  0.999962  0.711321  0.000038  1
  Pd  Pd31  1  0.997319  0.002681  0.287268  1
  Pd  Pd32  1  0.999962  0.000038  0.711321  1
