# generated using pymatgen
data_TiVCu6SeS7
_symmetry_space_group_name_H-M   'P 1'
_cell_length_a   7.76867600
_cell_length_b   7.72505549
_cell_length_c   5.47796207
_cell_angle_alpha   90.48554316
_cell_angle_beta   90.00000000
_cell_angle_gamma   90.00000000
_symmetry_Int_Tables_number   1
_chemical_formula_structural   TiVCu6SeS7
_chemical_formula_sum   'Ti1 V1 Cu6 Se1 S7'
_cell_volume   328.73961593
_cell_formula_units_Z   1
loop_
 _symmetry_equiv_pos_site_id
 _symmetry_equiv_pos_as_xyz
  1  'x, y, z'
loop_
 _atom_site_type_symbol
 _atom_site_label
 _atom_site_symmetry_multiplicity
 _atom_site_fract_x
 _atom_site_fract_y
 _atom_site_fract_z
 _atom_site_occupancy
  Ti  Ti0  1  0.000000  0.000130  0.998482  1
  V  V1  1  0.500000  0.499230  0.000988  1
  Cu  Cu2  1  0.257646  0.749904  0.008483  1
  Cu  Cu3  1  0.747553  0.252143  0.998787  1
  Cu  Cu4  1  0.252447  0.252143  0.998787  1
  Cu  Cu5  1  0.742354  0.749904  0.008483  1
  Cu  Cu6  1  0.000000  0.008345  0.496006  1
  Cu  Cu7  1  0.500000  0.498644  0.500867  1
  Se  Se8  1  0.000000  0.743295  0.743202  1
  S  S9  1  0.500000  0.265694  0.765448  1
  S  S10  1  0.500000  0.732214  0.769223  1
  S  S11  1  0.000000  0.241805  0.762971  1
  S  S12  1  0.760515  0.003134  0.239032  1
  S  S13  1  0.268358  0.500140  0.235105  1
  S  S14  1  0.239485  0.003134  0.239032  1
  S  S15  1  0.731642  0.500140  0.235105  1
