# generated using pymatgen
data_Ca2La4NdRh3
_symmetry_space_group_name_H-M   'P 1'
_cell_length_a   6.57964519
_cell_length_b   10.15050659
_cell_length_c   10.15050713
_cell_angle_alpha   119.39336265
_cell_angle_beta   90.02685174
_cell_angle_gamma   89.97315191
_symmetry_Int_Tables_number   1
_chemical_formula_structural   Ca2La4NdRh3
_chemical_formula_sum   'Ca4 La8 Nd2 Rh6'
_cell_volume   590.65102853
_cell_formula_units_Z   2
loop_
 _symmetry_equiv_pos_site_id
 _symmetry_equiv_pos_as_xyz
  1  'x, y, z'
loop_
 _atom_site_type_symbol
 _atom_site_label
 _atom_site_symmetry_multiplicity
 _atom_site_fract_x
 _atom_site_fract_y
 _atom_site_fract_z
 _atom_site_occupancy
  Ca  Ca0  1  0.448490  0.541950  0.458050  1
  Ca  Ca1  1  0.445095  0.915480  0.457369  1
  Ca  Ca2  1  0.445095  0.542631  0.084520  1
  Ca  Ca3  1  0.947180  0.458491  0.541509  1
  La  La4  1  0.479441  0.332485  0.667515  1
  La  La5  1  0.990778  0.666882  0.333118  1
  La  La6  1  0.245915  0.124960  0.875040  1
  La  La7  1  0.252070  0.753289  0.876787  1
  La  La8  1  0.252070  0.123213  0.246711  1
  La  La9  1  0.751653  0.874753  0.125247  1
  La  La10  1  0.754008  0.247901  0.123848  1
  La  La11  1  0.754008  0.876152  0.752099  1
  Nd  Nd12  1  0.939558  0.082258  0.540477  1
  Nd  Nd13  1  0.939558  0.459523  0.917742  1
  Rh  Rh14  1  0.164166  0.815392  0.184608  1
  Rh  Rh15  1  0.166570  0.368508  0.182894  1
  Rh  Rh16  1  0.166570  0.817106  0.631492  1
  Rh  Rh17  1  0.691121  0.187999  0.812001  1
  Rh  Rh18  1  0.676326  0.627688  0.816661  1
  Rh  Rh19  1  0.676326  0.183339  0.372312  1
