# generated using pymatgen
data_Dy2Si(Ni2P)6
_symmetry_space_group_name_H-M   'P 1'
_cell_length_a   9.04313123
_cell_length_b   9.03591943
_cell_length_c   3.69121100
_cell_angle_alpha   90.00000000
_cell_angle_beta   90.00000000
_cell_angle_gamma   119.92544089
_symmetry_Int_Tables_number   1
_chemical_formula_structural   Dy2Si(Ni2P)6
_chemical_formula_sum   'Dy2 Si1 Ni12 P6'
_cell_volume   261.40656139
_cell_formula_units_Z   1
loop_
 _symmetry_equiv_pos_site_id
 _symmetry_equiv_pos_as_xyz
  1  'x, y, z'
loop_
 _atom_site_type_symbol
 _atom_site_label
 _atom_site_symmetry_multiplicity
 _atom_site_fract_x
 _atom_site_fract_y
 _atom_site_fract_z
 _atom_site_occupancy
  Dy  Dy0  1  0.333970  0.666980  0.000000  1
  Dy  Dy1  1  0.666399  0.333646  0.500000  1
  Si  Si2  1  0.999844  0.000268  0.000000  1
  Ni  Ni3  1  0.434229  0.061041  0.000000  1
  Ni  Ni4  1  0.157061  0.282700  0.000000  1
  Ni  Ni5  1  0.938152  0.372597  0.000000  1
  Ni  Ni6  1  0.626460  0.565372  0.000000  1
  Ni  Ni7  1  0.125505  0.843233  0.000000  1
  Ni  Ni8  1  0.717659  0.874195  0.000000  1
  Ni  Ni9  1  0.210161  0.090857  0.500000  1
  Ni  Ni10  1  0.909537  0.120652  0.500000  1
  Ni  Ni11  1  0.381819  0.430230  0.500000  1
  Ni  Ni12  1  0.048501  0.617761  0.500000  1
  Ni  Ni13  1  0.879817  0.788024  0.500000  1
  Ni  Ni14  1  0.570434  0.952312  0.500000  1
  P  P15  1  0.706126  0.112531  0.000000  1
  P  P16  1  0.406352  0.293726  0.000000  1
  P  P17  1  0.887364  0.593830  0.000000  1
  P  P18  1  0.109683  0.404002  0.500000  1
  P  P19  1  0.596388  0.705253  0.500000  1
  P  P20  1  0.294537  0.890789  0.500000  1
