# generated using pymatgen
data_Sr4Ca4Si3Pb
_symmetry_space_group_name_H-M   'P 1'
_cell_length_a   5.01104200
_cell_length_b   8.22557965
_cell_length_c   9.33794156
_cell_angle_alpha   89.34495499
_cell_angle_beta   90.00000000
_cell_angle_gamma   90.00000000
_symmetry_Int_Tables_number   1
_chemical_formula_structural   Sr4Ca4Si3Pb
_chemical_formula_sum   'Sr4 Ca4 Si3 Pb1'
_cell_volume   384.87289194
_cell_formula_units_Z   1
loop_
 _symmetry_equiv_pos_site_id
 _symmetry_equiv_pos_as_xyz
  1  'x, y, z'
loop_
 _atom_site_type_symbol
 _atom_site_label
 _atom_site_symmetry_multiplicity
 _atom_site_fract_x
 _atom_site_fract_y
 _atom_site_fract_z
 _atom_site_occupancy
  Sr  Sr0  1  0.750000  0.978730  0.673499  1
  Sr  Sr1  1  0.250000  0.024306  0.323597  1
  Sr  Sr2  1  0.750000  0.471601  0.818010  1
  Sr  Sr3  1  0.250000  0.516576  0.184234  1
  Ca  Ca4  1  0.750000  0.859066  0.083582  1
  Ca  Ca5  1  0.250000  0.159067  0.930569  1
  Ca  Ca6  1  0.750000  0.352347  0.428359  1
  Ca  Ca7  1  0.250000  0.642502  0.561249  1
  Si  Si8  1  0.750000  0.730819  0.393105  1
  Si  Si9  1  0.250000  0.266797  0.604158  1
  Si  Si10  1  0.750000  0.234165  0.111148  1
  Pb  Pb11  1  0.250000  0.764024  0.888490  1
