# generated using pymatgen
data_Er3Lu3TcOs
_symmetry_space_group_name_H-M   'P 1'
_cell_length_a   7.36878500
_cell_length_b   8.89784275
_cell_length_c   6.19032459
_cell_angle_alpha   90.20154216
_cell_angle_beta   90.00000000
_cell_angle_gamma   90.00000000
_symmetry_Int_Tables_number   1
_chemical_formula_structural   Er3Lu3TcOs
_chemical_formula_sum   'Er6 Lu6 Tc2 Os2'
_cell_volume   405.87410693
_cell_formula_units_Z   2
loop_
 _symmetry_equiv_pos_site_id
 _symmetry_equiv_pos_as_xyz
  1  'x, y, z'
loop_
 _atom_site_type_symbol
 _atom_site_label
 _atom_site_symmetry_multiplicity
 _atom_site_fract_x
 _atom_site_fract_y
 _atom_site_fract_z
 _atom_site_occupancy
  Er  Er0  1  0.675543  0.061545  0.339101  1
  Er  Er1  1  0.175543  0.438455  0.160899  1
  Er  Er2  1  0.538428  0.250207  0.876288  1
  Er  Er3  1  0.038428  0.249793  0.623712  1
  Er  Er4  1  0.460202  0.749918  0.127223  1
  Er  Er5  1  0.960202  0.750082  0.372777  1
  Lu  Lu6  1  0.325273  0.562744  0.662820  1
  Lu  Lu7  1  0.825273  0.937256  0.837180  1
  Lu  Lu8  1  0.324725  0.937102  0.662843  1
  Lu  Lu9  1  0.824725  0.562898  0.837157  1
  Lu  Lu10  1  0.674782  0.439393  0.339566  1
  Lu  Lu11  1  0.174782  0.060607  0.160434  1
  Tc  Tc12  1  0.882579  0.250458  0.039085  1
  Tc  Tc13  1  0.382579  0.249542  0.460915  1
  Os  Os14  1  0.118467  0.751837  0.957237  1
  Os  Os15  1  0.618467  0.748163  0.542763  1
