# generated using pymatgen
data_Er(Ni2B)6
_symmetry_space_group_name_H-M   'P 1'
_cell_length_a   5.99183324
_cell_length_b   5.99183367
_cell_length_c   5.99183283
_cell_angle_alpha   104.45118439
_cell_angle_beta   104.45118477
_cell_angle_gamma   104.45119887
_symmetry_Int_Tables_number   1
_chemical_formula_structural   Er(Ni2B)6
_chemical_formula_sum   'Er1 Ni12 B6'
_cell_volume   190.24166515
_cell_formula_units_Z   1
loop_
 _symmetry_equiv_pos_site_id
 _symmetry_equiv_pos_as_xyz
  1  'x, y, z'
loop_
 _atom_site_type_symbol
 _atom_site_label
 _atom_site_symmetry_multiplicity
 _atom_site_fract_x
 _atom_site_fract_y
 _atom_site_fract_z
 _atom_site_occupancy
  Er  Er0  1  0.000000  0.000000  0.000000  1
  Ni  Ni1  1  0.129374  0.870626  0.500000  1
  Ni  Ni2  1  0.500000  0.129374  0.870626  1
  Ni  Ni3  1  0.870626  0.500000  0.129374  1
  Ni  Ni4  1  0.500000  0.870626  0.129374  1
  Ni  Ni5  1  0.129374  0.500000  0.870626  1
  Ni  Ni6  1  0.870626  0.129374  0.500000  1
  Ni  Ni7  1  0.547964  0.814169  0.547964  1
  Ni  Ni8  1  0.547964  0.547964  0.814169  1
  Ni  Ni9  1  0.814169  0.547964  0.547964  1
  Ni  Ni10  1  0.452036  0.185831  0.452036  1
  Ni  Ni11  1  0.452036  0.452036  0.185831  1
  Ni  Ni12  1  0.185831  0.452036  0.452036  1
  B  B13  1  0.762687  0.325313  0.762687  1
  B  B14  1  0.762687  0.762687  0.325313  1
  B  B15  1  0.325313  0.762687  0.762687  1
  B  B16  1  0.237313  0.674687  0.237313  1
  B  B17  1  0.237313  0.237313  0.674687  1
  B  B18  1  0.674687  0.237313  0.237313  1
