# generated using pymatgen
data_Ho5TiCo5
_symmetry_space_group_name_H-M   'P 1'
_cell_length_a   5.66419602
_cell_length_b   5.66419567
_cell_length_c   20.69475600
_cell_angle_alpha   90.00000000
_cell_angle_beta   90.00000000
_cell_angle_gamma   140.03365669
_symmetry_Int_Tables_number   1
_chemical_formula_structural   Ho5TiCo5
_chemical_formula_sum   'Ho10 Ti2 Co10'
_cell_volume   426.48142046
_cell_formula_units_Z   2
loop_
 _symmetry_equiv_pos_site_id
 _symmetry_equiv_pos_as_xyz
  1  'x, y, z'
loop_
 _atom_site_type_symbol
 _atom_site_label
 _atom_site_symmetry_multiplicity
 _atom_site_fract_x
 _atom_site_fract_y
 _atom_site_fract_z
 _atom_site_occupancy
  Ho  Ho0  1  0.283401  0.716599  0.250000  1
  Ho  Ho1  1  0.289126  0.710874  0.067902  1
  Ho  Ho2  1  0.996985  0.003015  0.840089  1
  Ho  Ho3  1  0.716599  0.283401  0.750000  1
  Ho  Ho4  1  0.710874  0.289126  0.567902  1
  Ho  Ho5  1  0.003015  0.996985  0.340089  1
  Ho  Ho6  1  0.996985  0.003015  0.659911  1
  Ho  Ho7  1  0.710874  0.289126  0.932098  1
  Ho  Ho8  1  0.003015  0.996985  0.159911  1
  Ho  Ho9  1  0.289126  0.710874  0.432098  1
  Ti  Ti10  1  0.000000  0.000000  0.500000  1
  Ti  Ti11  1  0.000000  0.000000  0.000000  1
  Co  Co12  1  0.299537  0.700463  0.653314  1
  Co  Co13  1  0.575488  0.424512  0.441051  1
  Co  Co14  1  0.414108  0.585892  0.750000  1
  Co  Co15  1  0.424512  0.575488  0.941051  1
  Co  Co16  1  0.585892  0.414108  0.250000  1
  Co  Co17  1  0.424512  0.575488  0.558949  1
  Co  Co18  1  0.700463  0.299537  0.346686  1
  Co  Co19  1  0.700463  0.299537  0.153314  1
  Co  Co20  1  0.575488  0.424512  0.058949  1
  Co  Co21  1  0.299537  0.700463  0.846686  1
