# generated using pymatgen
data_Ce4Sn2Rh3Au
_symmetry_space_group_name_H-M   'P 1'
_cell_length_a   7.75493290
_cell_length_b   7.75493201
_cell_length_c   3.79022000
_cell_angle_alpha   90.00000000
_cell_angle_beta   90.00000000
_cell_angle_gamma   90.30671907
_symmetry_Int_Tables_number   1
_chemical_formula_structural   Ce4Sn2Rh3Au
_chemical_formula_sum   'Ce4 Sn2 Rh3 Au1'
_cell_volume   227.93668875
_cell_formula_units_Z   1
loop_
 _symmetry_equiv_pos_site_id
 _symmetry_equiv_pos_as_xyz
  1  'x, y, z'
loop_
 _atom_site_type_symbol
 _atom_site_label
 _atom_site_symmetry_multiplicity
 _atom_site_fract_x
 _atom_site_fract_y
 _atom_site_fract_z
 _atom_site_occupancy
  Ce  Ce0  1  0.688002  0.174176  0.500000  1
  Ce  Ce1  1  0.325824  0.811998  0.500000  1
  Ce  Ce2  1  0.158914  0.341086  0.500000  1
  Ce  Ce3  1  0.820768  0.679232  0.500000  1
  Sn  Sn4  1  0.995331  0.997372  0.000000  1
  Sn  Sn5  1  0.502628  0.504669  0.000000  1
  Rh  Rh6  1  0.133968  0.634801  0.000000  1
  Rh  Rh7  1  0.865199  0.366032  0.000000  1
  Rh  Rh8  1  0.635115  0.864885  0.000000  1
  Au  Au9  1  0.374252  0.125748  0.000000  1
