# generated using pymatgen
data_Li4Y3ThSi8
_symmetry_space_group_name_H-M   'P 1'
_cell_length_a   3.80150500
_cell_length_b   7.67823875
_cell_length_c   10.29680321
_cell_angle_alpha   89.88465146
_cell_angle_beta   90.00000000
_cell_angle_gamma   90.00000000
_symmetry_Int_Tables_number   1
_chemical_formula_structural   Li4Y3ThSi8
_chemical_formula_sum   'Li4 Y3 Th1 Si8'
_cell_volume   300.55136925
_cell_formula_units_Z   1
loop_
 _symmetry_equiv_pos_site_id
 _symmetry_equiv_pos_as_xyz
  1  'x, y, z'
loop_
 _atom_site_type_symbol
 _atom_site_label
 _atom_site_symmetry_multiplicity
 _atom_site_fract_x
 _atom_site_fract_y
 _atom_site_fract_z
 _atom_site_occupancy
  Li  Li0  1  0.250000  0.988713  0.392582  1
  Li  Li1  1  0.750000  0.010171  0.608971  1
  Li  Li2  1  0.250000  0.490780  0.105432  1
  Li  Li3  1  0.750000  0.509185  0.892276  1
  Y  Y4  1  0.250000  0.138576  0.862691  1
  Y  Y5  1  0.750000  0.863183  0.136021  1
  Y  Y6  1  0.250000  0.637976  0.636623  1
  Th  Th7  1  0.750000  0.357338  0.362239  1
  Si  Si8  1  0.750000  0.264173  0.065480  1
  Si  Si9  1  0.250000  0.732207  0.932033  1
  Si  Si10  1  0.750000  0.771341  0.432530  1
  Si  Si11  1  0.250000  0.233700  0.571196  1
  Si  Si12  1  0.750000  0.844667  0.821080  1
  Si  Si13  1  0.250000  0.154514  0.178306  1
  Si  Si14  1  0.750000  0.343176  0.683646  1
  Si  Si15  1  0.250000  0.660298  0.318893  1
