# generated using pymatgen
data_DyHo8Lu11Pb16
_symmetry_space_group_name_H-M   'P 1'
_cell_length_a   8.11992207
_cell_length_b   8.18760782
_cell_length_c   15.44099007
_cell_angle_alpha   90.01035133
_cell_angle_beta   89.99788071
_cell_angle_gamma   90.08527381
_symmetry_Int_Tables_number   1
_chemical_formula_structural   DyHo8Lu11Pb16
_chemical_formula_sum   'Dy1 Ho8 Lu11 Pb16'
_cell_volume   1026.55813373
_cell_formula_units_Z   1
loop_
 _symmetry_equiv_pos_site_id
 _symmetry_equiv_pos_as_xyz
  1  'x, y, z'
loop_
 _atom_site_type_symbol
 _atom_site_label
 _atom_site_symmetry_multiplicity
 _atom_site_fract_x
 _atom_site_fract_y
 _atom_site_fract_z
 _atom_site_occupancy
  Dy  Dy0  1  0.036978  0.176599  0.900437  1
  Ho  Ho1  1  0.876490  0.659100  0.878962  1
  Ho  Ho2  1  0.536853  0.322818  0.900570  1
  Ho  Ho3  1  0.037186  0.176829  0.599282  1
  Ho  Ho4  1  0.462996  0.676917  0.400440  1
  Ho  Ho5  1  0.962957  0.823579  0.100139  1
  Ho  Ho6  1  0.463367  0.676653  0.099586  1
  Ho  Ho7  1  0.962897  0.823179  0.400426  1
  Ho  Ho8  1  0.536862  0.322964  0.599405  1
  Lu  Lu9  1  0.376045  0.841199  0.878375  1
  Lu  Lu10  1  0.876072  0.658383  0.621376  1
  Lu  Lu11  1  0.623995  0.158363  0.378485  1
  Lu  Lu12  1  0.123804  0.341748  0.121456  1
  Lu  Lu13  1  0.623575  0.158378  0.122045  1
  Lu  Lu14  1  0.123864  0.341376  0.378467  1
  Lu  Lu15  1  0.376412  0.841605  0.621195  1
  Lu  Lu16  1  0.207952  0.505083  0.749671  1
  Lu  Lu17  1  0.707223  0.994959  0.749626  1
  Lu  Lu18  1  0.792367  0.494504  0.250244  1
  Lu  Lu19  1  0.292324  0.005146  0.249985  1
  Pb  Pb20  1  0.282924  0.034255  0.042992  1
  Pb  Pb21  1  0.782949  0.465692  0.457072  1
  Pb  Pb22  1  0.717087  0.965704  0.542776  1
  Pb  Pb23  1  0.219347  0.533604  0.957441  1
  Pb  Pb24  1  0.715809  0.967949  0.957461  1
  Pb  Pb25  1  0.216958  0.534309  0.542784  1
  Pb  Pb26  1  0.282853  0.034391  0.457004  1
  Pb  Pb27  1  0.782347  0.464646  0.044083  1
  Pb  Pb28  1  0.569426  0.628050  0.749451  1
  Pb  Pb29  1  0.071202  0.873095  0.749151  1
  Pb  Pb30  1  0.429481  0.371882  0.250098  1
  Pb  Pb31  1  0.929890  0.128179  0.250031  1
  Pb  Pb32  1  0.347769  0.153454  0.749946  1
  Pb  Pb33  1  0.847550  0.345405  0.749494  1
  Pb  Pb34  1  0.652075  0.846248  0.250007  1
  Pb  Pb35  1  0.152113  0.653759  0.250034  1
