# generated using pymatgen
data_Ga2(SeO4)3
_symmetry_space_group_name_H-M   'P 1'
_cell_length_a   9.12730465
_cell_length_b   9.12730454
_cell_length_c   9.12730498
_cell_angle_alpha   56.01321561
_cell_angle_beta   56.01322408
_cell_angle_gamma   56.01321960
_symmetry_Int_Tables_number   1
_chemical_formula_structural   Ga2(SeO4)3
_chemical_formula_sum   'Ga4 Se6 O24'
_cell_volume   488.00915049
_cell_formula_units_Z   2
loop_
 _symmetry_equiv_pos_site_id
 _symmetry_equiv_pos_as_xyz
  1  'x, y, z'
loop_
 _atom_site_type_symbol
 _atom_site_label
 _atom_site_symmetry_multiplicity
 _atom_site_fract_x
 _atom_site_fract_y
 _atom_site_fract_z
 _atom_site_occupancy
  Ga  Ga0  1  0.650081  0.650081  0.650081  1
  Ga  Ga1  1  0.856979  0.856979  0.856979  1
  Ga  Ga2  1  0.143021  0.143021  0.143021  1
  Ga  Ga3  1  0.349919  0.349919  0.349919  1
  Se  Se4  1  0.963067  0.540669  0.248336  1
  Se  Se5  1  0.540669  0.248336  0.963067  1
  Se  Se6  1  0.248336  0.963067  0.540669  1
  Se  Se7  1  0.751664  0.036933  0.459331  1
  Se  Se8  1  0.459331  0.751664  0.036933  1
  Se  Se9  1  0.036933  0.459331  0.751664  1
  O  O10  1  0.817212  0.506830  0.474437  1
  O  O11  1  0.871169  0.758441  0.109058  1
  O  O12  1  0.979517  0.379311  0.200217  1
  O  O13  1  0.521691  0.205054  0.176701  1
  O  O14  1  0.758441  0.109058  0.871169  1
  O  O15  1  0.506830  0.474437  0.817212  1
  O  O16  1  0.474437  0.817212  0.506830  1
  O  O17  1  0.205054  0.176701  0.521691  1
  O  O18  1  0.799783  0.020483  0.620689  1
  O  O19  1  0.176701  0.521691  0.205054  1
  O  O20  1  0.890942  0.128831  0.241559  1
  O  O21  1  0.620689  0.799783  0.020483  1
  O  O22  1  0.379311  0.200217  0.979517  1
  O  O23  1  0.109058  0.871169  0.758441  1
  O  O24  1  0.823299  0.478309  0.794946  1
  O  O25  1  0.200217  0.979517  0.379311  1
  O  O26  1  0.794946  0.823299  0.478309  1
  O  O27  1  0.525563  0.182788  0.493170  1
  O  O28  1  0.493170  0.525563  0.182788  1
  O  O29  1  0.241559  0.890942  0.128831  1
  O  O30  1  0.478309  0.794946  0.823299  1
  O  O31  1  0.020483  0.620689  0.799783  1
  O  O32  1  0.128831  0.241559  0.890942  1
  O  O33  1  0.182788  0.493170  0.525563  1
