# generated using pymatgen
data_Lu5Nb3(As3Rh4)4
_symmetry_space_group_name_H-M   'P 1'
_cell_length_a   13.23645000
_cell_length_b   13.23645054
_cell_length_c   3.98799900
_cell_angle_alpha   90.00000000
_cell_angle_beta   90.00000000
_cell_angle_gamma   120.00000365
_symmetry_Int_Tables_number   1
_chemical_formula_structural   Lu5Nb3(As3Rh4)4
_chemical_formula_sum   'Lu5 Nb3 As12 Rh16'
_cell_volume   605.10218482
_cell_formula_units_Z   1
loop_
 _symmetry_equiv_pos_site_id
 _symmetry_equiv_pos_as_xyz
  1  'x, y, z'
loop_
 _atom_site_type_symbol
 _atom_site_label
 _atom_site_symmetry_multiplicity
 _atom_site_fract_x
 _atom_site_fract_y
 _atom_site_fract_z
 _atom_site_occupancy
  Lu  Lu0  1  0.188813  0.188813  0.500000  1
  Lu  Lu1  1  0.811187  0.000000  0.500000  1
  Lu  Lu2  1  0.000000  0.811187  0.500000  1
  Lu  Lu3  1  0.333333  0.666667  0.000000  1
  Lu  Lu4  1  0.666667  0.333333  0.000000  1
  Nb  Nb5  1  0.552825  0.552825  0.000000  1
  Nb  Nb6  1  0.447175  0.000000  0.000000  1
  Nb  Nb7  1  0.000000  0.447175  0.000000  1
  As  As8  1  0.824888  0.824888  0.000000  1
  As  As9  1  0.175112  0.000000  0.000000  1
  As  As10  1  0.000000  0.175112  0.000000  1
  As  As11  1  0.166218  0.485694  0.500000  1
  As  As12  1  0.514306  0.680524  0.500000  1
  As  As13  1  0.319476  0.833782  0.500000  1
  As  As14  1  0.680524  0.514306  0.500000  1
  As  As15  1  0.833782  0.319476  0.500000  1
  As  As16  1  0.485694  0.166218  0.500000  1
  As  As17  1  0.358796  0.358796  0.000000  1
  As  As18  1  0.641204  0.000000  0.000000  1
  As  As19  1  0.000000  0.641204  0.000000  1
  Rh  Rh20  1  0.720891  0.720891  0.500000  1
  Rh  Rh21  1  0.279109  0.000000  0.500000  1
  Rh  Rh22  1  0.000000  0.279109  0.500000  1
  Rh  Rh23  1  0.176379  0.373341  0.000000  1
  Rh  Rh24  1  0.626659  0.803037  0.000000  1
  Rh  Rh25  1  0.196963  0.823621  0.000000  1
  Rh  Rh26  1  0.803037  0.626659  0.000000  1
  Rh  Rh27  1  0.823621  0.196963  0.000000  1
  Rh  Rh28  1  0.373341  0.176379  0.000000  1
  Rh  Rh29  1  0.352199  0.484334  0.500000  1
  Rh  Rh30  1  0.515666  0.867865  0.500000  1
  Rh  Rh31  1  0.132135  0.647801  0.500000  1
  Rh  Rh32  1  0.867865  0.515666  0.500000  1
  Rh  Rh33  1  0.647801  0.132135  0.500000  1
  Rh  Rh34  1  0.484334  0.352199  0.500000  1
  Rh  Rh35  1  0.000000  0.000000  0.000000  1
