# generated using pymatgen
data_TbTm2Co8P6W
_symmetry_space_group_name_H-M   'P 1'
_cell_length_a   3.71298700
_cell_length_b   10.53101400
_cell_length_c   12.22864700
_cell_angle_alpha   90.00000000
_cell_angle_beta   90.00000000
_cell_angle_gamma   90.00000000
_symmetry_Int_Tables_number   1
_chemical_formula_structural   TbTm2Co8P6W
_chemical_formula_sum   'Tb2 Tm4 Co16 P12 W2'
_cell_volume   478.15866175
_cell_formula_units_Z   2
loop_
 _symmetry_equiv_pos_site_id
 _symmetry_equiv_pos_as_xyz
  1  'x, y, z'
loop_
 _atom_site_type_symbol
 _atom_site_label
 _atom_site_symmetry_multiplicity
 _atom_site_fract_x
 _atom_site_fract_y
 _atom_site_fract_z
 _atom_site_occupancy
  Tb  Tb0  1  0.000000  0.500000  0.524784  1
  Tb  Tb1  1  0.500000  0.000000  0.475216  1
  Tm  Tm2  1  0.500000  0.819652  0.204631  1
  Tm  Tm3  1  0.500000  0.180348  0.204631  1
  Tm  Tm4  1  0.000000  0.680348  0.795369  1
  Tm  Tm5  1  0.000000  0.319652  0.795369  1
  Co  Co6  1  0.500000  0.500000  0.702422  1
  Co  Co7  1  0.000000  0.000000  0.297578  1
  Co  Co8  1  0.000000  0.500000  0.986887  1
  Co  Co9  1  0.500000  0.000000  0.013113  1
  Co  Co10  1  0.500000  0.332570  0.990029  1
  Co  Co11  1  0.500000  0.667430  0.990029  1
  Co  Co12  1  0.000000  0.167430  0.009971  1
  Co  Co13  1  0.000000  0.832570  0.009971  1
  Co  Co14  1  0.500000  0.295653  0.430945  1
  Co  Co15  1  0.500000  0.704347  0.430945  1
  Co  Co16  1  0.000000  0.204347  0.569055  1
  Co  Co17  1  0.000000  0.795653  0.569055  1
  Co  Co18  1  0.500000  0.877649  0.708181  1
  Co  Co19  1  0.500000  0.122351  0.708181  1
  Co  Co20  1  0.000000  0.622351  0.291819  1
  Co  Co21  1  0.000000  0.377649  0.291819  1
  P  P22  1  0.500000  0.500000  0.880032  1
  P  P23  1  0.000000  0.000000  0.119968  1
  P  P24  1  0.500000  0.500000  0.349827  1
  P  P25  1  0.000000  0.000000  0.650173  1
  P  P26  1  0.500000  0.311225  0.616950  1
  P  P27  1  0.500000  0.688775  0.616950  1
  P  P28  1  0.000000  0.188775  0.383050  1
  P  P29  1  0.000000  0.811225  0.383050  1
  P  P30  1  0.500000  0.843451  0.892253  1
  P  P31  1  0.500000  0.156549  0.892253  1
  P  P32  1  0.000000  0.656549  0.107747  1
  P  P33  1  0.000000  0.343451  0.107747  1
  W  W34  1  0.500000  0.500000  0.156032  1
  W  W35  1  0.000000  0.000000  0.843968  1
