# generated using pymatgen
data_Dy8Hg3PbAu8
_symmetry_space_group_name_H-M   'P 1'
_cell_length_a   8.05644700
_cell_length_b   8.05644700
_cell_length_c   7.32338800
_cell_angle_alpha   90.00000000
_cell_angle_beta   90.00000000
_cell_angle_gamma   90.00000000
_symmetry_Int_Tables_number   1
_chemical_formula_structural   Dy8Hg3PbAu8
_chemical_formula_sum   'Dy8 Hg3 Pb1 Au8'
_cell_volume   475.33429877
_cell_formula_units_Z   1
loop_
 _symmetry_equiv_pos_site_id
 _symmetry_equiv_pos_as_xyz
  1  'x, y, z'
loop_
 _atom_site_type_symbol
 _atom_site_label
 _atom_site_symmetry_multiplicity
 _atom_site_fract_x
 _atom_site_fract_y
 _atom_site_fract_z
 _atom_site_occupancy
  Dy  Dy0  1  0.839658  0.159424  0.500807  1
  Dy  Dy1  1  0.160342  0.840576  0.500807  1
  Dy  Dy2  1  0.340576  0.339658  0.999193  1
  Dy  Dy3  1  0.659424  0.660342  0.999193  1
  Dy  Dy4  1  0.683152  0.685320  0.500730  1
  Dy  Dy5  1  0.316848  0.314680  0.500730  1
  Dy  Dy6  1  0.185320  0.816848  0.999270  1
  Dy  Dy7  1  0.814680  0.183152  0.999270  1
  Hg  Hg8  1  0.500000  0.000000  0.250000  1
  Hg  Hg9  1  0.000000  0.500000  0.750000  1
  Hg  Hg10  1  0.500000  0.000000  0.750000  1
  Pb  Pb11  1  0.000000  0.500000  0.250000  1
  Au  Au12  1  0.623470  0.371090  0.275120  1
  Au  Au13  1  0.376530  0.628910  0.275120  1
  Au  Au14  1  0.127464  0.126235  0.774318  1
  Au  Au15  1  0.872536  0.873765  0.774318  1
  Au  Au16  1  0.373765  0.627464  0.725682  1
  Au  Au17  1  0.626235  0.372536  0.725682  1
  Au  Au18  1  0.871090  0.876530  0.224880  1
  Au  Au19  1  0.128910  0.123470  0.224880  1
