# generated using pymatgen
data_Nd3EuCu3Sb8
_symmetry_space_group_name_H-M   'P 1'
_cell_length_a   10.99210663
_cell_length_b   10.99818116
_cell_length_c   10.99275600
_cell_angle_alpha   147.22510115
_cell_angle_beta   147.21577677
_cell_angle_gamma   47.06608244
_symmetry_Int_Tables_number   1
_chemical_formula_structural   Nd3EuCu3Sb8
_chemical_formula_sum   'Nd3 Eu1 Cu3 Sb8'
_cell_volume   388.04275164
_cell_formula_units_Z   1
loop_
 _symmetry_equiv_pos_site_id
 _symmetry_equiv_pos_as_xyz
  1  'x, y, z'
loop_
 _atom_site_type_symbol
 _atom_site_label
 _atom_site_symmetry_multiplicity
 _atom_site_fract_x
 _atom_site_fract_y
 _atom_site_fract_z
 _atom_site_occupancy
  Nd  Nd0  1  0.631557  0.632751  0.504685  1
  Nd  Nd1  1  0.126725  0.127887  0.495055  1
  Nd  Nd2  1  0.367416  0.873144  0.000033  1
  Eu  Eu3  1  0.874028  0.367763  0.000035  1
  Cu  Cu4  1  0.996285  0.005866  0.000641  1
  Cu  Cu5  1  0.998897  0.495278  0.494320  1
  Cu  Cu6  1  0.503973  0.000891  0.505231  1
  Sb  Sb7  1  0.328688  0.324835  0.512882  1
  Sb  Sb8  1  0.815683  0.812093  0.487455  1
  Sb  Sb9  1  0.670453  0.181875  0.999893  1
  Sb  Sb10  1  0.182071  0.675749  0.999637  1
  Sb  Sb11  1  0.252550  0.249093  0.000016  1
  Sb  Sb12  1  0.750275  0.750640  0.000000  1
  Sb  Sb13  1  0.750133  0.250528  0.498960  1
  Sb  Sb14  1  0.251264  0.751607  0.501157  1
