# generated using pymatgen
data_Dy3HoHf4F28
_symmetry_space_group_name_H-M   'P 1'
_cell_length_a   5.63053603
_cell_length_b   8.96055687
_cell_length_c   12.10816300
_cell_angle_alpha   62.56147840
_cell_angle_beta   89.99414886
_cell_angle_gamma   89.99623598
_symmetry_Int_Tables_number   1
_chemical_formula_structural   Dy3HoHf4F28
_chemical_formula_sum   'Dy3 Ho1 Hf4 F28'
_cell_volume   542.16838363
_cell_formula_units_Z   1
loop_
 _symmetry_equiv_pos_site_id
 _symmetry_equiv_pos_as_xyz
  1  'x, y, z'
loop_
 _atom_site_type_symbol
 _atom_site_label
 _atom_site_symmetry_multiplicity
 _atom_site_fract_x
 _atom_site_fract_y
 _atom_site_fract_z
 _atom_site_occupancy
  Dy  Dy0  1  0.256545  0.184991  0.735000  1
  Dy  Dy1  1  0.243638  0.185664  0.234889  1
  Dy  Dy2  1  0.743725  0.814254  0.265151  1
  Ho  Ho3  1  0.756362  0.814296  0.764979  1
  Hf  Hf4  1  0.756304  0.273824  0.956731  1
  Hf  Hf5  1  0.256234  0.726407  0.543399  1
  Hf  Hf6  1  0.243526  0.726448  0.042847  1
  Hf  Hf7  1  0.743596  0.273459  0.457042  1
  F  F8  1  0.454575  0.708689  0.916669  1
  F  F9  1  0.953972  0.291734  0.583081  1
  F  F10  1  0.546094  0.291718  0.083081  1
  F  F11  1  0.047228  0.708144  0.416918  1
  F  F12  1  0.443626  0.275391  0.547566  1
  F  F13  1  0.943495  0.725057  0.951960  1
  F  F14  1  0.556095  0.724676  0.452823  1
  F  F15  1  0.056095  0.275306  0.047516  1
  F  F16  1  0.777678  0.524774  0.859503  1
  F  F17  1  0.277418  0.475825  0.640224  1
  F  F18  1  0.222744  0.475885  0.140251  1
  F  F19  1  0.722499  0.524026  0.359838  1
  F  F20  1  0.758599  0.023648  0.056782  1
  F  F21  1  0.258473  0.976713  0.443023  1
  F  F22  1  0.241650  0.976729  0.942954  1
  F  F23  1  0.741276  0.023140  0.557440  1
  F  F24  1  0.974704  0.730848  0.643176  1
  F  F25  1  0.475659  0.269523  0.856716  1
  F  F26  1  0.023651  0.269508  0.356503  1
  F  F27  1  0.523644  0.730489  0.143298  1
  F  F28  1  0.043219  0.746891  0.173261  1
  F  F29  1  0.542431  0.253249  0.326749  1
  F  F30  1  0.957184  0.252718  0.826755  1
  F  F31  1  0.457707  0.747335  0.673571  1
  F  F32  1  0.421500  0.970569  0.232772  1
  F  F33  1  0.921433  0.029587  0.267346  1
  F  F34  1  0.579851  0.028719  0.767339  1
  F  F35  1  0.077565  0.969765  0.732844  1
