# generated using pymatgen
data_CsLiCeSe3
_symmetry_space_group_name_H-M   'P 1'
_cell_length_a   4.32651900
_cell_length_b   8.30876907
_cell_length_c   11.08914800
_cell_angle_alpha   89.99992415
_cell_angle_beta   90.00000000
_cell_angle_gamma   74.90865504
_symmetry_Int_Tables_number   1
_chemical_formula_structural   CsLiCeSe3
_chemical_formula_sum   'Cs2 Li2 Ce2 Se6'
_cell_volume   384.88514226
_cell_formula_units_Z   2
loop_
 _symmetry_equiv_pos_site_id
 _symmetry_equiv_pos_as_xyz
  1  'x, y, z'
loop_
 _atom_site_type_symbol
 _atom_site_label
 _atom_site_symmetry_multiplicity
 _atom_site_fract_x
 _atom_site_fract_y
 _atom_site_fract_z
 _atom_site_occupancy
  Cs  Cs0  1  0.739363  0.521276  0.250005  1
  Cs  Cs1  1  0.260638  0.478724  0.749995  1
  Li  Li2  1  0.466430  0.067143  0.249997  1
  Li  Li3  1  0.533571  0.932858  0.750003  1
  Ce  Ce4  1  0.000000  0.000000  0.000000  1
  Ce  Ce5  1  0.000000  0.000000  0.500000  1
  Se  Se6  1  0.386531  0.226939  0.051490  1
  Se  Se7  1  0.050018  0.899964  0.249984  1
  Se  Se8  1  0.386500  0.227000  0.448525  1
  Se  Se9  1  0.613501  0.773000  0.551475  1
  Se  Se10  1  0.949983  0.100036  0.750016  1
  Se  Se11  1  0.613470  0.773061  0.948510  1
