# generated using pymatgen
data_MgIn4Co(SeO3)8
_symmetry_space_group_name_H-M   'P 1'
_cell_length_a   4.90688563
_cell_length_b   8.76134277
_cell_length_c   15.53383892
_cell_angle_alpha   69.25928183
_cell_angle_beta   89.96989628
_cell_angle_gamma   90.03545859
_symmetry_Int_Tables_number   1
_chemical_formula_structural   MgIn4Co(SeO3)8
_chemical_formula_sum   'Mg1 In4 Co1 Se8 O24'
_cell_volume   624.53422275
_cell_formula_units_Z   1
loop_
 _symmetry_equiv_pos_site_id
 _symmetry_equiv_pos_as_xyz
  1  'x, y, z'
loop_
 _atom_site_type_symbol
 _atom_site_label
 _atom_site_symmetry_multiplicity
 _atom_site_fract_x
 _atom_site_fract_y
 _atom_site_fract_z
 _atom_site_occupancy
  Mg  Mg0  1  0.000000  0.000000  0.000000  1
  In  In1  1  0.536149  0.153894  0.786817  1
  In  In2  1  0.963405  0.153762  0.286929  1
  In  In3  1  0.463851  0.846106  0.213183  1
  In  In4  1  0.036595  0.846238  0.713071  1
  Co  Co5  1  0.500000  0.000000  0.500000  1
  Se  Se6  1  0.578649  0.781771  0.891168  1
  Se  Se7  1  0.921452  0.781599  0.391259  1
  Se  Se8  1  0.421351  0.218229  0.108832  1
  Se  Se9  1  0.078548  0.218401  0.608741  1
  Se  Se10  1  0.004731  0.340905  0.872854  1
  Se  Se11  1  0.494919  0.341550  0.372489  1
  Se  Se12  1  0.995269  0.659095  0.127146  1
  Se  Se13  1  0.505081  0.658450  0.627511  1
  O  O14  1  0.769627  0.357731  0.786802  1
  O  O15  1  0.730757  0.357852  0.286728  1
  O  O16  1  0.230373  0.642269  0.213198  1
  O  O17  1  0.269243  0.642148  0.713272  1
  O  O18  1  0.828452  0.710600  0.838006  1
  O  O19  1  0.671602  0.710558  0.338075  1
  O  O20  1  0.171548  0.289400  0.161994  1
  O  O21  1  0.328398  0.289442  0.661925  1
  O  O22  1  0.206679  0.169800  0.876996  1
  O  O23  1  0.293753  0.170584  0.376878  1
  O  O24  1  0.793321  0.830200  0.123004  1
  O  O25  1  0.706247  0.829416  0.623122  1
  O  O26  1  0.718844  0.954981  0.905359  1
  O  O27  1  0.780526  0.955563  0.405085  1
  O  O28  1  0.281156  0.045019  0.094641  1
  O  O29  1  0.219474  0.044437  0.594915  1
  O  O30  1  0.373443  0.904721  0.799550  1
  O  O31  1  0.126382  0.904753  0.299520  1
  O  O32  1  0.626557  0.095279  0.200450  1
  O  O33  1  0.873618  0.095247  0.700480  1
  O  O34  1  0.837189  0.232668  0.972070  1
  O  O35  1  0.661525  0.231875  0.472124  1
  O  O36  1  0.162811  0.767332  0.027930  1
  O  O37  1  0.338475  0.768125  0.527876  1
