# generated using pymatgen
data_Cs2RbTaO4
_symmetry_space_group_name_H-M   'P 1'
_cell_length_a   6.82468000
_cell_length_b   6.98587022
_cell_length_c   8.88239100
_cell_angle_alpha   87.43811037
_cell_angle_beta   90.00000000
_cell_angle_gamma   90.00000000
_symmetry_Int_Tables_number   1
_chemical_formula_structural   Cs2RbTaO4
_chemical_formula_sum   'Cs4 Rb2 Ta2 O8'
_cell_volume   423.05653509
_cell_formula_units_Z   2
loop_
 _symmetry_equiv_pos_site_id
 _symmetry_equiv_pos_as_xyz
  1  'x, y, z'
loop_
 _atom_site_type_symbol
 _atom_site_label
 _atom_site_symmetry_multiplicity
 _atom_site_fract_x
 _atom_site_fract_y
 _atom_site_fract_z
 _atom_site_occupancy
  Cs  Cs0  1  0.250000  0.097521  0.802984  1
  Cs  Cs1  1  0.750000  0.902479  0.197016  1
  Cs  Cs2  1  0.250000  0.668703  0.528748  1
  Cs  Cs3  1  0.750000  0.331297  0.471252  1
  Rb  Rb4  1  0.750000  0.384216  0.960201  1
  Rb  Rb5  1  0.250000  0.615784  0.039799  1
  Ta  Ta6  1  0.250000  0.171846  0.275721  1
  Ta  Ta7  1  0.750000  0.828154  0.724279  1
  O  O8  1  0.972488  0.714199  0.814897  1
  O  O9  1  0.472488  0.285801  0.185103  1
  O  O10  1  0.027512  0.285801  0.185103  1
  O  O11  1  0.527512  0.714199  0.814897  1
  O  O12  1  0.750000  0.091507  0.758555  1
  O  O13  1  0.750000  0.782655  0.517628  1
  O  O14  1  0.250000  0.908493  0.241445  1
  O  O15  1  0.250000  0.217345  0.482372  1
