# generated using pymatgen
data_Y16Cd4NiIr3
_symmetry_space_group_name_H-M   'P 1'
_cell_length_a   9.62843426
_cell_length_b   9.65265264
_cell_length_c   9.65265200
_cell_angle_alpha   60.00000219
_cell_angle_beta   59.91676187
_cell_angle_gamma   59.91676221
_symmetry_Int_Tables_number   1
_chemical_formula_structural   Y16Cd4NiIr3
_chemical_formula_sum   'Y16 Cd4 Ni1 Ir3'
_cell_volume   633.55811012
_cell_formula_units_Z   1
loop_
 _symmetry_equiv_pos_site_id
 _symmetry_equiv_pos_as_xyz
  1  'x, y, z'
loop_
 _atom_site_type_symbol
 _atom_site_label
 _atom_site_symmetry_multiplicity
 _atom_site_fract_x
 _atom_site_fract_y
 _atom_site_fract_z
 _atom_site_occupancy
  Y  Y0  1  0.601477  0.598162  0.598162  1
  Y  Y1  1  0.601477  0.598162  0.202199  1
  Y  Y2  1  0.601477  0.202199  0.598162  1
  Y  Y3  1  0.201169  0.599610  0.599610  1
  Y  Y4  1  0.060161  0.438927  0.438927  1
  Y  Y5  1  0.439119  0.060813  0.060813  1
  Y  Y6  1  0.439119  0.060813  0.439254  1
  Y  Y7  1  0.060161  0.438927  0.061984  1
  Y  Y8  1  0.439119  0.439254  0.060813  1
  Y  Y9  1  0.060161  0.061984  0.438927  1
  Y  Y10  1  0.186981  0.813052  0.813052  1
  Y  Y11  1  0.812045  0.186101  0.186101  1
  Y  Y12  1  0.812045  0.186101  0.815753  1
  Y  Y13  1  0.186981  0.813052  0.186915  1
  Y  Y14  1  0.812045  0.815753  0.186101  1
  Y  Y15  1  0.186981  0.186915  0.813052  1
  Cd  Cd16  1  0.830633  0.830956  0.830956  1
  Cd  Cd17  1  0.830633  0.830956  0.507453  1
  Cd  Cd18  1  0.830633  0.507453  0.830956  1
  Cd  Cd19  1  0.506964  0.831012  0.831012  1
  Ni  Ni20  1  0.824755  0.391749  0.391749  1
  Ir  Ir21  1  0.391955  0.391787  0.391787  1
  Ir  Ir22  1  0.391955  0.391787  0.824472  1
  Ir  Ir23  1  0.391955  0.824472  0.391787  1
