# generated using pymatgen
data_K2Zr7BCl18
_symmetry_space_group_name_H-M   'P 1'
_cell_length_a   10.51010955
_cell_length_b   10.51011001
_cell_length_c   10.51010800
_cell_angle_alpha   55.80958404
_cell_angle_beta   55.80958892
_cell_angle_gamma   55.80958346
_symmetry_Int_Tables_number   1
_chemical_formula_structural   K2Zr7BCl18
_chemical_formula_sum   'K2 Zr7 B1 Cl18'
_cell_volume   741.16744432
_cell_formula_units_Z   1
loop_
 _symmetry_equiv_pos_site_id
 _symmetry_equiv_pos_as_xyz
  1  'x, y, z'
loop_
 _atom_site_type_symbol
 _atom_site_label
 _atom_site_symmetry_multiplicity
 _atom_site_fract_x
 _atom_site_fract_y
 _atom_site_fract_z
 _atom_site_occupancy
  K  K0  1  0.775660  0.775832  0.775915  1
  K  K1  1  0.224340  0.224168  0.224085  1
  Zr  Zr2  1  0.163246  0.896625  0.790267  1
  Zr  Zr3  1  0.836754  0.103375  0.209733  1
  Zr  Zr4  1  0.103044  0.209698  0.837157  1
  Zr  Zr5  1  0.210306  0.836579  0.103616  1
  Zr  Zr6  1  0.896956  0.790302  0.162843  1
  Zr  Zr7  1  0.789694  0.163421  0.896384  1
  Zr  Zr8  1  0.500000  0.500000  0.500000  1
  B  B9  1  0.000000  0.000000  0.000000  1
  Cl  Cl10  1  0.221216  0.467656  0.644885  1
  Cl  Cl11  1  0.778784  0.532344  0.355115  1
  Cl  Cl12  1  0.347093  0.053494  0.934862  1
  Cl  Cl13  1  0.652907  0.946506  0.065138  1
  Cl  Cl14  1  0.934895  0.347095  0.053454  1
  Cl  Cl15  1  0.711705  0.877156  0.415551  1
  Cl  Cl16  1  0.354825  0.779220  0.531696  1
  Cl  Cl17  1  0.584527  0.288153  0.122846  1
  Cl  Cl18  1  0.288295  0.122844  0.584449  1
  Cl  Cl19  1  0.122859  0.584425  0.288232  1
  Cl  Cl20  1  0.946613  0.065045  0.652830  1
  Cl  Cl21  1  0.415473  0.711847  0.877154  1
  Cl  Cl22  1  0.877141  0.415575  0.711768  1
  Cl  Cl23  1  0.065105  0.652905  0.946546  1
  Cl  Cl24  1  0.467702  0.645526  0.220233  1
  Cl  Cl25  1  0.645175  0.220780  0.468304  1
  Cl  Cl26  1  0.532298  0.354474  0.779767  1
  Cl  Cl27  1  0.053387  0.934955  0.347170  1
