# generated using pymatgen
data_Li2ErLu3(ZnPt2)2
_symmetry_space_group_name_H-M   'P 1'
_cell_length_a   3.99704500
_cell_length_b   6.91175793
_cell_length_c   8.25520050
_cell_angle_alpha   89.89455192
_cell_angle_beta   90.00000000
_cell_angle_gamma   90.00000000
_symmetry_Int_Tables_number   1
_chemical_formula_structural   Li2ErLu3(ZnPt2)2
_chemical_formula_sum   'Li2 Er1 Lu3 Zn2 Pt4'
_cell_volume   228.06279735
_cell_formula_units_Z   1
loop_
 _symmetry_equiv_pos_site_id
 _symmetry_equiv_pos_as_xyz
  1  'x, y, z'
loop_
 _atom_site_type_symbol
 _atom_site_label
 _atom_site_symmetry_multiplicity
 _atom_site_fract_x
 _atom_site_fract_y
 _atom_site_fract_z
 _atom_site_occupancy
  Li  Li0  1  0.250000  0.629204  0.559752  1
  Li  Li1  1  0.250000  0.129021  0.940381  1
  Er  Er2  1  0.250000  0.545985  0.180470  1
  Lu  Lu3  1  0.250000  0.045896  0.320479  1
  Lu  Lu4  1  0.750000  0.954474  0.684493  1
  Lu  Lu5  1  0.750000  0.454241  0.814934  1
  Zn  Zn6  1  0.750000  0.371133  0.437724  1
  Zn  Zn7  1  0.750000  0.871978  0.062311  1
  Pt  Pt8  1  0.250000  0.244989  0.623019  1
  Pt  Pt9  1  0.250000  0.745809  0.875562  1
  Pt  Pt10  1  0.750000  0.755772  0.378221  1
  Pt  Pt11  1  0.750000  0.251499  0.122654  1
