# generated using pymatgen
data_Ho3LuSc(In2Rh)2
_symmetry_space_group_name_H-M   'P 1'
_cell_length_a   3.56470700
_cell_length_b   7.92786929
_cell_length_c   18.01091257
_cell_angle_alpha   90.23160801
_cell_angle_beta   90.00000000
_cell_angle_gamma   90.00000000
_symmetry_Int_Tables_number   1
_chemical_formula_structural   Ho3LuSc(In2Rh)2
_chemical_formula_sum   'Ho6 Lu2 Sc2 In8 Rh4'
_cell_volume   508.99379714
_cell_formula_units_Z   2
loop_
 _symmetry_equiv_pos_site_id
 _symmetry_equiv_pos_as_xyz
  1  'x, y, z'
loop_
 _atom_site_type_symbol
 _atom_site_label
 _atom_site_symmetry_multiplicity
 _atom_site_fract_x
 _atom_site_fract_y
 _atom_site_fract_z
 _atom_site_occupancy
  Ho  Ho0  1  0.000000  0.000000  0.000000  1
  Ho  Ho1  1  0.000000  0.500000  0.500000  1
  Ho  Ho2  1  0.000000  0.753069  0.785120  1
  Ho  Ho3  1  0.000000  0.246931  0.214880  1
  Ho  Ho4  1  0.000000  0.250695  0.720784  1
  Ho  Ho5  1  0.000000  0.749305  0.279216  1
  Lu  Lu6  1  0.000000  0.879512  0.588993  1
  Lu  Lu7  1  0.000000  0.120488  0.411007  1
  Sc  Sc8  1  0.000000  0.380407  0.911050  1
  Sc  Sc9  1  0.000000  0.619593  0.088950  1
  In  In10  1  0.500000  0.798459  0.434697  1
  In  In11  1  0.500000  0.201541  0.565303  1
  In  In12  1  0.500000  0.311045  0.059420  1
  In  In13  1  0.500000  0.688955  0.940580  1
  In  In14  1  0.500000  0.919628  0.147595  1
  In  In15  1  0.500000  0.080372  0.852405  1
  In  In16  1  0.500000  0.427946  0.347432  1
  In  In17  1  0.500000  0.572054  0.652568  1
  Rh  Rh18  1  0.500000  0.968547  0.696805  1
  Rh  Rh19  1  0.500000  0.031453  0.303195  1
  Rh  Rh20  1  0.500000  0.467661  0.808822  1
  Rh  Rh21  1  0.500000  0.532339  0.191178  1
