# generated using pymatgen
data_HfNb3Co2(Si2Ir)2
_symmetry_space_group_name_H-M   'P 1'
_cell_length_a   3.75429400
_cell_length_b   6.38882525
_cell_length_c   7.25632649
_cell_angle_alpha   90.26174651
_cell_angle_beta   90.00000000
_cell_angle_gamma   90.00000000
_symmetry_Int_Tables_number   1
_chemical_formula_structural   HfNb3Co2(Si2Ir)2
_chemical_formula_sum   'Hf1 Nb3 Co2 Si4 Ir2'
_cell_volume   174.04500838
_cell_formula_units_Z   1
loop_
 _symmetry_equiv_pos_site_id
 _symmetry_equiv_pos_as_xyz
  1  'x, y, z'
loop_
 _atom_site_type_symbol
 _atom_site_label
 _atom_site_symmetry_multiplicity
 _atom_site_fract_x
 _atom_site_fract_y
 _atom_site_fract_z
 _atom_site_occupancy
  Hf  Hf0  1  0.750000  0.523859  0.823708  1
  Nb  Nb1  1  0.250000  0.977439  0.321776  1
  Nb  Nb2  1  0.750000  0.023818  0.671118  1
  Nb  Nb3  1  0.250000  0.476369  0.181639  1
  Co  Co4  1  0.750000  0.645052  0.437308  1
  Co  Co5  1  0.750000  0.143407  0.061031  1
  Si  Si6  1  0.250000  0.223600  0.889045  1
  Si  Si7  1  0.250000  0.732153  0.609881  1
  Si  Si8  1  0.750000  0.773011  0.135426  1
  Si  Si9  1  0.750000  0.272082  0.366998  1
  Ir  Ir10  1  0.250000  0.853171  0.938501  1
  Ir  Ir11  1  0.250000  0.356038  0.563570  1
