# generated using pymatgen
data_DyHo3(MgRh)4
_symmetry_space_group_name_H-M   'P 1'
_cell_length_a   4.09665000
_cell_length_b   7.08836132
_cell_length_c   8.52368304
_cell_angle_alpha   90.01295475
_cell_angle_beta   90.00000000
_cell_angle_gamma   90.00000000
_symmetry_Int_Tables_number   1
_chemical_formula_structural   DyHo3(MgRh)4
_chemical_formula_sum   'Dy1 Ho3 Mg4 Rh4'
_cell_volume   247.51526549
_cell_formula_units_Z   1
loop_
 _symmetry_equiv_pos_site_id
 _symmetry_equiv_pos_as_xyz
  1  'x, y, z'
loop_
 _atom_site_type_symbol
 _atom_site_label
 _atom_site_symmetry_multiplicity
 _atom_site_fract_x
 _atom_site_fract_y
 _atom_site_fract_z
 _atom_site_occupancy
  Dy  Dy0  1  0.750000  0.962293  0.675884  1
  Ho  Ho1  1  0.250000  0.537913  0.175658  1
  Ho  Ho2  1  0.750000  0.462376  0.824619  1
  Ho  Ho3  1  0.250000  0.037517  0.323884  1
  Mg  Mg4  1  0.250000  0.136530  0.941658  1
  Mg  Mg5  1  0.750000  0.864068  0.059215  1
  Mg  Mg6  1  0.250000  0.635801  0.558387  1
  Mg  Mg7  1  0.750000  0.363202  0.440792  1
  Rh  Rh8  1  0.750000  0.748700  0.369117  1
  Rh  Rh9  1  0.250000  0.251998  0.630197  1
  Rh  Rh10  1  0.750000  0.249152  0.130397  1
  Rh  Rh11  1  0.250000  0.750450  0.870191  1
