# generated using pymatgen
data_Y2Er10InNi5
_symmetry_space_group_name_H-M   'P 1'
_cell_length_a   8.28783520
_cell_length_b   8.28783652
_cell_length_c   8.28783600
_cell_angle_alpha   107.05139962
_cell_angle_beta   110.68485612
_cell_angle_gamma   110.70416744
_symmetry_Int_Tables_number   1
_chemical_formula_structural   Y2Er10InNi5
_chemical_formula_sum   'Y2 Er10 In1 Ni5'
_cell_volume   437.64628586
_cell_formula_units_Z   1
loop_
 _symmetry_equiv_pos_site_id
 _symmetry_equiv_pos_as_xyz
  1  'x, y, z'
loop_
 _atom_site_type_symbol
 _atom_site_label
 _atom_site_symmetry_multiplicity
 _atom_site_fract_x
 _atom_site_fract_y
 _atom_site_fract_z
 _atom_site_occupancy
  Y  Y0  1  0.479817  0.295023  0.184794  1
  Y  Y1  1  0.110230  0.295023  0.815206  1
  Er  Er2  1  0.889729  0.707025  0.182705  1
  Er  Er3  1  0.524320  0.707025  0.817295  1
  Er  Er4  1  0.306893  0.628758  0.321865  1
  Er  Er5  1  0.306893  0.985029  0.678135  1
  Er  Er6  1  0.693453  0.372401  0.678948  1
  Er  Er7  1  0.693453  0.014504  0.321052  1
  Er  Er8  1  0.189852  0.213360  0.402887  1
  Er  Er9  1  0.810473  0.786965  0.597113  1
  Er  Er10  1  0.189852  0.786965  0.976491  1
  Er  Er11  1  0.810473  0.213360  0.023509  1
  In  In12  1  0.000008  0.500008  0.500000  1
  Ni  Ni13  1  0.502163  0.626582  0.124419  1
  Ni  Ni14  1  0.502163  0.377744  0.875581  1
  Ni  Ni15  1  0.362855  0.998945  0.363911  1
  Ni  Ni16  1  0.635034  0.998945  0.636089  1
  Ni  Ni17  1  0.992338  0.992338  0.000000  1
