# generated using pymatgen
data_Mg4Sc2NiB4Ir9
_symmetry_space_group_name_H-M   'P 1'
_cell_length_a   3.01110500
_cell_length_b   9.46955828
_cell_length_c   9.46955988
_cell_angle_alpha   89.88883064
_cell_angle_beta   90.00000000
_cell_angle_gamma   90.00000000
_symmetry_Int_Tables_number   1
_chemical_formula_structural   Mg4Sc2NiB4Ir9
_chemical_formula_sum   'Mg4 Sc2 Ni1 B4 Ir9'
_cell_volume   270.01295282
_cell_formula_units_Z   1
loop_
 _symmetry_equiv_pos_site_id
 _symmetry_equiv_pos_as_xyz
  1  'x, y, z'
loop_
 _atom_site_type_symbol
 _atom_site_label
 _atom_site_symmetry_multiplicity
 _atom_site_fract_x
 _atom_site_fract_y
 _atom_site_fract_z
 _atom_site_occupancy
  Mg  Mg0  1  0.000000  0.177484  0.677484  1
  Mg  Mg1  1  0.000000  0.822516  0.322516  1
  Mg  Mg2  1  0.000000  0.000000  0.000000  1
  Mg  Mg3  1  0.000000  0.500000  0.500000  1
  Sc  Sc4  1  0.000000  0.319080  0.180920  1
  Sc  Sc5  1  0.000000  0.680920  0.819080  1
  Ni  Ni6  1  0.500000  0.000000  0.500000  1
  B  B7  1  0.000000  0.625753  0.125753  1
  B  B8  1  0.000000  0.374247  0.874247  1
  B  B9  1  0.000000  0.879907  0.620093  1
  B  B10  1  0.000000  0.120093  0.379907  1
  Ir  Ir11  1  0.500000  0.060621  0.228631  1
  Ir  Ir12  1  0.500000  0.939379  0.771369  1
  Ir  Ir13  1  0.500000  0.781031  0.068393  1
  Ir  Ir14  1  0.500000  0.431607  0.718969  1
  Ir  Ir15  1  0.500000  0.218969  0.931607  1
  Ir  Ir16  1  0.500000  0.568393  0.281031  1
  Ir  Ir17  1  0.500000  0.728631  0.560621  1
  Ir  Ir18  1  0.500000  0.271369  0.439379  1
  Ir  Ir19  1  0.500000  0.500000  0.000000  1
