# generated using pymatgen
data_Ac20Bi8Os3Au
_symmetry_space_group_name_H-M   'P 1'
_cell_length_a   8.77105113
_cell_length_b   9.96751700
_cell_length_c   13.65483200
_cell_angle_alpha   90.00000000
_cell_angle_beta   89.80436157
_cell_angle_gamma   90.00000000
_symmetry_Int_Tables_number   1
_chemical_formula_structural   Ac20Bi8Os3Au
_chemical_formula_sum   'Ac20 Bi8 Os3 Au1'
_cell_volume   1193.77493848
_cell_formula_units_Z   1
loop_
 _symmetry_equiv_pos_site_id
 _symmetry_equiv_pos_as_xyz
  1  'x, y, z'
loop_
 _atom_site_type_symbol
 _atom_site_label
 _atom_site_symmetry_multiplicity
 _atom_site_fract_x
 _atom_site_fract_y
 _atom_site_fract_z
 _atom_site_occupancy
  Ac  Ac0  1  0.333393  0.750000  0.717250  1
  Ac  Ac1  1  0.651634  0.250000  0.292492  1
  Ac  Ac2  1  0.850055  0.250000  0.795431  1
  Ac  Ac3  1  0.150290  0.750000  0.202029  1
  Ac  Ac4  1  0.875360  0.750000  0.807013  1
  Ac  Ac5  1  0.119355  0.250000  0.190841  1
  Ac  Ac6  1  0.377076  0.250000  0.691853  1
  Ac  Ac7  1  0.635962  0.750000  0.297663  1
  Ac  Ac8  1  0.680958  0.529880  0.569233  1
  Ac  Ac9  1  0.321234  0.447580  0.432767  1
  Ac  Ac10  1  0.177904  0.462066  0.935359  1
  Ac  Ac11  1  0.321234  0.052420  0.432767  1
  Ac  Ac12  1  0.823856  0.540572  0.064420  1
  Ac  Ac13  1  0.680958  0.970120  0.569233  1
  Ac  Ac14  1  0.823856  0.959428  0.064420  1
  Ac  Ac15  1  0.177904  0.037934  0.935359  1
  Ac  Ac16  1  0.047698  0.750000  0.496236  1
  Ac  Ac17  1  0.944087  0.250000  0.502314  1
  Ac  Ac18  1  0.560668  0.250000  0.005498  1
  Ac  Ac19  1  0.447864  0.750000  0.998753  1
  Bi  Bi20  1  0.568875  0.504617  0.830454  1
  Bi  Bi21  1  0.428024  0.494932  0.172085  1
  Bi  Bi22  1  0.071792  0.493889  0.669248  1
  Bi  Bi23  1  0.428024  0.005068  0.172085  1
  Bi  Bi24  1  0.928744  0.505096  0.330286  1
  Bi  Bi25  1  0.568875  0.995383  0.830454  1
  Bi  Bi26  1  0.928744  0.994904  0.330286  1
  Bi  Bi27  1  0.071792  0.006111  0.669248  1
  Os  Os28  1  0.085241  0.750000  0.984787  1
  Os  Os29  1  0.919115  0.250000  0.010951  1
  Os  Os30  1  0.578276  0.250000  0.509626  1
  Au  Au31  1  0.421155  0.750000  0.489559  1
