# generated using pymatgen
data_CePa3Ge6Os7
_symmetry_space_group_name_H-M   'P 1'
_cell_length_a   7.29521546
_cell_length_b   7.29521611
_cell_length_c   7.29521537
_cell_angle_alpha   109.52019536
_cell_angle_beta   109.52019259
_cell_angle_gamma   109.52018277
_symmetry_Int_Tables_number   1
_chemical_formula_structural   CePa3Ge6Os7
_chemical_formula_sum   'Ce1 Pa3 Ge6 Os7'
_cell_volume   298.33390189
_cell_formula_units_Z   1
loop_
 _symmetry_equiv_pos_site_id
 _symmetry_equiv_pos_as_xyz
  1  'x, y, z'
loop_
 _atom_site_type_symbol
 _atom_site_label
 _atom_site_symmetry_multiplicity
 _atom_site_fract_x
 _atom_site_fract_y
 _atom_site_fract_z
 _atom_site_occupancy
  Ce  Ce0  1  0.500000  0.500000  0.500000  1
  Pa  Pa1  1  0.000000  0.000000  0.500000  1
  Pa  Pa2  1  0.000000  0.500000  0.000000  1
  Pa  Pa3  1  0.500000  0.000000  0.000000  1
  Ge  Ge4  1  0.686649  0.686649  0.997383  1
  Ge  Ge5  1  0.313351  0.002617  0.313351  1
  Ge  Ge6  1  0.002617  0.313351  0.313351  1
  Ge  Ge7  1  0.313351  0.313351  0.002617  1
  Ge  Ge8  1  0.686649  0.997383  0.686649  1
  Ge  Ge9  1  0.997383  0.686649  0.686649  1
  Os  Os10  1  0.752291  0.247709  0.500000  1
  Os  Os11  1  0.752291  0.500000  0.247709  1
  Os  Os12  1  0.500000  0.247709  0.752291  1
  Os  Os13  1  0.247709  0.500000  0.752291  1
  Os  Os14  1  0.247709  0.752291  0.500000  1
  Os  Os15  1  0.500000  0.752291  0.247709  1
  Os  Os16  1  0.000000  0.000000  0.000000  1
