# generated using pymatgen
data_Er4Al24Pd7Au2
_symmetry_space_group_name_H-M   'P 1'
_cell_length_a   7.57287425
_cell_length_b   7.59048148
_cell_length_c   13.15284907
_cell_angle_alpha   84.53510567
_cell_angle_beta   78.98200109
_cell_angle_gamma   59.92690286
_symmetry_Int_Tables_number   1
_chemical_formula_structural   Er4Al24Pd7Au2
_chemical_formula_sum   'Er4 Al24 Pd7 Au2'
_cell_volume   642.21452801
_cell_formula_units_Z   1
loop_
 _symmetry_equiv_pos_site_id
 _symmetry_equiv_pos_as_xyz
  1  'x, y, z'
loop_
 _atom_site_type_symbol
 _atom_site_label
 _atom_site_symmetry_multiplicity
 _atom_site_fract_x
 _atom_site_fract_y
 _atom_site_fract_z
 _atom_site_occupancy
  Er  Er0  1  0.392335  0.169683  0.808979  1
  Er  Er1  1  0.607665  0.830317  0.191021  1
  Er  Er2  1  0.733977  0.498427  0.809536  1
  Er  Er3  1  0.266023  0.501573  0.190464  1
  Al  Al4  1  0.682635  0.834281  0.944737  1
  Al  Al5  1  0.317365  0.165719  0.055263  1
  Al  Al6  1  0.145303  0.838758  0.562474  1
  Al  Al7  1  0.854697  0.161242  0.437526  1
  Al  Al8  1  0.486972  0.160155  0.559926  1
  Al  Al9  1  0.513028  0.839845  0.440074  1
  Al  Al10  1  0.223992  0.160158  0.325184  1
  Al  Al11  1  0.776008  0.839842  0.674816  1
  Al  Al12  1  0.439558  0.506716  0.675383  1
  Al  Al13  1  0.560442  0.493284  0.324617  1
  Al  Al14  1  0.108583  0.154315  0.673697  1
  Al  Al15  1  0.891417  0.845685  0.326303  1
  Al  Al16  1  0.354158  0.498561  0.944568  1
  Al  Al17  1  0.645842  0.501439  0.055432  1
  Al  Al18  1  0.015625  0.167661  0.953653  1
  Al  Al19  1  0.984375  0.832339  0.046347  1
  Al  Al20  1  0.194869  0.499753  0.437182  1
  Al  Al21  1  0.805131  0.500247  0.562818  1
  Al  Al22  1  0.731502  0.164199  0.183181  1
  Al  Al23  1  0.268498  0.835801  0.816819  1
  Al  Al24  1  0.060478  0.634044  0.818246  1
  Al  Al25  1  0.939522  0.365956  0.181754  1
  Al  Al26  1  0.853133  0.043544  0.816377  1
  Al  Al27  1  0.146867  0.956456  0.183623  1
  Pd  Pd28  1  0.657203  0.171370  0.999721  1
  Pd  Pd29  1  0.342797  0.828630  0.000279  1
  Pd  Pd30  1  0.537601  0.167049  0.361978  1
  Pd  Pd31  1  0.462399  0.832951  0.638022  1
  Pd  Pd32  1  0.779132  0.175316  0.637088  1
  Pd  Pd33  1  0.220868  0.824684  0.362912  1
  Pd  Pd34  1  0.000000  0.500000  0.000000  1
  Au  Au35  1  0.119707  0.490947  0.638228  1
  Au  Au36  1  0.880293  0.509053  0.361772  1
