# generated using pymatgen
data_Tb9Ho(InBi2)2
_symmetry_space_group_name_H-M   'P 1'
_cell_length_a   9.12717215
_cell_length_b   9.14955644
_cell_length_c   6.56985019
_cell_angle_alpha   90.00586552
_cell_angle_beta   90.02029376
_cell_angle_gamma   120.04206604
_symmetry_Int_Tables_number   1
_chemical_formula_structural   Tb9Ho(InBi2)2
_chemical_formula_sum   'Tb9 Ho1 In2 Bi4'
_cell_volume   474.93927295
_cell_formula_units_Z   1
loop_
 _symmetry_equiv_pos_site_id
 _symmetry_equiv_pos_as_xyz
  1  'x, y, z'
loop_
 _atom_site_type_symbol
 _atom_site_label
 _atom_site_symmetry_multiplicity
 _atom_site_fract_x
 _atom_site_fract_y
 _atom_site_fract_z
 _atom_site_occupancy
  Tb  Tb0  1  0.339159  0.668280  0.998127  1
  Tb  Tb1  1  0.339482  0.668567  0.502184  1
  Tb  Tb2  1  0.660345  0.328166  0.502172  1
  Tb  Tb3  1  0.755824  0.764327  0.750169  1
  Tb  Tb4  1  0.243175  0.008593  0.750075  1
  Tb  Tb5  1  0.000596  0.235699  0.750177  1
  Tb  Tb6  1  0.239567  0.238233  0.249759  1
  Tb  Tb7  1  0.761596  0.997950  0.249737  1
  Tb  Tb8  1  0.999445  0.760806  0.249905  1
  Ho  Ho9  1  0.660049  0.328055  0.997226  1
  In  In10  1  0.393818  0.394588  0.750780  1
  In  In11  1  0.606672  0.002547  0.750865  1
  Bi  Bi12  1  0.999988  0.609962  0.750581  1
  Bi  Bi13  1  0.608890  0.605224  0.249193  1
  Bi  Bi14  1  0.392516  0.997162  0.249569  1
  Bi  Bi15  1  0.998880  0.391843  0.249480  1
