# generated using pymatgen
data_Li4CeDy3Si8
_symmetry_space_group_name_H-M   'P 1'
_cell_length_a   3.81215000
_cell_length_b   7.62761337
_cell_length_c   10.25918193
_cell_angle_alpha   90.06951680
_cell_angle_beta   90.00000000
_cell_angle_gamma   90.00000000
_symmetry_Int_Tables_number   1
_chemical_formula_structural   Li4CeDy3Si8
_chemical_formula_sum   'Li4 Ce1 Dy3 Si8'
_cell_volume   298.31223373
_cell_formula_units_Z   1
loop_
 _symmetry_equiv_pos_site_id
 _symmetry_equiv_pos_as_xyz
  1  'x, y, z'
loop_
 _atom_site_type_symbol
 _atom_site_label
 _atom_site_symmetry_multiplicity
 _atom_site_fract_x
 _atom_site_fract_y
 _atom_site_fract_z
 _atom_site_occupancy
  Li  Li0  1  0.250000  0.991946  0.391335  1
  Li  Li1  1  0.250000  0.492172  0.107135  1
  Li  Li2  1  0.750000  0.008097  0.609986  1
  Li  Li3  1  0.750000  0.507699  0.891713  1
  Ce  Ce4  1  0.750000  0.358329  0.363918  1
  Dy  Dy5  1  0.250000  0.137308  0.864290  1
  Dy  Dy6  1  0.250000  0.636737  0.635416  1
  Dy  Dy7  1  0.750000  0.864521  0.134791  1
  Si  Si8  1  0.250000  0.232927  0.570294  1
  Si  Si9  1  0.250000  0.731407  0.931835  1
  Si  Si10  1  0.750000  0.772474  0.430985  1
  Si  Si11  1  0.750000  0.266254  0.066863  1
  Si  Si12  1  0.250000  0.659811  0.320310  1
  Si  Si13  1  0.250000  0.158424  0.178672  1
  Si  Si14  1  0.750000  0.339926  0.682298  1
  Si  Si15  1  0.750000  0.841966  0.820159  1
