# generated using pymatgen
data_Er11Tm(Si3Au)4
_symmetry_space_group_name_H-M   'P 1'
_cell_length_a   4.18684000
_cell_length_b   10.91637228
_cell_length_c   12.27728600
_cell_angle_alpha   90.01294832
_cell_angle_beta   90.00000000
_cell_angle_gamma   90.00000000
_symmetry_Int_Tables_number   1
_chemical_formula_structural   Er11Tm(Si3Au)4
_chemical_formula_sum   'Er11 Tm1 Si12 Au4'
_cell_volume   561.13462051
_cell_formula_units_Z   1
loop_
 _symmetry_equiv_pos_site_id
 _symmetry_equiv_pos_as_xyz
  1  'x, y, z'
loop_
 _atom_site_type_symbol
 _atom_site_label
 _atom_site_symmetry_multiplicity
 _atom_site_fract_x
 _atom_site_fract_y
 _atom_site_fract_z
 _atom_site_occupancy
  Er  Er0  1  0.250000  0.875107  0.019799  1
  Er  Er1  1  0.250000  0.625160  0.519628  1
  Er  Er2  1  0.750000  0.124822  0.979207  1
  Er  Er3  1  0.750000  0.375013  0.480472  1
  Er  Er4  1  0.250000  0.924186  0.601530  1
  Er  Er5  1  0.250000  0.575899  0.101503  1
  Er  Er6  1  0.750000  0.076237  0.400368  1
  Er  Er7  1  0.750000  0.423581  0.897712  1
  Er  Er8  1  0.250000  0.665580  0.802087  1
  Er  Er9  1  0.250000  0.835151  0.302246  1
  Er  Er10  1  0.750000  0.333007  0.198019  1
  Tm  Tm11  1  0.750000  0.165264  0.698232  1
  Si  Si12  1  0.250000  0.028434  0.826298  1
  Si  Si13  1  0.250000  0.471113  0.326477  1
  Si  Si14  1  0.750000  0.972232  0.173581  1
  Si  Si15  1  0.750000  0.528696  0.673322  1
  Si  Si16  1  0.250000  0.248565  0.847379  1
  Si  Si17  1  0.250000  0.251148  0.348601  1
  Si  Si18  1  0.750000  0.751700  0.152246  1
  Si  Si19  1  0.750000  0.748557  0.651968  1
  Si  Si20  1  0.250000  0.182480  0.537207  1
  Si  Si21  1  0.250000  0.318305  0.035550  1
  Si  Si22  1  0.750000  0.818332  0.464245  1
  Si  Si23  1  0.750000  0.681271  0.964388  1
  Au  Au24  1  0.250000  0.391251  0.681491  1
  Au  Au25  1  0.250000  0.108772  0.183219  1
  Au  Au26  1  0.750000  0.608054  0.317028  1
  Au  Au27  1  0.750000  0.892078  0.816197  1
