# generated using pymatgen
data_Tb2Dy3Ho3Au4
_symmetry_space_group_name_H-M   'P 1'
_cell_length_a   4.94268600
_cell_length_b   7.12807583
_cell_length_c   8.95587381
_cell_angle_alpha   90.09103127
_cell_angle_beta   90.00000000
_cell_angle_gamma   90.00000000
_symmetry_Int_Tables_number   1
_chemical_formula_structural   Tb2Dy3Ho3Au4
_chemical_formula_sum   'Tb2 Dy3 Ho3 Au4'
_cell_volume   315.53152032
_cell_formula_units_Z   1
loop_
 _symmetry_equiv_pos_site_id
 _symmetry_equiv_pos_as_xyz
  1  'x, y, z'
loop_
 _atom_site_type_symbol
 _atom_site_label
 _atom_site_symmetry_multiplicity
 _atom_site_fract_x
 _atom_site_fract_y
 _atom_site_fract_z
 _atom_site_occupancy
  Tb  Tb0  1  0.250000  0.486682  0.176786  1
  Tb  Tb1  1  0.750000  0.513142  0.823257  1
  Dy  Dy2  1  0.250000  0.987146  0.323401  1
  Dy  Dy3  1  0.750000  0.013416  0.676714  1
  Dy  Dy4  1  0.750000  0.648667  0.419418  1
  Ho  Ho5  1  0.250000  0.351423  0.580695  1
  Ho  Ho6  1  0.750000  0.148301  0.080409  1
  Ho  Ho7  1  0.250000  0.851798  0.919471  1
  Au  Au8  1  0.250000  0.256103  0.900568  1
  Au  Au9  1  0.750000  0.743944  0.098731  1
  Au  Au10  1  0.250000  0.756992  0.599649  1
  Au  Au11  1  0.750000  0.242385  0.400900  1
