# generated using pymatgen
data_La4PrSmOsI10
_symmetry_space_group_name_H-M   'P 1'
_cell_length_a   8.14421545
_cell_length_b   10.17144748
_cell_length_c   10.03700112
_cell_angle_alpha   107.06345586
_cell_angle_beta   96.94437225
_cell_angle_gamma   105.98597202
_symmetry_Int_Tables_number   1
_chemical_formula_structural   La4PrSmOsI10
_chemical_formula_sum   'La4 Pr1 Sm1 Os1 I10'
_cell_volume   745.47844273
_cell_formula_units_Z   1
loop_
 _symmetry_equiv_pos_site_id
 _symmetry_equiv_pos_as_xyz
  1  'x, y, z'
loop_
 _atom_site_type_symbol
 _atom_site_label
 _atom_site_symmetry_multiplicity
 _atom_site_fract_x
 _atom_site_fract_y
 _atom_site_fract_z
 _atom_site_occupancy
  La  La0  1  0.860821  0.134385  0.678237  1
  La  La1  1  0.139365  0.863978  0.321671  1
  La  La2  1  0.386009  0.956121  0.727122  1
  La  La3  1  0.613791  0.042365  0.272258  1
  Pr  Pr4  1  0.468461  0.294325  0.588092  1
  Sm  Sm5  1  0.530188  0.708899  0.412313  1
  Os  Os6  1  0.499930  0.998945  0.499606  1
  I  I7  1  0.417011  0.629631  0.675077  1
  I  I8  1  0.584288  0.373233  0.321682  1
  I  I9  1  0.294592  0.262149  0.850828  1
  I  I10  1  0.702827  0.736432  0.152312  1
  I  I11  1  0.853018  0.458434  0.772339  1
  I  I12  1  0.152529  0.542558  0.229856  1
  I  I13  1  0.048012  0.181963  0.410029  1
  I  I14  1  0.241179  0.913867  0.037322  1
  I  I15  1  0.758699  0.085904  0.962732  1
  I  I16  1  0.949282  0.816809  0.588524  1
