# generated using pymatgen
data_MnSF34
_symmetry_space_group_name_H-M   'P 1'
_cell_length_a   8.66078726
_cell_length_b   8.09974730
_cell_length_c   10.21789684
_cell_angle_alpha   80.43177780
_cell_angle_beta   87.71562976
_cell_angle_gamma   67.26761926
_symmetry_Int_Tables_number   1
_chemical_formula_structural   MnSF34
_chemical_formula_sum   'Mn1 S1 F34'
_cell_volume   651.67602060
_cell_formula_units_Z   1
loop_
 _symmetry_equiv_pos_site_id
 _symmetry_equiv_pos_as_xyz
  1  'x, y, z'
loop_
 _atom_site_type_symbol
 _atom_site_label
 _atom_site_symmetry_multiplicity
 _atom_site_fract_x
 _atom_site_fract_y
 _atom_site_fract_z
 _atom_site_occupancy
  Mn  Mn0  1  0.142449  0.750441  0.227756  1
  S  S1  1  0.864186  0.246554  0.763478  1
  F  F2  1  0.618262  0.205265  0.480799  1
  F  F3  1  0.388942  0.780345  0.519070  1
  F  F4  1  0.828690  0.723487  0.720096  1
  F  F5  1  0.156456  0.318730  0.302857  1
  F  F6  1  0.110116  0.726047  0.875125  1
  F  F7  1  0.919187  0.219657  0.146345  1
  F  F8  1  0.556950  0.149159  0.375590  1
  F  F9  1  0.443075  0.853189  0.618163  1
  F  F10  1  0.675320  0.316125  0.708397  1
  F  F11  1  0.347734  0.668145  0.298514  1
  F  F12  1  0.918880  0.086018  0.677966  1
  F  F13  1  0.067153  0.902541  0.358450  1
  F  F14  1  0.903552  0.374020  0.641432  1
  F  F15  1  0.080306  0.631419  0.382873  1
  F  F16  1  0.872571  0.798530  0.595307  1
  F  F17  1  0.147917  0.165824  0.389822  1
  F  F18  1  0.809468  0.407443  0.849026  1
  F  F19  1  0.202118  0.563874  0.141982  1
  F  F20  1  0.211722  0.698274  0.761646  1
  F  F21  1  0.780211  0.314308  0.220844  1
  F  F22  1  0.932753  0.826147  0.168244  1
  F  F23  1  0.052175  0.177686  0.818935  1
  F  F24  1  0.823818  0.118992  0.885050  1
  F  F25  1  0.182721  0.906219  0.104758  1
  F  F26  1  0.495827  0.598903  0.982581  1
  F  F27  1  0.509547  0.415451  0.005842  1
  F  F28  1  0.441303  0.100187  0.868997  1
  F  F29  1  0.522839  0.917833  0.139086  1
  F  F30  1  0.285609  0.256194  0.602726  1
  F  F31  1  0.705187  0.745388  0.390176  1
  F  F32  1  0.256315  0.407051  0.668920  1
  F  F33  1  0.753923  0.595480  0.320357  1
  F  F34  1  0.552055  0.933045  0.832169  1
  F  F35  1  0.440662  0.102034  0.156620  1
