# generated using pymatgen
data_Er4Si7Tc6Ge
_symmetry_space_group_name_H-M   'P 1'
_cell_length_a   6.79499249
_cell_length_b   6.76435856
_cell_length_c   6.78291124
_cell_angle_alpha   69.88981357
_cell_angle_beta   90.31582279
_cell_angle_gamma   90.93132495
_symmetry_Int_Tables_number   1
_chemical_formula_structural   Er4Si7Tc6Ge
_chemical_formula_sum   'Er4 Si7 Tc6 Ge1'
_cell_volume   292.72194133
_cell_formula_units_Z   1
loop_
 _symmetry_equiv_pos_site_id
 _symmetry_equiv_pos_as_xyz
  1  'x, y, z'
loop_
 _atom_site_type_symbol
 _atom_site_label
 _atom_site_symmetry_multiplicity
 _atom_site_fract_x
 _atom_site_fract_y
 _atom_site_fract_z
 _atom_site_occupancy
  Er  Er0  1  0.670346  0.441272  0.192917  1
  Er  Er1  1  0.165661  0.055896  0.807248  1
  Er  Er2  1  0.329771  0.561489  0.804546  1
  Er  Er3  1  0.828394  0.944916  0.189784  1
  Si  Si4  1  0.952475  0.379226  0.901017  1
  Si  Si5  1  0.550337  0.874387  0.896426  1
  Si  Si6  1  0.048079  0.632082  0.098978  1
  Si  Si7  1  0.859048  0.130134  0.512193  1
  Si  Si8  1  0.364158  0.363244  0.495853  1
  Si  Si9  1  0.147203  0.872068  0.470605  1
  Si  Si10  1  0.643753  0.628946  0.511130  1
  Tc  Tc11  1  0.496327  0.996235  0.504541  1
  Tc  Tc12  1  0.002767  0.507980  0.501308  1
  Tc  Tc13  1  0.141898  0.256721  0.248718  1
  Tc  Tc14  1  0.658730  0.256285  0.760166  1
  Tc  Tc15  1  0.844204  0.755732  0.762258  1
  Tc  Tc16  1  0.358020  0.721386  0.236090  1
  Ge  Ge17  1  0.438830  0.122002  0.106221  1
