# generated using pymatgen
data_Er2Ga2Co5NiB2
_symmetry_space_group_name_H-M   'P 1'
_cell_length_a   5.12633908
_cell_length_b   5.12633931
_cell_length_c   6.68253800
_cell_angle_alpha   90.00000000
_cell_angle_beta   90.00000000
_cell_angle_gamma   119.64878631
_symmetry_Int_Tables_number   1
_chemical_formula_structural   Er2Ga2Co5NiB2
_chemical_formula_sum   'Er2 Ga2 Co5 Ni1 B2'
_cell_volume   152.62050547
_cell_formula_units_Z   1
loop_
 _symmetry_equiv_pos_site_id
 _symmetry_equiv_pos_as_xyz
  1  'x, y, z'
loop_
 _atom_site_type_symbol
 _atom_site_label
 _atom_site_symmetry_multiplicity
 _atom_site_fract_x
 _atom_site_fract_y
 _atom_site_fract_z
 _atom_site_occupancy
  Er  Er0  1  0.000000  0.000000  0.003101  1
  Er  Er1  1  0.000000  0.000000  0.498581  1
  Ga  Ga2  1  0.668188  0.331812  0.000886  1
  Ga  Ga3  1  0.331812  0.668188  0.000886  1
  Co  Co4  1  0.500000  0.000000  0.704552  1
  Co  Co5  1  0.000000  0.500000  0.704552  1
  Co  Co6  1  0.500000  0.500000  0.294755  1
  Co  Co7  1  0.500000  0.000000  0.295092  1
  Co  Co8  1  0.000000  0.500000  0.295092  1
  Ni  Ni9  1  0.500000  0.500000  0.705537  1
  B  B10  1  0.669580  0.330420  0.498483  1
  B  B11  1  0.330420  0.669580  0.498483  1
