# generated using pymatgen
data_Tb16CdHg3(IrRh)2
_symmetry_space_group_name_H-M   'P 1'
_cell_length_a   9.63691228
_cell_length_b   9.64208533
_cell_length_c   9.62602300
_cell_angle_alpha   60.05508738
_cell_angle_beta   60.03736814
_cell_angle_gamma   60.12275770
_symmetry_Int_Tables_number   1
_chemical_formula_structural   Tb16CdHg3(IrRh)2
_chemical_formula_sum   'Tb16 Cd1 Hg3 Ir2 Rh2'
_cell_volume   633.49867697
_cell_formula_units_Z   1
loop_
 _symmetry_equiv_pos_site_id
 _symmetry_equiv_pos_as_xyz
  1  'x, y, z'
loop_
 _atom_site_type_symbol
 _atom_site_label
 _atom_site_symmetry_multiplicity
 _atom_site_fract_x
 _atom_site_fract_y
 _atom_site_fract_z
 _atom_site_occupancy
  Tb  Tb0  1  0.600521  0.600030  0.598762  1
  Tb  Tb1  1  0.600521  0.600030  0.200688  1
  Tb  Tb2  1  0.601896  0.198572  0.599766  1
  Tb  Tb3  1  0.195590  0.602543  0.600935  1
  Tb  Tb4  1  0.059102  0.439808  0.440520  1
  Tb  Tb5  1  0.438495  0.060137  0.061281  1
  Tb  Tb6  1  0.438495  0.060137  0.440087  1
  Tb  Tb7  1  0.059102  0.439808  0.060570  1
  Tb  Tb8  1  0.438986  0.439721  0.060646  1
  Tb  Tb9  1  0.059423  0.059823  0.440377  1
  Tb  Tb10  1  0.187219  0.813215  0.812138  1
  Tb  Tb11  1  0.812619  0.188000  0.187122  1
  Tb  Tb12  1  0.812619  0.188000  0.812260  1
  Tb  Tb13  1  0.187219  0.813215  0.187430  1
  Tb  Tb14  1  0.811386  0.812131  0.188242  1
  Tb  Tb15  1  0.186201  0.187404  0.813198  1
  Cd  Cd16  1  0.509190  0.830122  0.830344  1
  Hg  Hg17  1  0.833868  0.835662  0.835407  1
  Hg  Hg18  1  0.833868  0.835662  0.495064  1
  Hg  Hg19  1  0.834049  0.494335  0.835809  1
  Ir  Ir20  1  0.392226  0.823687  0.392043  1
  Ir  Ir21  1  0.823659  0.392817  0.391762  1
  Rh  Rh22  1  0.391876  0.392571  0.391183  1
  Rh  Rh23  1  0.391876  0.392571  0.824371  1
