# generated using pymatgen
data_Th10ZnSn4Bi3
_symmetry_space_group_name_H-M   'P 1'
_cell_length_a   9.69120173
_cell_length_b   9.68197059
_cell_length_c   6.61817618
_cell_angle_alpha   90.03427843
_cell_angle_beta   89.93151435
_cell_angle_gamma   120.03154441
_symmetry_Int_Tables_number   1
_chemical_formula_structural   Th10ZnSn4Bi3
_chemical_formula_sum   'Th10 Zn1 Sn4 Bi3'
_cell_volume   537.61565336
_cell_formula_units_Z   1
loop_
 _symmetry_equiv_pos_site_id
 _symmetry_equiv_pos_as_xyz
  1  'x, y, z'
loop_
 _atom_site_type_symbol
 _atom_site_label
 _atom_site_symmetry_multiplicity
 _atom_site_fract_x
 _atom_site_fract_y
 _atom_site_fract_z
 _atom_site_occupancy
  Th  Th0  1  0.004394  0.723706  0.762191  1
  Th  Th1  1  0.280688  0.276294  0.762191  1
  Th  Th2  1  0.333714  0.670065  0.497187  1
  Th  Th3  1  0.663650  0.329935  0.497187  1
  Th  Th4  1  0.720631  0.720926  0.238316  1
  Th  Th5  1  0.718309  0.000000  0.762021  1
  Th  Th6  1  0.999705  0.279074  0.238316  1
  Th  Th7  1  0.280450  0.000000  0.238597  1
  Th  Th8  1  0.334052  0.669588  0.002391  1
  Th  Th9  1  0.664465  0.330412  0.002391  1
  Zn  Zn10  1  0.000007  0.000000  0.001201  1
  Sn  Sn11  1  0.379164  0.000000  0.748107  1
  Sn  Sn12  1  0.621272  0.000000  0.251780  1
  Sn  Sn13  1  0.378757  0.378822  0.251658  1
  Sn  Sn14  1  0.999935  0.621178  0.251658  1
  Bi  Bi15  1  0.620857  0.620415  0.747271  1
  Bi  Bi16  1  0.000442  0.379585  0.747271  1
  Bi  Bi17  1  0.999506  0.000000  0.500262  1
