# generated using pymatgen
data_Mn2Ag(MoO4)3
_symmetry_space_group_name_H-M   'P 1'
_cell_length_a   7.04712639
_cell_length_b   7.28117830
_cell_length_c   11.37929731
_cell_angle_alpha   83.77152779
_cell_angle_beta   79.95775322
_cell_angle_gamma   81.86854921
_symmetry_Int_Tables_number   1
_chemical_formula_structural   Mn2Ag(MoO4)3
_chemical_formula_sum   'Mn4 Ag2 Mo6 O24'
_cell_volume   567.05307337
_cell_formula_units_Z   2
loop_
 _symmetry_equiv_pos_site_id
 _symmetry_equiv_pos_as_xyz
  1  'x, y, z'
loop_
 _atom_site_type_symbol
 _atom_site_label
 _atom_site_symmetry_multiplicity
 _atom_site_fract_x
 _atom_site_fract_y
 _atom_site_fract_z
 _atom_site_occupancy
  Mn  Mn0  1  0.170871  0.809725  0.511166  1
  Mn  Mn1  1  0.779292  0.770488  0.112539  1
  Mn  Mn2  1  0.220708  0.229512  0.887461  1
  Mn  Mn3  1  0.829129  0.190275  0.488834  1
  Ag  Ag4  1  0.422519  0.186108  0.158236  1
  Ag  Ag5  1  0.577481  0.813892  0.841764  1
  Mo  Mo6  1  0.710163  0.722829  0.445703  1
  Mo  Mo7  1  0.289837  0.277171  0.554297  1
  Mo  Mo8  1  0.902217  0.241486  0.144081  1
  Mo  Mo9  1  0.720730  0.287744  0.814722  1
  Mo  Mo10  1  0.279270  0.712256  0.185278  1
  Mo  Mo11  1  0.097783  0.758514  0.855919  1
  O  O12  1  0.500946  0.786458  0.091571  1
  O  O13  1  0.791860  0.490158  0.492307  1
  O  O14  1  0.470861  0.786322  0.521174  1
  O  O15  1  0.765466  0.167189  0.683662  1
  O  O16  1  0.499054  0.213542  0.908429  1
  O  O17  1  0.529139  0.213678  0.478826  1
  O  O18  1  0.936679  0.238771  0.889509  1
  O  O19  1  0.843629  0.811017  0.937588  1
  O  O20  1  0.259538  0.924022  0.871725  1
  O  O21  1  0.287101  0.258455  0.715693  1
  O  O22  1  0.867731  0.876957  0.484798  1
  O  O23  1  0.317623  0.472558  0.227985  1
  O  O24  1  0.682377  0.527442  0.772015  1
  O  O25  1  0.199598  0.529152  0.897089  1
  O  O26  1  0.800402  0.470848  0.102911  1
  O  O27  1  0.208140  0.509842  0.507693  1
  O  O28  1  0.740462  0.075978  0.128275  1
  O  O29  1  0.712899  0.741545  0.284307  1
  O  O30  1  0.919826  0.226131  0.297551  1
  O  O31  1  0.156371  0.188983  0.062412  1
  O  O32  1  0.080174  0.773869  0.702449  1
  O  O33  1  0.063321  0.761229  0.110491  1
  O  O34  1  0.132269  0.123043  0.515202  1
  O  O35  1  0.234534  0.832811  0.316338  1
