# generated using pymatgen
data_Er3Al4Ni9B2
_symmetry_space_group_name_H-M   'P 1'
_cell_length_a   5.16685600
_cell_length_b   5.16673947
_cell_length_c   10.59382200
_cell_angle_alpha   90.00000000
_cell_angle_beta   90.00000000
_cell_angle_gamma   120.00074606
_symmetry_Int_Tables_number   1
_chemical_formula_structural   Er3Al4Ni9B2
_chemical_formula_sum   'Er3 Al4 Ni9 B2'
_cell_volume   244.91927182
_cell_formula_units_Z   1
loop_
 _symmetry_equiv_pos_site_id
 _symmetry_equiv_pos_as_xyz
  1  'x, y, z'
loop_
 _atom_site_type_symbol
 _atom_site_label
 _atom_site_symmetry_multiplicity
 _atom_site_fract_x
 _atom_site_fract_y
 _atom_site_fract_z
 _atom_site_occupancy
  Er  Er0  1  0.500000  0.000000  0.000000  1
  Er  Er1  1  0.500000  0.000000  0.662585  1
  Er  Er2  1  0.500000  0.000000  0.337415  1
  Al  Al3  1  0.833317  0.666632  0.683705  1
  Al  Al4  1  0.166683  0.333368  0.683705  1
  Al  Al5  1  0.166683  0.333368  0.316295  1
  Al  Al6  1  0.833317  0.666632  0.316295  1
  Ni  Ni7  1  0.000000  0.000000  0.500000  1
  Ni  Ni8  1  0.500000  0.500000  0.500000  1
  Ni  Ni9  1  0.000000  0.500000  0.500000  1
  Ni  Ni10  1  0.000000  0.000000  0.870742  1
  Ni  Ni11  1  0.500000  0.500000  0.870744  1
  Ni  Ni12  1  0.000000  0.500000  0.870744  1
  Ni  Ni13  1  0.000000  0.000000  0.129258  1
  Ni  Ni14  1  0.500000  0.500000  0.129256  1
  Ni  Ni15  1  0.000000  0.500000  0.129256  1
  B  B16  1  0.833360  0.666719  0.000000  1
  B  B17  1  0.166640  0.333281  0.000000  1
