# generated using pymatgen
data_Yb3Tm(Ru2O7)2
_symmetry_space_group_name_H-M   'P 1'
_cell_length_a   7.20379657
_cell_length_b   7.19443242
_cell_length_c   7.20379600
_cell_angle_alpha   59.95693728
_cell_angle_beta   60.00000263
_cell_angle_gamma   59.95693640
_symmetry_Int_Tables_number   1
_chemical_formula_structural   Yb3Tm(Ru2O7)2
_chemical_formula_sum   'Yb3 Tm1 Ru4 O14'
_cell_volume   263.82831613
_cell_formula_units_Z   1
loop_
 _symmetry_equiv_pos_site_id
 _symmetry_equiv_pos_as_xyz
  1  'x, y, z'
loop_
 _atom_site_type_symbol
 _atom_site_label
 _atom_site_symmetry_multiplicity
 _atom_site_fract_x
 _atom_site_fract_y
 _atom_site_fract_z
 _atom_site_occupancy
  Yb  Yb0  1  0.125000  0.125000  0.625000  1
  Yb  Yb1  1  0.125000  0.125000  0.125000  1
  Yb  Yb2  1  0.625000  0.125000  0.125000  1
  Tm  Tm3  1  0.125000  0.625000  0.125000  1
  Ru  Ru4  1  0.625000  0.625000  0.625000  1
  Ru  Ru5  1  0.125000  0.625000  0.625000  1
  Ru  Ru6  1  0.625000  0.125000  0.625000  1
  Ru  Ru7  1  0.625000  0.625000  0.125000  1
  O  O8  1  0.543785  0.551262  0.952476  1
  O  O9  1  0.952476  0.551262  0.952476  1
  O  O10  1  0.300743  0.303058  0.698100  1
  O  O11  1  0.003973  0.988080  0.003973  1
  O  O12  1  0.297524  0.698738  0.706215  1
  O  O13  1  0.706215  0.698738  0.297524  1
  O  O14  1  0.698100  0.303058  0.300743  1
  O  O15  1  0.551900  0.946942  0.551900  1
  O  O16  1  0.698100  0.303058  0.698100  1
  O  O17  1  0.551900  0.946942  0.949257  1
  O  O18  1  0.949257  0.946942  0.551900  1
  O  O19  1  0.246027  0.261920  0.246027  1
  O  O20  1  0.297524  0.698738  0.297524  1
  O  O21  1  0.952476  0.551262  0.543785  1
