# generated using pymatgen
data_Y5Er3Mg2(SiB4)4
_symmetry_space_group_name_H-M   'P 1'
_cell_length_a   7.15968619
_cell_length_b   7.15968619
_cell_length_c   7.82317300
_cell_angle_alpha   89.99778949
_cell_angle_beta   89.99778949
_cell_angle_gamma   89.97391165
_symmetry_Int_Tables_number   1
_chemical_formula_structural   Y5Er3Mg2(SiB4)4
_chemical_formula_sum   'Y5 Er3 Mg2 Si4 B16'
_cell_volume   401.02446070
_cell_formula_units_Z   1
loop_
 _symmetry_equiv_pos_site_id
 _symmetry_equiv_pos_as_xyz
  1  'x, y, z'
loop_
 _atom_site_type_symbol
 _atom_site_label
 _atom_site_symmetry_multiplicity
 _atom_site_fract_x
 _atom_site_fract_y
 _atom_site_fract_z
 _atom_site_occupancy
  Y  Y0  1  0.817131  0.682976  0.234005  1
  Y  Y1  1  0.817129  0.682935  0.765935  1
  Y  Y2  1  0.682712  0.182712  0.765975  1
  Y  Y3  1  0.182935  0.317129  0.765935  1
  Y  Y4  1  0.182976  0.317131  0.234005  1
  Er  Er5  1  0.682731  0.182731  0.232507  1
  Er  Er6  1  0.317067  0.817067  0.767531  1
  Er  Er7  1  0.317197  0.817197  0.232410  1
  Mg  Mg8  1  0.000255  0.999861  0.499798  1
  Mg  Mg9  1  0.499861  0.500255  0.499798  1
  Si  Si10  1  0.116337  0.616337  0.499877  1
  Si  Si11  1  0.884345  0.384345  0.499300  1
  Si  Si12  1  0.384568  0.114544  0.499436  1
  Si  Si13  1  0.614544  0.884568  0.499436  1
  B  B14  1  0.173939  0.039146  0.000145  1
  B  B15  1  0.826388  0.960384  0.000392  1
  B  B16  1  0.960016  0.173510  0.000235  1
  B  B17  1  0.326269  0.540462  0.000149  1
  B  B18  1  0.040462  0.826269  0.000149  1
  B  B19  1  0.673510  0.460016  0.000235  1
  B  B20  1  0.539146  0.673939  0.000145  1
  B  B21  1  0.460384  0.326388  0.000392  1
  B  B22  1  0.089694  0.589694  0.000066  1
  B  B23  1  0.910462  0.410462  0.000210  1
  B  B24  1  0.410622  0.089075  0.000516  1
  B  B25  1  0.589075  0.910622  0.000516  1
  B  B26  1  0.000014  0.999938  0.163072  1
  B  B27  1  0.000597  0.999694  0.837379  1
  B  B28  1  0.499694  0.500597  0.837379  1
  B  B29  1  0.499938  0.500014  0.163072  1
