# generated using pymatgen
data_Y4Sc4Tc(B8Ir)3
_symmetry_space_group_name_H-M   'P 1'
_cell_length_a   3.56660200
_cell_length_b   8.99616273
_cell_length_c   11.38648040
_cell_angle_alpha   90.04948600
_cell_angle_beta   90.00000000
_cell_angle_gamma   90.00000000
_symmetry_Int_Tables_number   1
_chemical_formula_structural   Y4Sc4Tc(B8Ir)3
_chemical_formula_sum   'Y4 Sc4 Tc1 B24 Ir3'
_cell_volume   365.34342200
_cell_formula_units_Z   1
loop_
 _symmetry_equiv_pos_site_id
 _symmetry_equiv_pos_as_xyz
  1  'x, y, z'
loop_
 _atom_site_type_symbol
 _atom_site_label
 _atom_site_symmetry_multiplicity
 _atom_site_fract_x
 _atom_site_fract_y
 _atom_site_fract_z
 _atom_site_occupancy
  Y  Y0  1  0.500000  0.316129  0.410528  1
  Y  Y1  1  0.500000  0.680961  0.586237  1
  Y  Y2  1  0.500000  0.180774  0.916773  1
  Y  Y3  1  0.500000  0.822053  0.087330  1
  Sc  Sc4  1  0.500000  0.440815  0.123944  1
  Sc  Sc5  1  0.500000  0.555843  0.876253  1
  Sc  Sc6  1  0.500000  0.055489  0.624251  1
  Sc  Sc7  1  0.500000  0.947863  0.373933  1
  Tc  Tc8  1  0.500000  0.139831  0.181349  1
  B  B9  1  0.000000  0.099449  0.473572  1
  B  B10  1  0.000000  0.900010  0.527547  1
  B  B11  1  0.000000  0.400878  0.972310  1
  B  B12  1  0.000000  0.600824  0.027022  1
  B  B13  1  0.000000  0.128592  0.316515  1
  B  B14  1  0.000000  0.870964  0.681717  1
  B  B15  1  0.000000  0.371801  0.818397  1
  B  B16  1  0.000000  0.628647  0.182308  1
  B  B17  1  0.000000  0.054451  0.067000  1
  B  B18  1  0.000000  0.945633  0.933560  1
  B  B19  1  0.000000  0.444771  0.565965  1
  B  B20  1  0.000000  0.554029  0.433427  1
  B  B21  1  0.000000  0.480899  0.285069  1
  B  B22  1  0.000000  0.519236  0.715041  1
  B  B23  1  0.000000  0.019358  0.785056  1
  B  B24  1  0.000000  0.980910  0.214652  1
  B  B25  1  0.000000  0.253505  0.081328  1
  B  B26  1  0.000000  0.746147  0.919935  1
  B  B27  1  0.000000  0.245361  0.580184  1
  B  B28  1  0.000000  0.754314  0.419584  1
  B  B29  1  0.000000  0.294321  0.234053  1
  B  B30  1  0.000000  0.705478  0.764895  1
  B  B31  1  0.000000  0.206114  0.735307  1
  B  B32  1  0.000000  0.794313  0.266035  1
  Ir  Ir33  1  0.500000  0.860382  0.819090  1
  Ir  Ir34  1  0.500000  0.360015  0.680555  1
  Ir  Ir35  1  0.500000  0.639844  0.319277  1
