# generated using pymatgen
data_U3AgPt12
_symmetry_space_group_name_H-M   'P 1'
_cell_length_a   5.81258500
_cell_length_b   5.81258501
_cell_length_c   9.55645800
_cell_angle_alpha   90.00000000
_cell_angle_beta   90.00000000
_cell_angle_gamma   120.00000561
_symmetry_Int_Tables_number   1
_chemical_formula_structural   U3AgPt12
_chemical_formula_sum   'U3 Ag1 Pt12'
_cell_volume   279.61869040
_cell_formula_units_Z   1
loop_
 _symmetry_equiv_pos_site_id
 _symmetry_equiv_pos_as_xyz
  1  'x, y, z'
loop_
 _atom_site_type_symbol
 _atom_site_label
 _atom_site_symmetry_multiplicity
 _atom_site_fract_x
 _atom_site_fract_y
 _atom_site_fract_z
 _atom_site_occupancy
  U  U0  1  0.000000  0.000000  0.508694  1
  U  U1  1  0.000000  0.000000  0.991306  1
  U  U2  1  0.666667  0.333333  0.250000  1
  Ag  Ag3  1  0.333333  0.666667  0.750000  1
  Pt  Pt4  1  0.500805  0.499195  0.499143  1
  Pt  Pt5  1  0.500805  0.001609  0.499143  1
  Pt  Pt6  1  0.998391  0.499195  0.499143  1
  Pt  Pt7  1  0.500805  0.499195  0.000857  1
  Pt  Pt8  1  0.500805  0.001609  0.000857  1
  Pt  Pt9  1  0.998391  0.499195  0.000857  1
  Pt  Pt10  1  0.168654  0.831346  0.250000  1
  Pt  Pt11  1  0.168654  0.337311  0.250000  1
  Pt  Pt12  1  0.662689  0.831346  0.250000  1
  Pt  Pt13  1  0.828787  0.171213  0.750000  1
  Pt  Pt14  1  0.828787  0.657572  0.750000  1
  Pt  Pt15  1  0.342428  0.171213  0.750000  1
