# generated using pymatgen
data_YHo2(CdHg)3
_symmetry_space_group_name_H-M   'P 1'
_cell_length_a   8.09723809
_cell_length_b   8.09723814
_cell_length_c   3.86954000
_cell_angle_alpha   90.00000000
_cell_angle_beta   90.00000000
_cell_angle_gamma   120.05951573
_symmetry_Int_Tables_number   1
_chemical_formula_structural   YHo2(CdHg)3
_chemical_formula_sum   'Y1 Ho2 Cd3 Hg3'
_cell_volume   219.58518013
_cell_formula_units_Z   1
loop_
 _symmetry_equiv_pos_site_id
 _symmetry_equiv_pos_as_xyz
  1  'x, y, z'
loop_
 _atom_site_type_symbol
 _atom_site_label
 _atom_site_symmetry_multiplicity
 _atom_site_fract_x
 _atom_site_fract_y
 _atom_site_fract_z
 _atom_site_occupancy
  Y  Y0  1  0.603527  0.603527  0.499999  1
  Ho  Ho1  1  0.396556  0.000007  0.499999  1
  Ho  Ho2  1  0.000007  0.396556  0.499999  1
  Cd  Cd3  1  0.726519  0.000213  0.000000  1
  Cd  Cd4  1  0.273278  0.273278  0.000000  1
  Cd  Cd5  1  0.000213  0.726520  0.000000  1
  Hg  Hg6  1  0.666829  0.332674  0.000000  1
  Hg  Hg7  1  0.332674  0.666828  0.000000  1
  Hg  Hg8  1  0.000396  0.000396  0.499999  1
