# generated using pymatgen
data_Ho2ThIn3PdPt2
_symmetry_space_group_name_H-M   'P 1'
_cell_length_a   7.78371364
_cell_length_b   7.78667301
_cell_length_c   3.84680600
_cell_angle_alpha   90.00000000
_cell_angle_beta   90.00000000
_cell_angle_gamma   120.01257109
_symmetry_Int_Tables_number   1
_chemical_formula_structural   Ho2ThIn3PdPt2
_chemical_formula_sum   'Ho2 Th1 In3 Pd1 Pt2'
_cell_volume   201.88993853
_cell_formula_units_Z   1
loop_
 _symmetry_equiv_pos_site_id
 _symmetry_equiv_pos_as_xyz
  1  'x, y, z'
loop_
 _atom_site_type_symbol
 _atom_site_label
 _atom_site_symmetry_multiplicity
 _atom_site_fract_x
 _atom_site_fract_y
 _atom_site_fract_z
 _atom_site_occupancy
  Ho  Ho0  1  0.406972  0.408205  0.000000  1
  Ho  Ho1  1  0.593028  0.001233  0.000000  1
  Th  Th2  1  0.000000  0.589616  0.000000  1
  In  In3  1  0.730906  0.741324  0.500000  1
  In  In4  1  0.000000  0.250017  0.500000  1
  In  In5  1  0.269094  0.010418  0.500000  1
  Pd  Pd6  1  0.000000  0.994684  0.000000  1
  Pt  Pt7  1  0.328369  0.666437  0.500000  1
  Pt  Pt8  1  0.671631  0.338067  0.500000  1
