# generated using pymatgen
data_Pr8SnHg3Au8
_symmetry_space_group_name_H-M   'P 1'
_cell_length_a   8.21952200
_cell_length_b   8.21952200
_cell_length_c   7.75613700
_cell_angle_alpha   90.00000000
_cell_angle_beta   90.00000000
_cell_angle_gamma   90.00000000
_symmetry_Int_Tables_number   1
_chemical_formula_structural   Pr8SnHg3Au8
_chemical_formula_sum   'Pr8 Sn1 Hg3 Au8'
_cell_volume   524.00881884
_cell_formula_units_Z   1
loop_
 _symmetry_equiv_pos_site_id
 _symmetry_equiv_pos_as_xyz
  1  'x, y, z'
loop_
 _atom_site_type_symbol
 _atom_site_label
 _atom_site_symmetry_multiplicity
 _atom_site_fract_x
 _atom_site_fract_y
 _atom_site_fract_z
 _atom_site_occupancy
  Pr  Pr0  1  0.833243  0.170917  0.500548  1
  Pr  Pr1  1  0.166757  0.829083  0.500548  1
  Pr  Pr2  1  0.329083  0.333243  0.999452  1
  Pr  Pr3  1  0.670917  0.666757  0.999452  1
  Pr  Pr4  1  0.682835  0.679884  0.501133  1
  Pr  Pr5  1  0.317165  0.320116  0.501133  1
  Pr  Pr6  1  0.179884  0.817165  0.998867  1
  Pr  Pr7  1  0.820116  0.182835  0.998867  1
  Sn  Sn8  1  0.000000  0.500000  0.250000  1
  Hg  Hg9  1  0.500000  0.000000  0.250000  1
  Hg  Hg10  1  0.000000  0.500000  0.750000  1
  Hg  Hg11  1  0.500000  0.000000  0.750000  1
  Au  Au12  1  0.622509  0.373406  0.262977  1
  Au  Au13  1  0.377491  0.626594  0.262977  1
  Au  Au14  1  0.126533  0.122572  0.762899  1
  Au  Au15  1  0.873467  0.877428  0.762899  1
  Au  Au16  1  0.377428  0.626533  0.737101  1
  Au  Au17  1  0.622572  0.373467  0.737101  1
  Au  Au18  1  0.873406  0.877491  0.237023  1
  Au  Au19  1  0.126594  0.122509  0.237023  1
