# generated using pymatgen
data_Tm2Ga4PtAu
_symmetry_space_group_name_H-M   'P 1'
_cell_length_a   5.53957549
_cell_length_b   5.53957496
_cell_length_c   6.63134500
_cell_angle_alpha   90.00000000
_cell_angle_beta   90.00000000
_cell_angle_gamma   132.78610870
_symmetry_Int_Tables_number   1
_chemical_formula_structural   Tm2Ga4PtAu
_chemical_formula_sum   'Tm2 Ga4 Pt1 Au1'
_cell_volume   149.34415406
_cell_formula_units_Z   1
loop_
 _symmetry_equiv_pos_site_id
 _symmetry_equiv_pos_as_xyz
  1  'x, y, z'
loop_
 _atom_site_type_symbol
 _atom_site_label
 _atom_site_symmetry_multiplicity
 _atom_site_fract_x
 _atom_site_fract_y
 _atom_site_fract_z
 _atom_site_occupancy
  Tm  Tm0  1  0.912634  0.087366  0.250001  1
  Tm  Tm1  1  0.085653  0.914347  0.750000  1
  Ga  Ga2  1  0.625540  0.374460  0.046003  1
  Ga  Ga3  1  0.625540  0.374460  0.453999  1
  Ga  Ga4  1  0.374946  0.625054  0.553897  1
  Ga  Ga5  1  0.374946  0.625054  0.946103  1
  Pt  Pt6  1  0.797772  0.202227  0.750000  1
  Au  Au7  1  0.202968  0.797031  0.250001  1
