# generated using pymatgen
data_Y3HoAl18(IrPd2)2
_symmetry_space_group_name_H-M   'P 1'
_cell_length_a   7.61336700
_cell_length_b   7.61355690
_cell_length_c   9.46020600
_cell_angle_alpha   90.00000000
_cell_angle_beta   90.00000000
_cell_angle_gamma   119.63659200
_symmetry_Int_Tables_number   1
_chemical_formula_structural   Y3HoAl18(IrPd2)2
_chemical_formula_sum   'Y3 Ho1 Al18 Ir2 Pd4'
_cell_volume   476.62226823
_cell_formula_units_Z   1
loop_
 _symmetry_equiv_pos_site_id
 _symmetry_equiv_pos_as_xyz
  1  'x, y, z'
loop_
 _atom_site_type_symbol
 _atom_site_label
 _atom_site_symmetry_multiplicity
 _atom_site_fract_x
 _atom_site_fract_y
 _atom_site_fract_z
 _atom_site_occupancy
  Y  Y0  1  0.994378  0.668855  0.250000  1
  Y  Y1  1  0.005697  0.331184  0.750000  1
  Y  Y2  1  0.668852  0.994360  0.250000  1
  Ho  Ho3  1  0.331099  0.005720  0.750000  1
  Al  Al4  1  0.127891  0.127868  0.250000  1
  Al  Al5  1  0.872284  0.872151  0.750000  1
  Al  Al6  1  0.999926  0.331389  0.076126  1
  Al  Al7  1  0.000283  0.668784  0.923674  1
  Al  Al8  1  0.000283  0.668784  0.576326  1
  Al  Al9  1  0.331403  0.999926  0.424027  1
  Al  Al10  1  0.999926  0.331389  0.423874  1
  Al  Al11  1  0.668411  0.000073  0.576318  1
  Al  Al12  1  0.668411  0.000073  0.923682  1
  Al  Al13  1  0.331403  0.999926  0.075973  1
  Al  Al14  1  0.330773  0.330591  0.556856  1
  Al  Al15  1  0.669258  0.669265  0.443405  1
  Al  Al16  1  0.669258  0.669265  0.056595  1
  Al  Al17  1  0.330773  0.330591  0.943144  1
  Al  Al18  1  0.340414  0.547501  0.250000  1
  Al  Al19  1  0.659320  0.452124  0.750000  1
  Al  Al20  1  0.547486  0.340393  0.250000  1
  Al  Al21  1  0.452329  0.659677  0.750000  1
  Ir  Ir22  1  0.000137  0.000031  0.999879  1
  Ir  Ir23  1  0.000137  0.000031  0.500121  1
  Pd  Pd24  1  0.672229  0.327647  0.999993  1
  Pd  Pd25  1  0.327704  0.672376  0.999988  1
  Pd  Pd26  1  0.327704  0.672376  0.500012  1
  Pd  Pd27  1  0.672229  0.327647  0.500007  1
