# generated using pymatgen
data_Pr2HoRh9
_symmetry_space_group_name_H-M   'P 1'
_cell_length_a   5.31051000
_cell_length_b   5.31051074
_cell_length_c   17.51077800
_cell_angle_alpha   90.00000000
_cell_angle_beta   90.00000000
_cell_angle_gamma   119.99998293
_symmetry_Int_Tables_number   1
_chemical_formula_structural   Pr2HoRh9
_chemical_formula_sum   'Pr4 Ho2 Rh18'
_cell_volume   427.66988622
_cell_formula_units_Z   2
loop_
 _symmetry_equiv_pos_site_id
 _symmetry_equiv_pos_as_xyz
  1  'x, y, z'
loop_
 _atom_site_type_symbol
 _atom_site_label
 _atom_site_symmetry_multiplicity
 _atom_site_fract_x
 _atom_site_fract_y
 _atom_site_fract_z
 _atom_site_occupancy
  Pr  Pr0  1  0.333333  0.666667  0.751767  1
  Pr  Pr1  1  0.666667  0.333333  0.248233  1
  Pr  Pr2  1  0.666667  0.333333  0.458070  1
  Pr  Pr3  1  0.333333  0.666667  0.541930  1
  Ho  Ho4  1  0.333333  0.666667  0.958924  1
  Ho  Ho5  1  0.666667  0.333333  0.041076  1
  Rh  Rh6  1  0.166692  0.833308  0.371530  1
  Rh  Rh7  1  0.166692  0.333384  0.371530  1
  Rh  Rh8  1  0.666616  0.833308  0.371530  1
  Rh  Rh9  1  0.833308  0.166692  0.628470  1
  Rh  Rh10  1  0.833308  0.666616  0.628470  1
  Rh  Rh11  1  0.333384  0.166692  0.628470  1
  Rh  Rh12  1  0.832432  0.167568  0.876304  1
  Rh  Rh13  1  0.832432  0.664863  0.876304  1
  Rh  Rh14  1  0.335137  0.167568  0.876304  1
  Rh  Rh15  1  0.167568  0.832432  0.123696  1
  Rh  Rh16  1  0.167568  0.335137  0.123696  1
  Rh  Rh17  1  0.664863  0.832432  0.123696  1
  Rh  Rh18  1  0.333333  0.666667  0.248449  1
  Rh  Rh19  1  0.666667  0.333333  0.751551  1
  Rh  Rh20  1  0.000000  0.000000  0.247596  1
  Rh  Rh21  1  0.000000  0.000000  0.752404  1
  Rh  Rh22  1  0.000000  0.000000  0.500000  1
  Rh  Rh23  1  0.000000  0.000000  0.000000  1
