# generated using pymatgen
data_Dy4Ga17GeIr6
_symmetry_space_group_name_H-M   'P 1'
_cell_length_a   7.60964163
_cell_length_b   7.59126091
_cell_length_c   9.48777537
_cell_angle_alpha   90.07617387
_cell_angle_beta   89.81624397
_cell_angle_gamma   119.87076279
_symmetry_Int_Tables_number   1
_chemical_formula_structural   Dy4Ga17GeIr6
_chemical_formula_sum   'Dy4 Ga17 Ge1 Ir6'
_cell_volume   475.26408341
_cell_formula_units_Z   1
loop_
 _symmetry_equiv_pos_site_id
 _symmetry_equiv_pos_as_xyz
  1  'x, y, z'
loop_
 _atom_site_type_symbol
 _atom_site_label
 _atom_site_symmetry_multiplicity
 _atom_site_fract_x
 _atom_site_fract_y
 _atom_site_fract_z
 _atom_site_occupancy
  Dy  Dy0  1  0.997812  0.667640  0.249232  1
  Dy  Dy1  1  0.002484  0.330684  0.752762  1
  Dy  Dy2  1  0.672513  0.000271  0.249196  1
  Dy  Dy3  1  0.330351  0.002696  0.749442  1
  Ga  Ga4  1  0.131247  0.125706  0.250963  1
  Ga  Ga5  1  0.872464  0.874465  0.749866  1
  Ga  Ga6  1  0.999272  0.670146  0.916823  1
  Ga  Ga7  1  0.000585  0.665889  0.580900  1
  Ga  Ga8  1  0.334605  0.998441  0.419577  1
  Ga  Ga9  1  0.000167  0.334933  0.421734  1
  Ga  Ga10  1  0.665037  0.000365  0.580883  1
  Ga  Ga11  1  0.659115  0.995276  0.917006  1
  Ga  Ga12  1  0.333851  0.997924  0.081110  1
  Ga  Ga13  1  0.331928  0.331261  0.564877  1
  Ga  Ga14  1  0.668932  0.668994  0.435221  1
  Ga  Ga15  1  0.668316  0.669208  0.066523  1
  Ga  Ga16  1  0.336184  0.332069  0.933223  1
  Ga  Ga17  1  0.345652  0.549327  0.251581  1
  Ga  Ga18  1  0.661619  0.453029  0.749134  1
  Ga  Ga19  1  0.547511  0.339446  0.249845  1
  Ga  Ga20  1  0.451127  0.658336  0.749358  1
  Ge  Ge21  1  0.997431  0.334738  0.082046  1
  Ir  Ir22  1  0.674600  0.328614  0.999715  1
  Ir  Ir23  1  0.320352  0.663880  0.000373  1
  Ir  Ir24  1  0.327267  0.670938  0.499992  1
  Ir  Ir25  1  0.671910  0.328196  0.498956  1
  Ir  Ir26  1  0.998600  0.006933  0.000292  1
  Ir  Ir27  1  0.999067  0.000593  0.499370  1
