# generated using pymatgen
data_Dy6Cd16Ag7As
_symmetry_space_group_name_H-M   'P 1'
_cell_length_a   9.87707263
_cell_length_b   9.87707155
_cell_length_c   9.87707200
_cell_angle_alpha   59.99999850
_cell_angle_beta   60.00000213
_cell_angle_gamma   59.99999972
_symmetry_Int_Tables_number   1
_chemical_formula_structural   Dy6Cd16Ag7As
_chemical_formula_sum   'Dy6 Cd16 Ag7 As1'
_cell_volume   681.34907454
_cell_formula_units_Z   1
loop_
 _symmetry_equiv_pos_site_id
 _symmetry_equiv_pos_as_xyz
  1  'x, y, z'
loop_
 _atom_site_type_symbol
 _atom_site_label
 _atom_site_symmetry_multiplicity
 _atom_site_fract_x
 _atom_site_fract_y
 _atom_site_fract_z
 _atom_site_occupancy
  Dy  Dy0  1  0.796108  0.796108  0.203892  1
  Dy  Dy1  1  0.203892  0.796108  0.203892  1
  Dy  Dy2  1  0.796108  0.203892  0.203892  1
  Dy  Dy3  1  0.203892  0.203892  0.796108  1
  Dy  Dy4  1  0.796108  0.203892  0.796108  1
  Dy  Dy5  1  0.203892  0.796108  0.796108  1
  Cd  Cd6  1  0.834692  0.834692  0.495925  1
  Cd  Cd7  1  0.834692  0.495925  0.834692  1
  Cd  Cd8  1  0.495925  0.834692  0.834692  1
  Cd  Cd9  1  0.834692  0.834692  0.834692  1
  Cd  Cd10  1  0.165308  0.165308  0.504075  1
  Cd  Cd11  1  0.165308  0.504075  0.165308  1
  Cd  Cd12  1  0.504075  0.165308  0.165308  1
  Cd  Cd13  1  0.165308  0.165308  0.165308  1
  Cd  Cd14  1  0.619755  0.619755  0.140735  1
  Cd  Cd15  1  0.619755  0.140735  0.619755  1
  Cd  Cd16  1  0.140735  0.619755  0.619755  1
  Cd  Cd17  1  0.619755  0.619755  0.619755  1
  Cd  Cd18  1  0.380245  0.380245  0.859265  1
  Cd  Cd19  1  0.380245  0.859265  0.380245  1
  Cd  Cd20  1  0.859265  0.380245  0.380245  1
  Cd  Cd21  1  0.380245  0.380245  0.380245  1
  Ag  Ag22  1  0.000000  0.000000  0.500000  1
  Ag  Ag23  1  0.500000  0.000000  0.500000  1
  Ag  Ag24  1  0.000000  0.500000  0.500000  1
  Ag  Ag25  1  0.500000  0.500000  0.000000  1
  Ag  Ag26  1  0.000000  0.500000  0.000000  1
  Ag  Ag27  1  0.500000  0.000000  0.000000  1
  Ag  Ag28  1  0.500000  0.500000  0.500000  1
  As  As29  1  0.000000  0.000000  0.000000  1
