# generated using pymatgen
data_Ca(YbCo)2
_symmetry_space_group_name_H-M   'P 1'
_cell_length_a   3.86376600
_cell_length_b   3.86376556
_cell_length_c   21.38645300
_cell_angle_alpha   90.00000000
_cell_angle_beta   90.00000000
_cell_angle_gamma   120.00000378
_symmetry_Int_Tables_number   1
_chemical_formula_structural   Ca(YbCo)2
_chemical_formula_sum   'Ca2 Yb4 Co4'
_cell_volume   276.49734161
_cell_formula_units_Z   2
loop_
 _symmetry_equiv_pos_site_id
 _symmetry_equiv_pos_as_xyz
  1  'x, y, z'
loop_
 _atom_site_type_symbol
 _atom_site_label
 _atom_site_symmetry_multiplicity
 _atom_site_fract_x
 _atom_site_fract_y
 _atom_site_fract_z
 _atom_site_occupancy
  Ca  Ca0  1  0.333333  0.666667  0.750000  1
  Ca  Ca1  1  0.666667  0.333333  0.250000  1
  Yb  Yb2  1  0.000000  0.000000  0.090289  1
  Yb  Yb3  1  0.000000  0.000000  0.409711  1
  Yb  Yb4  1  0.000000  0.000000  0.909711  1
  Yb  Yb5  1  0.000000  0.000000  0.590289  1
  Co  Co6  1  0.333333  0.666667  0.999381  1
  Co  Co7  1  0.666667  0.333333  0.000619  1
  Co  Co8  1  0.333333  0.666667  0.500619  1
  Co  Co9  1  0.666667  0.333333  0.499381  1
