# generated using pymatgen
data_Gd3(CdS3)2
_symmetry_space_group_name_H-M   'P 1'
_cell_length_a   5.23347870
_cell_length_b   8.28675329
_cell_length_c   8.07854089
_cell_angle_alpha   82.57797923
_cell_angle_beta   105.67453433
_cell_angle_gamma   53.97336749
_symmetry_Int_Tables_number   1
_chemical_formula_structural   Gd3(CdS3)2
_chemical_formula_sum   'Gd3 Cd2 S6'
_cell_volume   253.45263137
_cell_formula_units_Z   1
loop_
 _symmetry_equiv_pos_site_id
 _symmetry_equiv_pos_as_xyz
  1  'x, y, z'
loop_
 _atom_site_type_symbol
 _atom_site_label
 _atom_site_symmetry_multiplicity
 _atom_site_fract_x
 _atom_site_fract_y
 _atom_site_fract_z
 _atom_site_occupancy
  Gd  Gd0  1  0.186257  0.560279  0.212766  1
  Gd  Gd1  1  0.605208  0.193244  0.810338  1
  Gd  Gd2  1  0.467343  0.808875  0.507951  1
  Cd  Cd3  1  0.352174  0.735282  0.866062  1
  Cd  Cd4  1  0.930294  0.279281  0.112719  1
  S  S5  1  0.793872  0.789015  0.850491  1
  S  S6  1  0.797958  0.367439  0.540078  1
  S  S7  1  0.154825  0.612063  0.553690  1
  S  S8  1  0.329520  0.867469  0.137048  1
  S  S9  1  0.220122  0.216954  0.475013  1
  S  S10  1  0.456540  0.236747  0.106992  1
