# generated using pymatgen
data_Tm3Cu4Si3Ge
_symmetry_space_group_name_H-M   'P 1'
_cell_length_a   7.79895756
_cell_length_b   7.79895779
_cell_length_c   7.79895763
_cell_angle_alpha   149.45657706
_cell_angle_beta   130.55390287
_cell_angle_gamma   59.24237925
_symmetry_Int_Tables_number   1
_chemical_formula_structural   Tm3Cu4Si3Ge
_chemical_formula_sum   'Tm3 Cu4 Si3 Ge1'
_cell_volume   181.70786056
_cell_formula_units_Z   1
loop_
 _symmetry_equiv_pos_site_id
 _symmetry_equiv_pos_as_xyz
  1  'x, y, z'
loop_
 _atom_site_type_symbol
 _atom_site_label
 _atom_site_symmetry_multiplicity
 _atom_site_fract_x
 _atom_site_fract_y
 _atom_site_fract_z
 _atom_site_occupancy
  Tm  Tm0  1  0.130605  0.128808  0.001797  1
  Tm  Tm1  1  0.872989  0.871192  0.001797  1
  Tm  Tm2  1  0.497698  0.000000  0.497698  1
  Cu  Cu3  1  0.477961  0.669820  0.808140  1
  Cu  Cu4  1  0.863853  0.673096  0.190757  1
  Cu  Cu5  1  0.138320  0.330180  0.808140  1
  Cu  Cu6  1  0.517660  0.326904  0.190757  1
  Si  Si7  1  0.283812  0.783844  0.499969  1
  Si  Si8  1  0.716125  0.216156  0.499969  1
  Si  Si9  1  0.189994  0.500000  0.689994  1
  Ge  Ge10  1  0.810982  0.500000  0.310982  1
