# generated using pymatgen
data_Eu4YPb3Cl
_symmetry_space_group_name_H-M   'P 1'
_cell_length_a   9.55226400
_cell_length_b   9.55226325
_cell_length_c   7.05463400
_cell_angle_alpha   90.00000000
_cell_angle_beta   90.00000000
_cell_angle_gamma   119.99999567
_symmetry_Int_Tables_number   1
_chemical_formula_structural   Eu4YPb3Cl
_chemical_formula_sum   'Eu8 Y2 Pb6 Cl2'
_cell_volume   557.46516874
_cell_formula_units_Z   2
loop_
 _symmetry_equiv_pos_site_id
 _symmetry_equiv_pos_as_xyz
  1  'x, y, z'
loop_
 _atom_site_type_symbol
 _atom_site_label
 _atom_site_symmetry_multiplicity
 _atom_site_fract_x
 _atom_site_fract_y
 _atom_site_fract_z
 _atom_site_occupancy
  Eu  Eu0  1  0.252720  0.000000  0.247725  1
  Eu  Eu1  1  0.747280  0.000000  0.752275  1
  Eu  Eu2  1  0.000000  0.252720  0.247725  1
  Eu  Eu3  1  0.000000  0.747280  0.752275  1
  Eu  Eu4  1  0.747280  0.747280  0.247725  1
  Eu  Eu5  1  0.252720  0.252720  0.752275  1
  Eu  Eu6  1  0.666667  0.333333  0.500000  1
  Eu  Eu7  1  0.333333  0.666667  0.500000  1
  Y  Y8  1  0.333333  0.666667  0.000000  1
  Y  Y9  1  0.666667  0.333333  0.000000  1
  Pb  Pb10  1  0.595074  0.000000  0.231877  1
  Pb  Pb11  1  0.404926  0.000000  0.768123  1
  Pb  Pb12  1  0.000000  0.595074  0.231877  1
  Pb  Pb13  1  0.000000  0.404926  0.768123  1
  Pb  Pb14  1  0.404926  0.404926  0.231877  1
  Pb  Pb15  1  0.595074  0.595074  0.768123  1
  Cl  Cl16  1  0.000000  0.000000  0.000000  1
  Cl  Cl17  1  0.000000  0.000000  0.500000  1
