# generated using pymatgen
data_Cs3MnS4
_symmetry_space_group_name_H-M   'P 1'
_cell_length_a   9.77137700
_cell_length_b   9.79840300
_cell_length_c   11.81515200
_cell_angle_alpha   90.00000000
_cell_angle_beta   90.00000000
_cell_angle_gamma   90.00000000
_symmetry_Int_Tables_number   1
_chemical_formula_structural   Cs3MnS4
_chemical_formula_sum   'Cs12 Mn4 S16'
_cell_volume   1131.22861001
_cell_formula_units_Z   4
loop_
 _symmetry_equiv_pos_site_id
 _symmetry_equiv_pos_as_xyz
  1  'x, y, z'
loop_
 _atom_site_type_symbol
 _atom_site_label
 _atom_site_symmetry_multiplicity
 _atom_site_fract_x
 _atom_site_fract_y
 _atom_site_fract_z
 _atom_site_occupancy
  Cs  Cs0  1  0.404940  0.844308  0.750000  1
  Cs  Cs1  1  0.595060  0.155692  0.250000  1
  Cs  Cs2  1  0.095060  0.344308  0.750000  1
  Cs  Cs3  1  0.706890  0.536643  0.957878  1
  Cs  Cs4  1  0.293110  0.463357  0.042122  1
  Cs  Cs5  1  0.904940  0.655692  0.250000  1
  Cs  Cs6  1  0.206890  0.963357  0.042122  1
  Cs  Cs7  1  0.293110  0.463357  0.457878  1
  Cs  Cs8  1  0.206890  0.963357  0.457878  1
  Cs  Cs9  1  0.706890  0.536643  0.542122  1
  Cs  Cs10  1  0.793110  0.036643  0.542122  1
  Cs  Cs11  1  0.793110  0.036643  0.957878  1
  Mn  Mn12  1  0.980166  0.774267  0.750000  1
  Mn  Mn13  1  0.519834  0.274267  0.750000  1
  Mn  Mn14  1  0.019834  0.225733  0.250000  1
  Mn  Mn15  1  0.480166  0.725733  0.250000  1
  S  S16  1  0.561928  0.524959  0.250000  1
  S  S17  1  0.061928  0.975041  0.750000  1
  S  S18  1  0.454990  0.173135  0.898596  1
  S  S19  1  0.045010  0.673135  0.601404  1
  S  S20  1  0.438072  0.475041  0.750000  1
  S  S21  1  0.954990  0.326865  0.101404  1
  S  S22  1  0.545010  0.826865  0.398596  1
  S  S23  1  0.763846  0.784097  0.750000  1
  S  S24  1  0.045010  0.673135  0.898596  1
  S  S25  1  0.263846  0.715903  0.250000  1
  S  S26  1  0.545010  0.826865  0.101404  1
  S  S27  1  0.236154  0.215903  0.250000  1
  S  S28  1  0.736154  0.284097  0.750000  1
  S  S29  1  0.454990  0.173135  0.601404  1
  S  S30  1  0.938072  0.024959  0.250000  1
  S  S31  1  0.954990  0.326865  0.398596  1
