# generated using pymatgen
data_Er4Hf3ZrF28
_symmetry_space_group_name_H-M   'P 1'
_cell_length_a   5.66694020
_cell_length_b   8.98816343
_cell_length_c   12.11107295
_cell_angle_alpha   62.44301695
_cell_angle_beta   90.03631660
_cell_angle_gamma   90.05111356
_symmetry_Int_Tables_number   1
_chemical_formula_structural   Er4Hf3ZrF28
_chemical_formula_sum   'Er4 Hf3 Zr1 F28'
_cell_volume   546.89736383
_cell_formula_units_Z   1
loop_
 _symmetry_equiv_pos_site_id
 _symmetry_equiv_pos_as_xyz
  1  'x, y, z'
loop_
 _atom_site_type_symbol
 _atom_site_label
 _atom_site_symmetry_multiplicity
 _atom_site_fract_x
 _atom_site_fract_y
 _atom_site_fract_z
 _atom_site_occupancy
  Er  Er0  1  0.756525  0.816360  0.764691  1
  Er  Er1  1  0.256008  0.184304  0.732646  1
  Er  Er2  1  0.243271  0.183678  0.236437  1
  Er  Er3  1  0.743864  0.814695  0.266532  1
  Hf  Hf4  1  0.256973  0.725807  0.544258  1
  Hf  Hf5  1  0.243259  0.726255  0.044225  1
  Hf  Hf6  1  0.743179  0.274036  0.455633  1
  Zr  Zr7  1  0.755526  0.273916  0.956017  1
  F  F8  1  0.458958  0.709698  0.919314  1
  F  F9  1  0.955882  0.289979  0.581585  1
  F  F10  1  0.535414  0.290682  0.082192  1
  F  F11  1  0.042669  0.710324  0.418517  1
  F  F12  1  0.445641  0.276925  0.547050  1
  F  F13  1  0.947713  0.726399  0.950288  1
  F  F14  1  0.552942  0.722466  0.451907  1
  F  F15  1  0.054586  0.274882  0.051611  1
  F  F16  1  0.776727  0.528135  0.858889  1
  F  F17  1  0.271705  0.475196  0.639359  1
  F  F18  1  0.223350  0.475793  0.141131  1
  F  F19  1  0.727929  0.524601  0.359370  1
  F  F20  1  0.757765  0.020282  0.060068  1
  F  F21  1  0.260761  0.976018  0.443468  1
  F  F22  1  0.243784  0.976333  0.941049  1
  F  F23  1  0.740068  0.023832  0.556856  1
  F  F24  1  0.981031  0.733275  0.645688  1
  F  F25  1  0.479852  0.268560  0.849856  1
  F  F26  1  0.021170  0.267013  0.355270  1
  F  F27  1  0.516924  0.731887  0.147743  1
  F  F28  1  0.036648  0.748020  0.172654  1
  F  F29  1  0.539571  0.254312  0.325697  1
  F  F30  1  0.966323  0.251646  0.826162  1
  F  F31  1  0.463351  0.745302  0.673594  1
  F  F32  1  0.427121  0.972272  0.235934  1
  F  F33  1  0.925617  0.026636  0.268082  1
  F  F34  1  0.573540  0.027969  0.764242  1
  F  F35  1  0.074353  0.972514  0.731983  1
