# generated using pymatgen
data_Dy2TcB8Ru
_symmetry_space_group_name_H-M   'P 1'
_cell_length_a   3.58191400
_cell_length_b   5.96416187
_cell_length_c   11.54142018
_cell_angle_alpha   89.81397837
_cell_angle_beta   90.00000000
_cell_angle_gamma   90.00000000
_symmetry_Int_Tables_number   1
_chemical_formula_structural   Dy2TcB8Ru
_chemical_formula_sum   'Dy4 Tc2 B16 Ru2'
_cell_volume   246.55938603
_cell_formula_units_Z   2
loop_
 _symmetry_equiv_pos_site_id
 _symmetry_equiv_pos_as_xyz
  1  'x, y, z'
loop_
 _atom_site_type_symbol
 _atom_site_label
 _atom_site_symmetry_multiplicity
 _atom_site_fract_x
 _atom_site_fract_y
 _atom_site_fract_z
 _atom_site_occupancy
  Dy  Dy0  1  0.000000  0.128197  0.648532  1
  Dy  Dy1  1  0.000000  0.871803  0.351468  1
  Dy  Dy2  1  0.000000  0.627857  0.848821  1
  Dy  Dy3  1  0.000000  0.372143  0.151179  1
  Tc  Tc4  1  0.000000  0.132015  0.912029  1
  Tc  Tc5  1  0.000000  0.867985  0.087971  1
  B  B6  1  0.500000  0.475696  0.691467  1
  B  B7  1  0.500000  0.524304  0.308533  1
  B  B8  1  0.500000  0.977692  0.807520  1
  B  B9  1  0.500000  0.022308  0.192480  1
  B  B10  1  0.500000  0.288361  0.814721  1
  B  B11  1  0.500000  0.711639  0.185279  1
  B  B12  1  0.500000  0.788814  0.684870  1
  B  B13  1  0.500000  0.211186  0.315130  1
  B  B14  1  0.500000  0.364546  0.968780  1
  B  B15  1  0.500000  0.635454  0.031220  1
  B  B16  1  0.500000  0.863679  0.530771  1
  B  B17  1  0.500000  0.136321  0.469229  1
  B  B18  1  0.500000  0.387576  0.546739  1
  B  B19  1  0.500000  0.612424  0.453261  1
  B  B20  1  0.500000  0.887302  0.952966  1
  B  B21  1  0.500000  0.112698  0.047034  1
  Ru  Ru22  1  0.000000  0.640055  0.592288  1
  Ru  Ru23  1  0.000000  0.359945  0.407712  1
