# generated using pymatgen
data_TbYbY4(Si3Ru)8
_symmetry_space_group_name_H-M   'P 1'
_cell_length_a   10.13945645
_cell_length_b   10.13945745
_cell_length_c   8.14919200
_cell_angle_alpha   89.91001418
_cell_angle_beta   90.08998530
_cell_angle_gamma   132.61546176
_symmetry_Int_Tables_number   1
_chemical_formula_structural   TbYbY4(Si3Ru)8
_chemical_formula_sum   'Tb1 Yb1 Y4 Si24 Ru8'
_cell_volume   616.55326721
_cell_formula_units_Z   1
loop_
 _symmetry_equiv_pos_site_id
 _symmetry_equiv_pos_as_xyz
  1  'x, y, z'
loop_
 _atom_site_type_symbol
 _atom_site_label
 _atom_site_symmetry_multiplicity
 _atom_site_fract_x
 _atom_site_fract_y
 _atom_site_fract_z
 _atom_site_occupancy
  Tb  Tb0  1  0.002930  0.502930  0.750000  1
  Yb  Yb1  1  0.502466  0.002466  0.750000  1
  Y  Y2  1  0.500204  0.500282  0.500386  1
  Y  Y3  1  0.000282  0.000204  0.999614  1
  Y  Y4  1  0.997785  0.497785  0.250000  1
  Y  Y5  1  0.497022  0.997022  0.250000  1
  Si  Si6  1  0.793713  0.204016  0.500519  1
  Si  Si7  1  0.295741  0.706234  0.998758  1
  Si  Si8  1  0.206234  0.795741  0.501242  1
  Si  Si9  1  0.704016  0.293713  0.999481  1
  Si  Si10  1  0.332862  0.333925  0.833175  1
  Si  Si11  1  0.666878  0.667900  0.166752  1
  Si  Si12  1  0.167900  0.166878  0.333248  1
  Si  Si13  1  0.833925  0.832862  0.666825  1
  Si  Si14  1  0.121752  0.887384  0.728144  1
  Si  Si15  1  0.111183  0.877427  0.272004  1
  Si  Si16  1  0.611490  0.377831  0.228581  1
  Si  Si17  1  0.623139  0.389016  0.772077  1
  Si  Si18  1  0.877831  0.111490  0.271419  1
  Si  Si19  1  0.889016  0.123139  0.727923  1
  Si  Si20  1  0.387384  0.621752  0.771856  1
  Si  Si21  1  0.377427  0.611183  0.227996  1
  Si  Si22  1  0.344820  0.111310  0.504361  1
  Si  Si23  1  0.888305  0.654939  0.494198  1
  Si  Si24  1  0.388595  0.154797  0.005816  1
  Si  Si25  1  0.844876  0.611797  0.994352  1
  Si  Si26  1  0.654797  0.888595  0.494184  1
  Si  Si27  1  0.111797  0.344876  0.505648  1
  Si  Si28  1  0.611310  0.844820  0.995639  1
  Si  Si29  1  0.154939  0.388305  0.005802  1
  Ru  Ru30  1  0.669888  0.330436  0.500111  1
  Ru  Ru31  1  0.168679  0.829701  0.000925  1
  Ru  Ru32  1  0.329701  0.668679  0.499075  1
  Ru  Ru33  1  0.830436  0.169888  0.999889  1
  Ru  Ru34  1  0.126777  0.126766  0.626997  1
  Ru  Ru35  1  0.873318  0.873814  0.373096  1
  Ru  Ru36  1  0.373814  0.373318  0.126904  1
  Ru  Ru37  1  0.626766  0.626777  0.873003  1
