# generated using pymatgen
data_Dy10Ru3Rh
_symmetry_space_group_name_H-M   'P 1'
_cell_length_a   8.51530515
_cell_length_b   8.52314536
_cell_length_c   7.28566754
_cell_angle_alpha   83.40503960
_cell_angle_beta   83.38056854
_cell_angle_gamma   43.79604587
_symmetry_Int_Tables_number   1
_chemical_formula_structural   Dy10Ru3Rh
_chemical_formula_sum   'Dy10 Ru3 Rh1'
_cell_volume   363.13555563
_cell_formula_units_Z   1
loop_
 _symmetry_equiv_pos_site_id
 _symmetry_equiv_pos_as_xyz
  1  'x, y, z'
loop_
 _atom_site_type_symbol
 _atom_site_label
 _atom_site_symmetry_multiplicity
 _atom_site_fract_x
 _atom_site_fract_y
 _atom_site_fract_z
 _atom_site_occupancy
  Dy  Dy0  1  0.207292  0.980949  0.585115  1
  Dy  Dy1  1  0.020527  0.794458  0.917496  1
  Dy  Dy2  1  0.207068  0.356439  0.313141  1
  Dy  Dy3  1  0.642459  0.792506  0.185569  1
  Dy  Dy4  1  0.789601  0.642791  0.685766  1
  Dy  Dy5  1  0.359190  0.204493  0.816291  1
  Dy  Dy6  1  0.979101  0.206763  0.084854  1
  Dy  Dy7  1  0.791405  0.023379  0.413492  1
  Dy  Dy8  1  0.579145  0.421499  0.750856  1
  Dy  Dy9  1  0.423612  0.577914  0.247671  1
  Ru  Ru10  1  0.396107  0.825185  0.923647  1
  Ru  Ru11  1  0.825717  0.396436  0.425350  1
  Ru  Ru12  1  0.602399  0.175930  0.075306  1
  Rh  Rh13  1  0.176377  0.601258  0.575448  1
