# generated using pymatgen
data_YbMn(As4Ru)3
_symmetry_space_group_name_H-M   'P 1'
_cell_length_a   7.48857793
_cell_length_b   7.48899259
_cell_length_c   7.48857800
_cell_angle_alpha   109.47234970
_cell_angle_beta   109.47009551
_cell_angle_gamma   109.47234819
_symmetry_Int_Tables_number   1
_chemical_formula_structural   YbMn(As4Ru)3
_chemical_formula_sum   'Yb1 Mn1 As12 Ru3'
_cell_volume   323.29140346
_cell_formula_units_Z   1
loop_
 _symmetry_equiv_pos_site_id
 _symmetry_equiv_pos_as_xyz
  1  'x, y, z'
loop_
 _atom_site_type_symbol
 _atom_site_label
 _atom_site_symmetry_multiplicity
 _atom_site_fract_x
 _atom_site_fract_y
 _atom_site_fract_z
 _atom_site_occupancy
  Yb  Yb0  1  0.000000  0.000000  0.000000  1
  Mn  Mn1  1  0.000000  0.500000  0.000000  1
  As  As2  1  0.850559  0.653706  0.504033  1
  As  As3  1  0.149441  0.346294  0.495967  1
  As  As4  1  0.149898  0.653097  0.799135  1
  As  As5  1  0.850102  0.346903  0.200865  1
  As  As6  1  0.649237  0.503200  0.850102  1
  As  As7  1  0.350763  0.496800  0.149898  1
  As  As8  1  0.653474  0.803147  0.149441  1
  As  As9  1  0.346526  0.196853  0.850559  1
  As  As10  1  0.504033  0.850328  0.653474  1
  As  As11  1  0.495967  0.149672  0.346526  1
  As  As12  1  0.200865  0.853963  0.350763  1
  As  As13  1  0.799135  0.146037  0.649237  1
  Ru  Ru14  1  0.500000  0.500000  0.500000  1
  Ru  Ru15  1  0.500000  0.000000  0.000000  1
  Ru  Ru16  1  0.000000  0.000000  0.500000  1
