# generated using pymatgen
data_Dy12FeRhI17
_symmetry_space_group_name_H-M   'P 1'
_cell_length_a   9.78953414
_cell_length_b   11.75211494
_cell_length_c   11.75475409
_cell_angle_alpha   93.44970428
_cell_angle_beta   104.86505531
_cell_angle_gamma   114.07877927
_symmetry_Int_Tables_number   1
_chemical_formula_structural   Dy12FeRhI17
_chemical_formula_sum   'Dy12 Fe1 Rh1 I17'
_cell_volume   1172.35524256
_cell_formula_units_Z   1
loop_
 _symmetry_equiv_pos_site_id
 _symmetry_equiv_pos_as_xyz
  1  'x, y, z'
loop_
 _atom_site_type_symbol
 _atom_site_label
 _atom_site_symmetry_multiplicity
 _atom_site_fract_x
 _atom_site_fract_y
 _atom_site_fract_z
 _atom_site_occupancy
  Dy  Dy0  1  0.047581  0.498268  0.316570  1
  Dy  Dy1  1  0.989139  0.809719  0.583529  1
  Dy  Dy2  1  0.656685  0.241598  0.281250  1
  Dy  Dy3  1  0.009216  0.195170  0.408797  1
  Dy  Dy4  1  0.222915  0.670694  0.987951  1
  Dy  Dy5  1  0.256938  0.983472  0.890261  1
  Dy  Dy6  1  0.352334  0.759430  0.715815  1
  Dy  Dy7  1  0.945125  0.492048  0.678770  1
  Dy  Dy8  1  0.750446  0.027029  0.114324  1
  Dy  Dy9  1  0.139712  0.285302  0.152743  1
  Dy  Dy10  1  0.781176  0.325762  0.019707  1
  Dy  Dy11  1  0.850654  0.712767  0.849323  1
  Fe  Fe12  1  0.895895  0.262032  0.214092  1
  Rh  Rh13  1  0.104112  0.738123  0.785703  1
  I  I14  1  0.784432  0.527949  0.419026  1
  I  I15  1  0.644725  0.419869  0.762496  1
  I  I16  1  0.845457  0.897644  0.329859  1
  I  I17  1  0.327678  0.213621  0.367300  1
  I  I18  1  0.153312  0.102657  0.672597  1
  I  I19  1  0.585433  0.051793  0.844682  1
  I  I20  1  0.761135  0.189469  0.540557  1
  I  I21  1  0.554246  0.711969  0.954670  1
  I  I22  1  0.355494  0.580008  0.237781  1
  I  I23  1  0.215374  0.472461  0.581333  1
  I  I24  1  0.055615  0.369143  0.897705  1
  I  I25  1  0.446501  0.287212  0.044627  1
  I  I26  1  0.999535  0.999262  0.999339  1
  I  I27  1  0.238926  0.810430  0.459584  1
  I  I28  1  0.415051  0.947419  0.155131  1
  I  I29  1  0.669787  0.786657  0.632200  1
  I  I30  1  0.945372  0.631021  0.102282  1
