# generated using pymatgen
data_Zr5Re17Tc7
_symmetry_space_group_name_H-M   'P 1'
_cell_length_a   8.49109846
_cell_length_b   8.49109779
_cell_length_c   8.48275605
_cell_angle_alpha   109.45759820
_cell_angle_beta   109.45759312
_cell_angle_gamma   109.59346836
_symmetry_Int_Tables_number   1
_chemical_formula_structural   Zr5Re17Tc7
_chemical_formula_sum   'Zr5 Re17 Tc7'
_cell_volume   470.25344108
_cell_formula_units_Z   1
loop_
 _symmetry_equiv_pos_site_id
 _symmetry_equiv_pos_as_xyz
  1  'x, y, z'
loop_
 _atom_site_type_symbol
 _atom_site_label
 _atom_site_symmetry_multiplicity
 _atom_site_fract_x
 _atom_site_fract_y
 _atom_site_fract_z
 _atom_site_occupancy
  Zr  Zr0  1  0.999661  0.999661  0.999809  1
  Zr  Zr1  1  0.626047  0.999994  0.999818  1
  Zr  Zr2  1  0.999994  0.626047  0.999818  1
  Zr  Zr3  1  0.001759  0.001759  0.628625  1
  Zr  Zr4  1  0.371558  0.371558  0.372043  1
  Re  Re5  1  0.000490  0.676106  0.396689  1
  Re  Re6  1  0.676106  0.000490  0.396689  1
  Re  Re7  1  0.603246  0.603246  0.278814  1
  Re  Re8  1  0.279124  0.603964  0.603407  1
  Re  Re9  1  0.603964  0.279124  0.603407  1
  Re  Re10  1  0.376819  0.195846  0.000661  1
  Re  Re11  1  0.181134  0.805450  0.805034  1
  Re  Re12  1  0.375945  0.000526  0.194984  1
  Re  Re13  1  0.195846  0.376819  0.000661  1
  Re  Re14  1  0.000526  0.375945  0.194984  1
  Re  Re15  1  0.805450  0.181134  0.805034  1
  Re  Re16  1  0.805653  0.805653  0.181864  1
  Re  Re17  1  0.000561  0.194688  0.377134  1
  Re  Re18  1  0.194688  0.000561  0.377134  1
  Re  Re19  1  0.622558  0.622558  0.816488  1
  Re  Re20  1  0.816875  0.623236  0.622720  1
  Re  Re21  1  0.623236  0.816875  0.622720  1
  Tc  Tc22  1  0.396675  0.677138  0.000230  1
  Tc  Tc23  1  0.719968  0.323069  0.322730  1
  Tc  Tc24  1  0.397371  0.001239  0.677674  1
  Tc  Tc25  1  0.677138  0.396675  0.000230  1
  Tc  Tc26  1  0.001239  0.397371  0.677674  1
  Tc  Tc27  1  0.323069  0.719968  0.322730  1
  Tc  Tc28  1  0.323299  0.323299  0.720195  1
