# generated using pymatgen
data_La8YbIr6
_symmetry_space_group_name_H-M   'P 1'
_cell_length_a   7.79372089
_cell_length_b   7.79372123
_cell_length_c   7.79372210
_cell_angle_alpha   69.67675404
_cell_angle_beta   69.67675691
_cell_angle_gamma   69.67674284
_symmetry_Int_Tables_number   1
_chemical_formula_structural   La8YbIr6
_chemical_formula_sum   'La8 Yb1 Ir6'
_cell_volume   402.23070837
_cell_formula_units_Z   1
loop_
 _symmetry_equiv_pos_site_id
 _symmetry_equiv_pos_as_xyz
  1  'x, y, z'
loop_
 _atom_site_type_symbol
 _atom_site_label
 _atom_site_symmetry_multiplicity
 _atom_site_fract_x
 _atom_site_fract_y
 _atom_site_fract_z
 _atom_site_occupancy
  La  La0  1  0.804541  0.804541  0.804541  1
  La  La1  1  0.195459  0.195459  0.195459  1
  La  La2  1  0.148922  0.384927  0.679416  1
  La  La3  1  0.679416  0.148922  0.384927  1
  La  La4  1  0.384927  0.679416  0.148922  1
  La  La5  1  0.851078  0.615073  0.320584  1
  La  La6  1  0.320584  0.851078  0.615073  1
  La  La7  1  0.615073  0.320584  0.851078  1
  Yb  Yb8  1  0.000000  0.000000  0.000000  1
  Ir  Ir9  1  0.954782  0.175022  0.583462  1
  Ir  Ir10  1  0.583462  0.954782  0.175022  1
  Ir  Ir11  1  0.175022  0.583462  0.954782  1
  Ir  Ir12  1  0.045218  0.824978  0.416538  1
  Ir  Ir13  1  0.416538  0.045218  0.824978  1
  Ir  Ir14  1  0.824978  0.416538  0.045218  1
