# generated using pymatgen
data_Tb13Pr7Sn11Bi5
_symmetry_space_group_name_H-M   'P 1'
_cell_length_a   8.28896531
_cell_length_b   8.32986900
_cell_length_c   15.72297209
_cell_angle_alpha   90.08059487
_cell_angle_beta   90.39434503
_cell_angle_gamma   89.89717110
_symmetry_Int_Tables_number   1
_chemical_formula_structural   Tb13Pr7Sn11Bi5
_chemical_formula_sum   'Tb13 Pr7 Sn11 Bi5'
_cell_volume   1085.57973854
_cell_formula_units_Z   1
loop_
 _symmetry_equiv_pos_site_id
 _symmetry_equiv_pos_as_xyz
  1  'x, y, z'
loop_
 _atom_site_type_symbol
 _atom_site_label
 _atom_site_symmetry_multiplicity
 _atom_site_fract_x
 _atom_site_fract_y
 _atom_site_fract_z
 _atom_site_occupancy
  Tb  Tb0  1  0.364565  0.838783  0.874947  1
  Tb  Tb1  1  0.866470  0.660377  0.626022  1
  Tb  Tb2  1  0.632247  0.160738  0.374424  1
  Tb  Tb3  1  0.128412  0.339134  0.124794  1
  Tb  Tb4  1  0.636512  0.165699  0.124383  1
  Tb  Tb5  1  0.140780  0.336565  0.376776  1
  Tb  Tb6  1  0.358912  0.837614  0.624946  1
  Tb  Tb7  1  0.863725  0.658581  0.875967  1
  Tb  Tb8  1  0.532956  0.328692  0.895467  1
  Tb  Tb9  1  0.194903  0.500253  0.746165  1
  Tb  Tb10  1  0.693923  0.000375  0.749843  1
  Tb  Tb11  1  0.805499  0.499658  0.247226  1
  Tb  Tb12  1  0.305607  0.000324  0.253225  1
  Pr  Pr13  1  0.028246  0.178058  0.601974  1
  Pr  Pr14  1  0.472477  0.678280  0.399313  1
  Pr  Pr15  1  0.973778  0.820001  0.102613  1
  Pr  Pr16  1  0.480153  0.674128  0.101303  1
  Pr  Pr17  1  0.984434  0.822414  0.400110  1
  Pr  Pr18  1  0.514965  0.322844  0.599357  1
  Pr  Pr19  1  0.022552  0.180551  0.898289  1
  Sn  Sn20  1  0.204556  0.539687  0.543102  1
  Sn  Sn21  1  0.294989  0.038231  0.457694  1
  Sn  Sn22  1  0.789405  0.460257  0.040398  1
  Sn  Sn23  1  0.560283  0.624095  0.750815  1
  Sn  Sn24  1  0.059643  0.875791  0.752215  1
  Sn  Sn25  1  0.438072  0.375870  0.248992  1
  Sn  Sn26  1  0.938763  0.124491  0.250660  1
  Sn  Sn27  1  0.332472  0.145784  0.752974  1
  Sn  Sn28  1  0.826074  0.355661  0.749965  1
  Sn  Sn29  1  0.672572  0.856888  0.250297  1
  Sn  Sn30  1  0.172277  0.642289  0.249855  1
  Bi  Bi31  1  0.290834  0.037550  0.043277  1
  Bi  Bi32  1  0.794630  0.461041  0.457500  1
  Bi  Bi33  1  0.705257  0.961492  0.542465  1
  Bi  Bi34  1  0.212418  0.532842  0.956120  1
  Bi  Bi35  1  0.706636  0.964962  0.956523  1
