# generated using pymatgen
data_Tb2HoEr3Co2
_symmetry_space_group_name_H-M   'P 1'
_cell_length_a   6.21523944
_cell_length_b   6.93049600
_cell_length_c   9.41557500
_cell_angle_alpha   90.00000000
_cell_angle_beta   89.69847847
_cell_angle_gamma   90.00000000
_symmetry_Int_Tables_number   1
_chemical_formula_structural   Tb2HoEr3Co2
_chemical_formula_sum   'Tb4 Ho2 Er6 Co4'
_cell_volume   405.56737785
_cell_formula_units_Z   2
loop_
 _symmetry_equiv_pos_site_id
 _symmetry_equiv_pos_as_xyz
  1  'x, y, z'
loop_
 _atom_site_type_symbol
 _atom_site_label
 _atom_site_symmetry_multiplicity
 _atom_site_fract_x
 _atom_site_fract_y
 _atom_site_fract_z
 _atom_site_occupancy
  Tb  Tb0  1  0.860818  0.542543  0.249477  1
  Tb  Tb1  1  0.639182  0.042543  0.250523  1
  Tb  Tb2  1  0.138111  0.457174  0.750082  1
  Tb  Tb3  1  0.361889  0.957174  0.749918  1
  Ho  Ho4  1  0.323158  0.675572  0.431591  1
  Ho  Ho5  1  0.176842  0.175572  0.068409  1
  Er  Er6  1  0.325748  0.675289  0.066915  1
  Er  Er7  1  0.174252  0.175289  0.433085  1
  Er  Er8  1  0.674486  0.325035  0.568155  1
  Er  Er9  1  0.825514  0.825035  0.931845  1
  Er  Er10  1  0.675843  0.324066  0.932216  1
  Er  Er11  1  0.824157  0.824066  0.567784  1
  Co  Co12  1  0.051060  0.887821  0.250521  1
  Co  Co13  1  0.448940  0.387821  0.249479  1
  Co  Co14  1  0.948224  0.112501  0.746326  1
  Co  Co15  1  0.551776  0.612501  0.753674  1
