# generated using pymatgen
data_Ba2CaAl2CrF14
_symmetry_space_group_name_H-M   'P 1'
_cell_length_a   7.48015721
_cell_length_b   7.48015796
_cell_length_c   14.92058980
_cell_angle_alpha   87.46885913
_cell_angle_beta   87.46885812
_cell_angle_gamma   41.86166554
_symmetry_Int_Tables_number   1
_chemical_formula_structural   Ba2CaAl2CrF14
_chemical_formula_sum   'Ba4 Ca2 Al4 Cr2 F28'
_cell_volume   556.49978826
_cell_formula_units_Z   2
loop_
 _symmetry_equiv_pos_site_id
 _symmetry_equiv_pos_as_xyz
  1  'x, y, z'
loop_
 _atom_site_type_symbol
 _atom_site_label
 _atom_site_symmetry_multiplicity
 _atom_site_fract_x
 _atom_site_fract_y
 _atom_site_fract_z
 _atom_site_occupancy
  Ba  Ba0  1  0.236909  0.144993  0.380911  1
  Ba  Ba1  1  0.855007  0.763091  0.119089  1
  Ba  Ba2  1  0.763091  0.855007  0.619089  1
  Ba  Ba3  1  0.144993  0.236909  0.880911  1
  Ca  Ca4  1  0.566771  0.433229  0.250000  1
  Ca  Ca5  1  0.433229  0.566771  0.750000  1
  Al  Al6  1  0.130778  0.110630  0.123398  1
  Al  Al7  1  0.889370  0.869222  0.376602  1
  Al  Al8  1  0.869222  0.889370  0.876602  1
  Al  Al9  1  0.110630  0.130778  0.623398  1
  Cr  Cr10  1  0.500000  0.500000  0.000000  1
  Cr  Cr11  1  0.500000  0.500000  0.500000  1
  F  F12  1  0.315100  0.173151  0.088477  1
  F  F13  1  0.826849  0.684900  0.411523  1
  F  F14  1  0.684900  0.826849  0.911523  1
  F  F15  1  0.173151  0.315100  0.588477  1
  F  F16  1  0.731650  0.102108  0.975726  1
  F  F17  1  0.897892  0.268350  0.524274  1
  F  F18  1  0.268350  0.897892  0.024274  1
  F  F19  1  0.102108  0.731650  0.475726  1
  F  F20  1  0.404000  0.860986  0.550939  1
  F  F21  1  0.139014  0.596000  0.949061  1
  F  F22  1  0.596000  0.139014  0.449061  1
  F  F23  1  0.860986  0.404000  0.050939  1
  F  F24  1  0.923119  0.073781  0.154478  1
  F  F25  1  0.926219  0.076881  0.345522  1
  F  F26  1  0.076881  0.926219  0.845522  1
  F  F27  1  0.073781  0.923119  0.654478  1
  F  F28  1  0.349140  0.969997  0.717913  1
  F  F29  1  0.030003  0.650860  0.782087  1
  F  F30  1  0.650860  0.030003  0.282087  1
  F  F31  1  0.969997  0.349140  0.217913  1
  F  F32  1  0.596454  0.163339  0.804556  1
  F  F33  1  0.836661  0.403546  0.695444  1
  F  F34  1  0.403546  0.836661  0.195444  1
  F  F35  1  0.163339  0.596454  0.304556  1
  F  F36  1  0.504469  0.626136  0.379152  1
  F  F37  1  0.373864  0.495531  0.120848  1
  F  F38  1  0.495531  0.373864  0.620848  1
  F  F39  1  0.626136  0.504469  0.879152  1
