# generated using pymatgen
data_DyY2In3AgRh2
_symmetry_space_group_name_H-M   'P 1'
_cell_length_a   7.81737488
_cell_length_b   7.82033990
_cell_length_c   3.80805400
_cell_angle_alpha   90.00000000
_cell_angle_beta   90.00000000
_cell_angle_gamma   120.08574820
_symmetry_Int_Tables_number   1
_chemical_formula_structural   DyY2In3AgRh2
_chemical_formula_sum   'Dy1 Y2 In3 Ag1 Rh2'
_cell_volume   201.43938876
_cell_formula_units_Z   1
loop_
 _symmetry_equiv_pos_site_id
 _symmetry_equiv_pos_as_xyz
  1  'x, y, z'
loop_
 _atom_site_type_symbol
 _atom_site_label
 _atom_site_symmetry_multiplicity
 _atom_site_fract_x
 _atom_site_fract_y
 _atom_site_fract_z
 _atom_site_occupancy
  Dy  Dy0  1  0.971274  0.585507  0.500000  1
  Y  Y1  1  0.413068  0.386287  0.500000  1
  Y  Y2  1  0.613392  0.027415  0.500000  1
  In  In3  1  0.004421  0.260699  0.000000  1
  In  In4  1  0.257216  0.995451  0.000000  1
  In  In5  1  0.738208  0.743382  0.000000  1
  Ag  Ag6  1  0.332016  0.666374  0.000000  1
  Rh  Rh7  1  0.000426  0.998509  0.500000  1
  Rh  Rh8  1  0.669977  0.336377  0.000000  1
