# generated using pymatgen
data_Dy3Er2Tc3(P3Ir4)4
_symmetry_space_group_name_H-M   'P 1'
_cell_length_a   12.65220000
_cell_length_b   12.64845583
_cell_length_c   3.97746200
_cell_angle_alpha   90.00000000
_cell_angle_beta   90.00000000
_cell_angle_gamma   120.00979269
_symmetry_Int_Tables_number   1
_chemical_formula_structural   Dy3Er2Tc3(P3Ir4)4
_chemical_formula_sum   'Dy3 Er2 Tc3 P12 Ir16'
_cell_volume   551.18496682
_cell_formula_units_Z   1
loop_
 _symmetry_equiv_pos_site_id
 _symmetry_equiv_pos_as_xyz
  1  'x, y, z'
loop_
 _atom_site_type_symbol
 _atom_site_label
 _atom_site_symmetry_multiplicity
 _atom_site_fract_x
 _atom_site_fract_y
 _atom_site_fract_z
 _atom_site_occupancy
  Dy  Dy0  1  0.333345  0.666712  0.500000  1
  Dy  Dy1  1  0.666633  0.333288  0.500000  1
  Dy  Dy2  1  0.816823  0.000000  0.000000  1
  Er  Er3  1  0.000082  0.817151  0.000000  1
  Er  Er4  1  0.182931  0.182849  0.000000  1
  Tc  Tc5  1  0.000108  0.455518  0.500000  1
  Tc  Tc6  1  0.544590  0.544482  0.500000  1
  Tc  Tc7  1  0.455247  0.000000  0.500000  1
  P  P8  1  0.999997  0.639358  0.500000  1
  P  P9  1  0.360639  0.360642  0.500000  1
  P  P10  1  0.638900  0.000000  0.500000  1
  P  P11  1  0.515683  0.685104  0.000000  1
  P  P12  1  0.314926  0.830581  0.000000  1
  P  P13  1  0.169470  0.484444  0.000000  1
  P  P14  1  0.484345  0.169419  0.000000  1
  P  P15  1  0.685026  0.515556  0.000000  1
  P  P16  1  0.830578  0.314896  0.000000  1
  P  P17  1  0.000342  0.176285  0.500000  1
  P  P18  1  0.824058  0.823715  0.500000  1
  P  P19  1  0.176380  0.000000  0.500000  1
  Ir  Ir20  1  0.510059  0.868408  0.000000  1
  Ir  Ir21  1  0.131640  0.641806  0.000000  1
  Ir  Ir22  1  0.358241  0.489883  0.000000  1
  Ir  Ir23  1  0.489835  0.358194  0.000000  1
  Ir  Ir24  1  0.868359  0.510117  0.000000  1
  Ir  Ir25  1  0.641652  0.131592  0.000000  1
  Ir  Ir26  1  0.000130  0.290563  0.000000  1
  Ir  Ir27  1  0.709567  0.709437  0.000000  1
  Ir  Ir28  1  0.290410  0.000000  0.000000  1
  Ir  Ir29  1  0.626790  0.805678  0.500000  1
  Ir  Ir30  1  0.193509  0.820987  0.500000  1
  Ir  Ir31  1  0.179062  0.372520  0.500000  1
  Ir  Ir32  1  0.372522  0.179013  0.500000  1
  Ir  Ir33  1  0.806542  0.627480  0.500000  1
  Ir  Ir34  1  0.821112  0.194322  0.500000  1
  Ir  Ir35  1  0.000462  0.000000  0.500000  1
