# generated using pymatgen
data_Ca10TaWN10
_symmetry_space_group_name_H-M   'P 1'
_cell_length_a   6.94984237
_cell_length_b   6.94984134
_cell_length_c   8.91121800
_cell_angle_alpha   80.54911089
_cell_angle_beta   80.54911156
_cell_angle_gamma   59.76467595
_symmetry_Int_Tables_number   1
_chemical_formula_structural   Ca10TaWN10
_chemical_formula_sum   'Ca10 Ta1 W1 N10'
_cell_volume   365.13358093
_cell_formula_units_Z   1
loop_
 _symmetry_equiv_pos_site_id
 _symmetry_equiv_pos_as_xyz
  1  'x, y, z'
loop_
 _atom_site_type_symbol
 _atom_site_label
 _atom_site_symmetry_multiplicity
 _atom_site_fract_x
 _atom_site_fract_y
 _atom_site_fract_z
 _atom_site_occupancy
  Ca  Ca0  1  0.875620  0.353002  0.834452  1
  Ca  Ca1  1  0.873857  0.873857  0.825044  1
  Ca  Ca2  1  0.739386  0.739386  0.529649  1
  Ca  Ca3  1  0.753945  0.247606  0.507175  1
  Ca  Ca4  1  0.629595  0.136982  0.150999  1
  Ca  Ca5  1  0.353002  0.875620  0.834452  1
  Ca  Ca6  1  0.247606  0.753945  0.507175  1
  Ca  Ca7  1  0.240636  0.240636  0.495280  1
  Ca  Ca8  1  0.141098  0.141098  0.160084  1
  Ca  Ca9  1  0.136982  0.629595  0.150999  1
  Ta  Ta10  1  0.369434  0.369434  0.774027  1
  W  W11  1  0.632360  0.632360  0.225049  1
  N  N12  1  0.908863  0.470176  0.319389  1
  N  N13  1  0.996758  0.996758  0.017254  1
  N  N14  1  0.679407  0.679407  0.012758  1
  N  N15  1  0.535476  0.535476  0.692991  1
  N  N16  1  0.470176  0.908863  0.319389  1
  N  N17  1  0.537665  0.085495  0.676139  1
  N  N18  1  0.472434  0.472434  0.295590  1
  N  N19  1  0.320570  0.320570  0.995667  1
  N  N20  1  0.061921  0.061921  0.646104  1
  N  N21  1  0.085495  0.537665  0.676139  1
