# generated using pymatgen
data_Nb2CoNiTe4
_symmetry_space_group_name_H-M   'P 1'
_cell_length_a   8.56716526
_cell_length_b   8.56716524
_cell_length_c   6.33443600
_cell_angle_alpha   90.00000000
_cell_angle_beta   90.00000000
_cell_angle_gamma   125.07317390
_symmetry_Int_Tables_number   1
_chemical_formula_structural   Nb2CoNiTe4
_chemical_formula_sum   'Nb4 Co2 Ni2 Te8'
_cell_volume   380.50280485
_cell_formula_units_Z   2
loop_
 _symmetry_equiv_pos_site_id
 _symmetry_equiv_pos_as_xyz
  1  'x, y, z'
loop_
 _atom_site_type_symbol
 _atom_site_label
 _atom_site_symmetry_multiplicity
 _atom_site_fract_x
 _atom_site_fract_y
 _atom_site_fract_z
 _atom_site_occupancy
  Nb  Nb0  1  0.709962  0.707596  0.499471  1
  Nb  Nb1  1  0.790038  0.792404  0.999471  1
  Nb  Nb2  1  0.292404  0.290038  0.499471  1
  Nb  Nb3  1  0.207596  0.209962  0.999471  1
  Co  Co4  1  0.945756  0.054244  0.365443  1
  Co  Co5  1  0.554244  0.445756  0.865443  1
  Ni  Ni6  1  0.060116  0.939884  0.649716  1
  Ni  Ni7  1  0.439884  0.560116  0.149716  1
  Te  Te8  1  0.411273  0.102444  0.746069  1
  Te  Te9  1  0.088727  0.397556  0.246069  1
  Te  Te10  1  0.602444  0.911273  0.246069  1
  Te  Te11  1  0.897556  0.588727  0.746069  1
  Te  Te12  1  0.890684  0.109316  0.747872  1
  Te  Te13  1  0.609316  0.390684  0.247872  1
  Te  Te14  1  0.107638  0.892362  0.245888  1
  Te  Te15  1  0.392362  0.607638  0.745888  1
