# generated using pymatgen
data_Li4SmPaS6
_symmetry_space_group_name_H-M   'P 1'
_cell_length_a   6.75719432
_cell_length_b   6.75719391
_cell_length_c   6.55275601
_cell_angle_alpha   100.03703889
_cell_angle_beta   100.03704172
_cell_angle_gamma   119.80528240
_symmetry_Int_Tables_number   1
_chemical_formula_structural   Li4SmPaS6
_chemical_formula_sum   'Li4 Sm1 Pa1 S6'
_cell_volume   243.43485008
_cell_formula_units_Z   1
loop_
 _symmetry_equiv_pos_site_id
 _symmetry_equiv_pos_as_xyz
  1  'x, y, z'
loop_
 _atom_site_type_symbol
 _atom_site_label
 _atom_site_symmetry_multiplicity
 _atom_site_fract_x
 _atom_site_fract_y
 _atom_site_fract_z
 _atom_site_occupancy
  Li  Li0  1  0.499193  0.500805  0.000000  1
  Li  Li1  1  0.008688  0.991311  0.499999  1
  Li  Li2  1  0.664212  0.335788  0.500001  1
  Li  Li3  1  0.336953  0.663047  0.500001  1
  Sm  Sm4  1  0.832506  0.167493  0.000000  1
  Pa  Pa5  1  0.166146  0.833852  0.000000  1
  S  S6  1  0.925322  0.596987  0.244263  1
  S  S7  1  0.569071  0.917113  0.250794  1
  S  S8  1  0.248843  0.236838  0.252860  1
  S  S9  1  0.763163  0.751158  0.747139  1
  S  S10  1  0.082889  0.430931  0.749208  1
  S  S11  1  0.403015  0.074680  0.755738  1
