# generated using pymatgen
data_SmTh2P4Pd7
_symmetry_space_group_name_H-M   'P 1'
_cell_length_a   8.09860283
_cell_length_b   8.09860357
_cell_length_c   9.56411252
_cell_angle_alpha   55.39306829
_cell_angle_beta   55.39306358
_cell_angle_gamma   29.27834896
_symmetry_Int_Tables_number   1
_chemical_formula_structural   SmTh2P4Pd7
_chemical_formula_sum   'Sm1 Th2 P4 Pd7'
_cell_volume   248.36161640
_cell_formula_units_Z   1
loop_
 _symmetry_equiv_pos_site_id
 _symmetry_equiv_pos_as_xyz
  1  'x, y, z'
loop_
 _atom_site_type_symbol
 _atom_site_label
 _atom_site_symmetry_multiplicity
 _atom_site_fract_x
 _atom_site_fract_y
 _atom_site_fract_z
 _atom_site_occupancy
  Sm  Sm0  1  0.318046  0.318046  0.679816  1
  Th  Th1  1  0.679862  0.679862  0.325099  1
  Th  Th2  1  0.001546  0.001546  0.997037  1
  P  P3  1  0.343622  0.343622  0.250491  1
  P  P4  1  0.659620  0.659620  0.746154  1
  P  P5  1  0.892301  0.892301  0.820660  1
  P  P6  1  0.105721  0.105721  0.176796  1
  Pd  Pd7  1  0.308394  0.308394  0.025620  1
  Pd  Pd8  1  0.691221  0.691221  0.975900  1
  Pd  Pd9  1  0.510366  0.510366  0.712915  1
  Pd  Pd10  1  0.832967  0.832967  0.425375  1
  Pd  Pd11  1  0.490208  0.490208  0.286965  1
  Pd  Pd12  1  0.166492  0.166492  0.575704  1
  Pd  Pd13  1  0.999634  0.999634  0.501467  1
