# generated using pymatgen
data_CsSeO3F
_symmetry_space_group_name_H-M   'P 1'
_cell_length_a   6.70136900
_cell_length_b   8.34158300
_cell_length_c   9.76074800
_cell_angle_alpha   90.00000000
_cell_angle_beta   90.00000000
_cell_angle_gamma   90.00000000
_symmetry_Int_Tables_number   1
_chemical_formula_structural   CsSeO3F
_chemical_formula_sum   'Cs4 Se4 O12 F4'
_cell_volume   545.62606432
_cell_formula_units_Z   4
loop_
 _symmetry_equiv_pos_site_id
 _symmetry_equiv_pos_as_xyz
  1  'x, y, z'
loop_
 _atom_site_type_symbol
 _atom_site_label
 _atom_site_symmetry_multiplicity
 _atom_site_fract_x
 _atom_site_fract_y
 _atom_site_fract_z
 _atom_site_occupancy
  Cs  Cs0  1  0.250000  0.341346  0.677950  1
  Cs  Cs1  1  0.250000  0.158654  0.177950  1
  Cs  Cs2  1  0.750000  0.658654  0.322050  1
  Cs  Cs3  1  0.750000  0.841346  0.822050  1
  Se  Se4  1  0.250000  0.801159  0.555628  1
  Se  Se5  1  0.250000  0.698841  0.055628  1
  Se  Se6  1  0.750000  0.198841  0.444372  1
  Se  Se7  1  0.750000  0.301159  0.944372  1
  O  O8  1  0.043633  0.700221  0.585198  1
  O  O9  1  0.456367  0.799779  0.085198  1
  O  O10  1  0.543633  0.299779  0.414802  1
  O  O11  1  0.956367  0.200221  0.914802  1
  O  O12  1  0.956367  0.299779  0.414802  1
  O  O13  1  0.543633  0.200221  0.914802  1
  O  O14  1  0.456367  0.700221  0.585198  1
  O  O15  1  0.043633  0.799779  0.085198  1
  O  O16  1  0.250000  0.915717  0.419753  1
  O  O17  1  0.250000  0.584283  0.919753  1
  O  O18  1  0.750000  0.084283  0.580247  1
  O  O19  1  0.750000  0.415717  0.080247  1
  F  F20  1  0.250000  0.944724  0.696694  1
  F  F21  1  0.250000  0.555276  0.196694  1
  F  F22  1  0.750000  0.055276  0.303306  1
  F  F23  1  0.750000  0.444724  0.803306  1
