# generated using pymatgen
data_NdZn10Pd
_symmetry_space_group_name_H-M   'P 1'
_cell_length_a   6.83877298
_cell_length_b   8.27869284
_cell_length_c   8.30968209
_cell_angle_alpha   99.78008602
_cell_angle_beta   114.28777527
_cell_angle_gamma   65.66090466
_symmetry_Int_Tables_number   1
_chemical_formula_structural   NdZn10Pd
_chemical_formula_sum   'Nd2 Zn20 Pd2'
_cell_volume   390.70898752
_cell_formula_units_Z   2
loop_
 _symmetry_equiv_pos_site_id
 _symmetry_equiv_pos_as_xyz
  1  'x, y, z'
loop_
 _atom_site_type_symbol
 _atom_site_label
 _atom_site_symmetry_multiplicity
 _atom_site_fract_x
 _atom_site_fract_y
 _atom_site_fract_z
 _atom_site_occupancy
  Nd  Nd0  1  0.996019  0.000058  0.992037  1
  Nd  Nd1  1  0.253960  0.499896  0.507929  1
  Zn  Zn2  1  0.505204  0.000020  0.010405  1
  Zn  Zn3  1  0.905000  0.670394  0.085977  1
  Zn  Zn4  1  0.181040  0.329511  0.086170  1
  Zn  Zn5  1  0.346303  0.584338  0.172960  1
  Zn  Zn6  1  0.826743  0.415680  0.173019  1
  Zn  Zn7  1  0.423271  0.084325  0.326998  1
  Zn  Zn8  1  0.903716  0.915678  0.327044  1
  Zn  Zn9  1  0.068978  0.170481  0.413850  1
  Zn  Zn10  1  0.345029  0.829605  0.414046  1
  Zn  Zn11  1  0.744717  0.499998  0.489573  1
  Zn  Zn12  1  0.756563  0.175350  0.582182  1
  Zn  Zn13  1  0.825573  0.824603  0.582112  1
  Zn  Zn14  1  0.489486  0.084000  0.671978  1
  Zn  Zn15  1  0.182541  0.915905  0.671981  1
  Zn  Zn16  1  0.125030  0.249993  0.750014  1
  Zn  Zn17  1  0.625040  0.749995  0.750017  1
  Zn  Zn18  1  0.760498  0.416015  0.828007  1
  Zn  Zn19  1  0.067481  0.584088  0.828029  1
  Zn  Zn20  1  0.493455  0.324655  0.917811  1
  Zn  Zn21  1  0.424397  0.675395  0.917881  1
  Pd  Pd22  1  0.624984  0.250000  0.249995  1
  Pd  Pd23  1  0.624967  0.750019  0.249986  1
