# generated using pymatgen
data_Rb10Mn5NiS14
_symmetry_space_group_name_H-M   'P 1'
_cell_length_a   10.45908901
_cell_length_b   10.45908840
_cell_length_c   8.87623500
_cell_angle_alpha   78.10704720
_cell_angle_beta   78.10705350
_cell_angle_gamma   72.13856324
_symmetry_Int_Tables_number   1
_chemical_formula_structural   Rb10Mn5NiS14
_chemical_formula_sum   'Rb10 Mn5 Ni1 S14'
_cell_volume   893.65043779
_cell_formula_units_Z   1
loop_
 _symmetry_equiv_pos_site_id
 _symmetry_equiv_pos_as_xyz
  1  'x, y, z'
loop_
 _atom_site_type_symbol
 _atom_site_label
 _atom_site_symmetry_multiplicity
 _atom_site_fract_x
 _atom_site_fract_y
 _atom_site_fract_z
 _atom_site_occupancy
  Rb  Rb0  1  0.029409  0.426001  0.731256  1
  Rb  Rb1  1  0.426001  0.029409  0.731256  1
  Rb  Rb2  1  0.969749  0.569034  0.268032  1
  Rb  Rb3  1  0.569034  0.969749  0.268032  1
  Rb  Rb4  1  0.288800  0.710931  0.997261  1
  Rb  Rb5  1  0.710931  0.288800  0.997261  1
  Rb  Rb6  1  0.843639  0.153922  0.499492  1
  Rb  Rb7  1  0.153922  0.843639  0.499492  1
  Rb  Rb8  1  0.430368  0.430368  0.695185  1
  Rb  Rb9  1  0.569690  0.569690  0.305874  1
  Mn  Mn10  1  0.793560  0.793560  0.815024  1
  Mn  Mn11  1  0.077538  0.077538  0.068931  1
  Mn  Mn12  1  0.926646  0.926646  0.935810  1
  Mn  Mn13  1  0.333240  0.333240  0.323784  1
  Mn  Mn14  1  0.662997  0.662997  0.670234  1
  Ni  Ni15  1  0.207403  0.207403  0.188433  1
  S  S16  1  0.996767  0.282665  0.126079  1
  S  S17  1  0.282665  0.996767  0.126079  1
  S  S18  1  0.007618  0.711461  0.874869  1
  S  S19  1  0.711461  0.007618  0.874869  1
  S  S20  1  0.205383  0.205383  0.440808  1
  S  S21  1  0.799187  0.799187  0.563530  1
  S  S22  1  0.066813  0.066813  0.823038  1
  S  S23  1  0.944119  0.944119  0.187805  1
  S  S24  1  0.342526  0.342526  0.075384  1
  S  S25  1  0.659443  0.659443  0.927346  1
  S  S26  1  0.255321  0.534496  0.393100  1
  S  S27  1  0.534496  0.255321  0.393100  1
  S  S28  1  0.742838  0.458438  0.599318  1
  S  S29  1  0.458438  0.742838  0.599318  1
