# generated using pymatgen
data_LiEr6Si6Pd
_symmetry_space_group_name_H-M   'P 1'
_cell_length_a   5.65470857
_cell_length_b   5.65470769
_cell_length_c   13.50274297
_cell_angle_alpha   71.43955645
_cell_angle_beta   71.43955931
_cell_angle_gamma   43.79395643
_symmetry_Int_Tables_number   1
_chemical_formula_structural   LiEr6Si6Pd
_chemical_formula_sum   'Li1 Er6 Si6 Pd1'
_cell_volume   280.67394041
_cell_formula_units_Z   1
loop_
 _symmetry_equiv_pos_site_id
 _symmetry_equiv_pos_as_xyz
  1  'x, y, z'
loop_
 _atom_site_type_symbol
 _atom_site_label
 _atom_site_symmetry_multiplicity
 _atom_site_fract_x
 _atom_site_fract_y
 _atom_site_fract_z
 _atom_site_occupancy
  Li  Li0  1  0.754537  0.754537  0.405594  1
  Er  Er1  1  0.469298  0.469298  0.379734  1
  Er  Er2  1  0.603809  0.603809  0.078022  1
  Er  Er3  1  0.744837  0.744837  0.773983  1
  Er  Er4  1  0.527322  0.527322  0.623363  1
  Er  Er5  1  0.396301  0.396301  0.923323  1
  Er  Er6  1  0.256759  0.256759  0.220916  1
  Si  Si7  1  0.877056  0.877056  0.548549  1
  Si  Si8  1  0.964663  0.964663  0.227720  1
  Si  Si9  1  0.888857  0.888857  0.074464  1
  Si  Si10  1  0.112806  0.112806  0.924578  1
  Si  Si11  1  0.119768  0.119768  0.453520  1
  Si  Si12  1  0.038746  0.038746  0.769797  1
  Pd  Pd13  1  0.245241  0.245241  0.596437  1
