# generated using pymatgen
data_TiNb2(AlRu2)3
_symmetry_space_group_name_H-M   'P 1'
_cell_length_a   4.35813900
_cell_length_b   6.18365700
_cell_length_c   13.05938100
_cell_angle_alpha   90.00000000
_cell_angle_beta   89.99989476
_cell_angle_gamma   90.00000000
_symmetry_Int_Tables_number   1
_chemical_formula_structural   TiNb2(AlRu2)3
_chemical_formula_sum   'Ti2 Nb4 Al6 Ru12'
_cell_volume   351.94035017
_cell_formula_units_Z   2
loop_
 _symmetry_equiv_pos_site_id
 _symmetry_equiv_pos_as_xyz
  1  'x, y, z'
loop_
 _atom_site_type_symbol
 _atom_site_label
 _atom_site_symmetry_multiplicity
 _atom_site_fract_x
 _atom_site_fract_y
 _atom_site_fract_z
 _atom_site_occupancy
  Ti  Ti0  1  0.000125  0.499999  0.668725  1
  Ti  Ti1  1  0.500126  0.000000  0.831274  1
  Nb  Nb2  1  0.000002  0.499999  0.996268  1
  Nb  Nb3  1  0.499865  0.000000  0.165278  1
  Nb  Nb4  1  0.999867  0.499999  0.334723  1
  Nb  Nb5  1  0.500001  0.000000  0.503732  1
  Al  Al6  1  0.999996  0.000000  0.996807  1
  Al  Al7  1  0.499867  0.499999  0.165390  1
  Al  Al8  1  0.999868  0.000000  0.334619  1
  Al  Al9  1  0.499995  0.499999  0.503189  1
  Al  Al10  1  0.000129  0.000000  0.668513  1
  Al  Al11  1  0.500130  0.499999  0.831484  1
  Ru  Ru12  1  0.500005  0.248671  0.998840  1
  Ru  Ru13  1  0.500005  0.751328  0.998840  1
  Ru  Ru14  1  0.999878  0.249601  0.166526  1
  Ru  Ru15  1  0.999878  0.750399  0.166526  1
  Ru  Ru16  1  0.499880  0.250396  0.333475  1
  Ru  Ru17  1  0.499880  0.749605  0.333475  1
  Ru  Ru18  1  0.000003  0.251337  0.501160  1
  Ru  Ru19  1  0.000003  0.748663  0.501160  1
  Ru  Ru20  1  0.500125  0.251311  0.667778  1
  Ru  Ru21  1  0.500125  0.748690  0.667778  1
  Ru  Ru22  1  0.000125  0.248689  0.832220  1
  Ru  Ru23  1  0.000125  0.751311  0.832220  1
