# generated using pymatgen
data_Ho4ZnSi6Ir
_symmetry_space_group_name_H-M   'P 1'
_cell_length_a   8.13157800
_cell_length_b   8.13157790
_cell_length_c   7.99177800
_cell_angle_alpha   90.00000000
_cell_angle_beta   90.00000000
_cell_angle_gamma   120.00000043
_symmetry_Int_Tables_number   1
_chemical_formula_structural   Ho4ZnSi6Ir
_chemical_formula_sum   'Ho8 Zn2 Si12 Ir2'
_cell_volume   457.63970816
_cell_formula_units_Z   2
loop_
 _symmetry_equiv_pos_site_id
 _symmetry_equiv_pos_as_xyz
  1  'x, y, z'
loop_
 _atom_site_type_symbol
 _atom_site_label
 _atom_site_symmetry_multiplicity
 _atom_site_fract_x
 _atom_site_fract_y
 _atom_site_fract_z
 _atom_site_occupancy
  Ho  Ho0  1  0.508990  0.017980  0.243434  1
  Ho  Ho1  1  0.491010  0.982020  0.756566  1
  Ho  Ho2  1  0.982020  0.491010  0.243434  1
  Ho  Ho3  1  0.017980  0.508990  0.756566  1
  Ho  Ho4  1  0.508990  0.491010  0.243434  1
  Ho  Ho5  1  0.491010  0.508990  0.756566  1
  Ho  Ho6  1  0.000000  0.000000  0.251932  1
  Ho  Ho7  1  0.000000  0.000000  0.748068  1
  Zn  Zn8  1  0.666667  0.333333  0.548139  1
  Zn  Zn9  1  0.333333  0.666667  0.451861  1
  Si  Si10  1  0.166447  0.332893  0.009351  1
  Si  Si11  1  0.833553  0.667107  0.990649  1
  Si  Si12  1  0.667107  0.833553  0.009351  1
  Si  Si13  1  0.833217  0.666436  0.492521  1
  Si  Si14  1  0.332893  0.166447  0.990649  1
  Si  Si15  1  0.166783  0.333564  0.507479  1
  Si  Si16  1  0.166447  0.833553  0.009351  1
  Si  Si17  1  0.333564  0.166783  0.492521  1
  Si  Si18  1  0.833553  0.166447  0.990649  1
  Si  Si19  1  0.666436  0.833217  0.507479  1
  Si  Si20  1  0.833217  0.166783  0.492521  1
  Si  Si21  1  0.166783  0.833217  0.507479  1
  Ir  Ir22  1  0.333333  0.666667  0.019164  1
  Ir  Ir23  1  0.666667  0.333333  0.980836  1
