# generated using pymatgen
data_Hf2Be8ReRu
_symmetry_space_group_name_H-M   'P 1'
_cell_length_a   4.53642500
_cell_length_b   4.53642413
_cell_length_c   7.45228300
_cell_angle_alpha   90.00000000
_cell_angle_beta   90.00000000
_cell_angle_gamma   120.00001363
_symmetry_Int_Tables_number   1
_chemical_formula_structural   Hf2Be8ReRu
_chemical_formula_sum   'Hf2 Be8 Re1 Ru1'
_cell_volume   132.81505241
_cell_formula_units_Z   1
loop_
 _symmetry_equiv_pos_site_id
 _symmetry_equiv_pos_as_xyz
  1  'x, y, z'
loop_
 _atom_site_type_symbol
 _atom_site_label
 _atom_site_symmetry_multiplicity
 _atom_site_fract_x
 _atom_site_fract_y
 _atom_site_fract_z
 _atom_site_occupancy
  Hf  Hf0  1  0.333333  0.666667  0.061738  1
  Hf  Hf1  1  0.666667  0.333333  0.567428  1
  Be  Be2  1  0.000000  0.000000  0.996085  1
  Be  Be3  1  0.000000  0.000000  0.497830  1
  Be  Be4  1  0.831921  0.663842  0.253373  1
  Be  Be5  1  0.168560  0.831440  0.749546  1
  Be  Be6  1  0.662881  0.831440  0.749546  1
  Be  Be7  1  0.336158  0.168079  0.253373  1
  Be  Be8  1  0.831921  0.168079  0.253373  1
  Be  Be9  1  0.168560  0.337119  0.749546  1
  Re  Re10  1  0.333333  0.666667  0.434856  1
  Ru  Ru11  1  0.666667  0.333333  0.933304  1
