# generated using pymatgen
data_Er4PI6
_symmetry_space_group_name_H-M   'P 1'
_cell_length_a   4.12891500
_cell_length_b   13.72867300
_cell_length_c   14.47524300
_cell_angle_alpha   90.00000000
_cell_angle_beta   90.00000000
_cell_angle_gamma   90.00000000
_symmetry_Int_Tables_number   1
_chemical_formula_structural   Er4PI6
_chemical_formula_sum   'Er8 P2 I12'
_cell_volume   820.52225750
_cell_formula_units_Z   2
loop_
 _symmetry_equiv_pos_site_id
 _symmetry_equiv_pos_as_xyz
  1  'x, y, z'
loop_
 _atom_site_type_symbol
 _atom_site_label
 _atom_site_symmetry_multiplicity
 _atom_site_fract_x
 _atom_site_fract_y
 _atom_site_fract_z
 _atom_site_occupancy
  Er  Er0  1  0.500000  0.112875  0.350367  1
  Er  Er1  1  0.500000  0.887125  0.649633  1
  Er  Er2  1  0.500000  0.612875  0.149633  1
  Er  Er3  1  0.500000  0.387125  0.850367  1
  Er  Er4  1  0.000000  0.107058  0.571697  1
  Er  Er5  1  0.000000  0.892942  0.428303  1
  Er  Er6  1  0.000000  0.607058  0.928303  1
  Er  Er7  1  0.000000  0.392942  0.071697  1
  P  P8  1  0.500000  0.000000  0.500000  1
  P  P9  1  0.500000  0.500000  0.000000  1
  I  I10  1  0.500000  0.246798  0.161196  1
  I  I11  1  0.500000  0.753202  0.838804  1
  I  I12  1  0.500000  0.746798  0.338804  1
  I  I13  1  0.500000  0.253202  0.661196  1
  I  I14  1  0.000000  0.259957  0.415505  1
  I  I15  1  0.000000  0.740043  0.584495  1
  I  I16  1  0.000000  0.759957  0.084495  1
  I  I17  1  0.000000  0.240043  0.915505  1
  I  I18  1  0.000000  0.998985  0.240167  1
  I  I19  1  0.000000  0.001015  0.759833  1
  I  I20  1  0.000000  0.498985  0.259833  1
  I  I21  1  0.000000  0.501015  0.740167  1
