# generated using pymatgen
data_Li7In(SiPt3)2
_symmetry_space_group_name_H-M   'P 1'
_cell_length_a   6.96907134
_cell_length_b   6.96907073
_cell_length_c   6.96907000
_cell_angle_alpha   60.49620845
_cell_angle_beta   60.49621131
_cell_angle_gamma   60.49621249
_symmetry_Int_Tables_number   1
_chemical_formula_structural   Li7In(SiPt3)2
_chemical_formula_sum   'Li7 In1 Si2 Pt6'
_cell_volume   242.02093638
_cell_formula_units_Z   1
loop_
 _symmetry_equiv_pos_site_id
 _symmetry_equiv_pos_as_xyz
  1  'x, y, z'
loop_
 _atom_site_type_symbol
 _atom_site_label
 _atom_site_symmetry_multiplicity
 _atom_site_fract_x
 _atom_site_fract_y
 _atom_site_fract_z
 _atom_site_occupancy
  Li  Li0  1  0.727050  0.727050  0.727050  1
  Li  Li1  1  0.570334  0.825106  0.342954  1
  Li  Li2  1  0.342954  0.570334  0.825106  1
  Li  Li3  1  0.825106  0.342954  0.570334  1
  Li  Li4  1  0.661329  0.154681  0.445006  1
  Li  Li5  1  0.154681  0.445006  0.661329  1
  Li  Li6  1  0.445006  0.661329  0.154681  1
  In  In7  1  0.282389  0.282389  0.282389  1
  Si  Si8  1  0.895897  0.895897  0.895897  1
  Si  Si9  1  0.097298  0.097298  0.097298  1
  Pt  Pt10  1  0.896849  0.495743  0.106266  1
  Pt  Pt11  1  0.106266  0.896849  0.495743  1
  Pt  Pt12  1  0.495743  0.106266  0.896849  1
  Pt  Pt13  1  0.254864  0.005005  0.739228  1
  Pt  Pt14  1  0.739228  0.254864  0.005005  1
  Pt  Pt15  1  0.005005  0.739228  0.254864  1
