# generated using pymatgen
data_Ho8Zr10TiSi16Hg
_symmetry_space_group_name_H-M   'P 1'
_cell_length_a   7.33479347
_cell_length_b   7.33479388
_cell_length_c   13.33129702
_cell_angle_alpha   90.12609612
_cell_angle_beta   89.87390280
_cell_angle_gamma   89.91485296
_symmetry_Int_Tables_number   1
_chemical_formula_structural   Ho8Zr10TiSi16Hg
_chemical_formula_sum   'Ho8 Zr10 Ti1 Si16 Hg1'
_cell_volume   717.20882077
_cell_formula_units_Z   1
loop_
 _symmetry_equiv_pos_site_id
 _symmetry_equiv_pos_as_xyz
  1  'x, y, z'
loop_
 _atom_site_type_symbol
 _atom_site_label
 _atom_site_symmetry_multiplicity
 _atom_site_fract_x
 _atom_site_fract_y
 _atom_site_fract_z
 _atom_site_occupancy
  Ho  Ho0  1  0.346364  0.002288  0.464659  1
  Ho  Ho1  1  0.496446  0.844699  0.714030  1
  Ho  Ho2  1  0.502729  0.151680  0.212067  1
  Ho  Ho3  1  0.844699  0.496446  0.285970  1
  Ho  Ho4  1  0.151680  0.502729  0.787933  1
  Ho  Ho5  1  0.651599  0.001535  0.965925  1
  Ho  Ho6  1  0.002288  0.346364  0.535341  1
  Ho  Ho7  1  0.001535  0.651599  0.034075  1
  Zr  Zr8  1  0.178440  0.822136  0.250628  1
  Zr  Zr9  1  0.822136  0.178440  0.749372  1
  Zr  Zr10  1  0.142494  0.008655  0.876694  1
  Zr  Zr11  1  0.497958  0.642224  0.122416  1
  Zr  Zr12  1  0.503025  0.358644  0.623277  1
  Zr  Zr13  1  0.642224  0.497958  0.877584  1
  Zr  Zr14  1  0.358644  0.503025  0.376723  1
  Zr  Zr15  1  0.854689  0.994084  0.374575  1
  Zr  Zr16  1  0.008655  0.142494  0.123306  1
  Zr  Zr17  1  0.994084  0.854689  0.625425  1
  Ti  Ti18  1  0.676728  0.676728  0.500000  1
  Si  Si19  1  0.205203  0.141936  0.682117  1
  Si  Si20  1  0.367741  0.728335  0.925491  1
  Si  Si21  1  0.641685  0.292270  0.431580  1
  Si  Si22  1  0.728335  0.367741  0.074509  1
  Si  Si23  1  0.292270  0.641685  0.568420  1
  Si  Si24  1  0.794910  0.857686  0.181299  1
  Si  Si25  1  0.141936  0.205203  0.317883  1
  Si  Si26  1  0.857686  0.794910  0.818701  1
  Si  Si27  1  0.290117  0.929910  0.063865  1
  Si  Si28  1  0.553745  0.793919  0.315745  1
  Si  Si29  1  0.449070  0.201082  0.806399  1
  Si  Si30  1  0.793919  0.553745  0.684255  1
  Si  Si31  1  0.201082  0.449070  0.193601  1
  Si  Si32  1  0.702803  0.048451  0.561963  1
  Si  Si33  1  0.929910  0.290117  0.936135  1
  Si  Si34  1  0.048451  0.702803  0.438037  1
  Hg  Hg35  1  0.324716  0.324716  0.000000  1
