# generated using pymatgen
data_Hf3Ni8MoP6
_symmetry_space_group_name_H-M   'P 1'
_cell_length_a   12.11603108
_cell_length_b   12.07978326
_cell_length_c   3.63249200
_cell_angle_alpha   90.00000000
_cell_angle_beta   90.00000000
_cell_angle_gamma   119.90108800
_symmetry_Int_Tables_number   1
_chemical_formula_structural   Hf3Ni8MoP6
_chemical_formula_sum   'Hf6 Ni16 Mo2 P12'
_cell_volume   460.87889329
_cell_formula_units_Z   2
loop_
 _symmetry_equiv_pos_site_id
 _symmetry_equiv_pos_as_xyz
  1  'x, y, z'
loop_
 _atom_site_type_symbol
 _atom_site_label
 _atom_site_symmetry_multiplicity
 _atom_site_fract_x
 _atom_site_fract_y
 _atom_site_fract_z
 _atom_site_occupancy
  Hf  Hf0  1  0.822542  0.821148  0.500000  1
  Hf  Hf1  1  0.000000  0.173487  0.500000  1
  Hf  Hf2  1  0.335026  0.667982  0.000000  1
  Hf  Hf3  1  0.664974  0.332954  0.000000  1
  Hf  Hf4  1  0.000000  0.554740  0.000000  1
  Hf  Hf5  1  0.177458  0.998607  0.500000  1
  Ni  Ni6  1  0.626830  0.818789  0.000000  1
  Ni  Ni7  1  0.373170  0.191960  0.000000  1
  Ni  Ni8  1  0.000000  0.724455  0.500000  1
  Ni  Ni9  1  0.278207  0.278132  0.500000  1
  Ni  Ni10  1  0.871274  0.350671  0.500000  1
  Ni  Ni11  1  0.721793  0.999926  0.500000  1
  Ni  Ni12  1  0.816144  0.629705  0.000000  1
  Ni  Ni13  1  0.183856  0.813561  0.000000  1
  Ni  Ni14  1  0.356422  0.874779  0.500000  1
  Ni  Ni15  1  0.128726  0.479397  0.500000  1
  Ni  Ni16  1  0.643578  0.518356  0.500000  1
  Ni  Ni17  1  0.000000  0.999579  0.000000  1
  Ni  Ni18  1  0.515615  0.647731  0.500000  1
  Ni  Ni19  1  0.484385  0.132116  0.500000  1
  Ni  Ni20  1  0.193124  0.371813  0.000000  1
  Ni  Ni21  1  0.806876  0.178689  0.000000  1
  Mo  Mo22  1  0.447081  0.447769  0.000000  1
  Mo  Mo23  1  0.552919  0.000688  0.000000  1
  P  P24  1  0.000000  0.346794  0.000000  1
  P  P25  1  0.825799  0.512861  0.500000  1
  P  P26  1  0.682830  0.167212  0.500000  1
  P  P27  1  0.176735  0.174511  0.000000  1
  P  P28  1  0.641731  0.644055  0.000000  1
  P  P29  1  0.823265  0.997775  0.000000  1
  P  P30  1  0.516256  0.834329  0.500000  1
  P  P31  1  0.174201  0.687060  0.500000  1
  P  P32  1  0.358269  0.002324  0.000000  1
  P  P33  1  0.483744  0.318074  0.500000  1
  P  P34  1  0.000000  0.823590  0.000000  1
  P  P35  1  0.317170  0.484380  0.500000  1
