# generated using pymatgen
data_KSm2GdB24
_symmetry_space_group_name_H-M   'P 1'
_cell_length_a   7.12888158
_cell_length_b   7.12888141
_cell_length_c   5.87884200
_cell_angle_alpha   90.00000000
_cell_angle_beta   90.00000000
_cell_angle_gamma   109.16229053
_symmetry_Int_Tables_number   1
_chemical_formula_structural   KSm2GdB24
_chemical_formula_sum   'K1 Sm2 Gd1 B24'
_cell_volume   282.21436950
_cell_formula_units_Z   1
loop_
 _symmetry_equiv_pos_site_id
 _symmetry_equiv_pos_as_xyz
  1  'x, y, z'
loop_
 _atom_site_type_symbol
 _atom_site_label
 _atom_site_symmetry_multiplicity
 _atom_site_fract_x
 _atom_site_fract_y
 _atom_site_fract_z
 _atom_site_occupancy
  K  K0  1  0.750000  0.250000  0.500000  1
  Sm  Sm1  1  0.501581  0.498419  0.000000  1
  Sm  Sm2  1  0.250717  0.749283  0.500000  1
  Gd  Gd3  1  0.997694  0.002306  0.000000  1
  B  B4  1  0.175344  0.326215  0.648618  1
  B  B5  1  0.926009  0.576491  0.149291  1
  B  B6  1  0.673785  0.824656  0.648618  1
  B  B7  1  0.423509  0.073991  0.149291  1
  B  B8  1  0.175344  0.326215  0.351382  1
  B  B9  1  0.926009  0.576491  0.850709  1
  B  B10  1  0.673785  0.824656  0.351382  1
  B  B11  1  0.423509  0.073991  0.850709  1
  B  B12  1  0.401236  0.398396  0.500000  1
  B  B13  1  0.150373  0.650736  0.000000  1
  B  B14  1  0.898540  0.901144  0.500000  1
  B  B15  1  0.649073  0.148855  0.000000  1
  B  B16  1  0.324550  0.173734  0.648673  1
  B  B17  1  0.076516  0.426020  0.149268  1
  B  B18  1  0.826266  0.675450  0.648673  1
  B  B19  1  0.573980  0.923484  0.149268  1
  B  B20  1  0.098856  0.101460  0.500000  1
  B  B21  1  0.851145  0.350927  0.000000  1
  B  B22  1  0.601604  0.598764  0.500000  1
  B  B23  1  0.349264  0.849627  0.000000  1
  B  B24  1  0.324550  0.173734  0.351327  1
  B  B25  1  0.076516  0.426020  0.850732  1
  B  B26  1  0.826266  0.675450  0.351327  1
  B  B27  1  0.573980  0.923484  0.850732  1
