# generated using pymatgen
data_Sc7Ta(Si4Tc3)4
_symmetry_space_group_name_H-M   'P 1'
_cell_length_a   6.62679119
_cell_length_b   6.62504660
_cell_length_c   12.35367110
_cell_angle_alpha   90.12175951
_cell_angle_beta   90.28038185
_cell_angle_gamma   90.18773656
_symmetry_Int_Tables_number   1
_chemical_formula_structural   Sc7Ta(Si4Tc3)4
_chemical_formula_sum   'Sc7 Ta1 Si16 Tc12'
_cell_volume   542.35010813
_cell_formula_units_Z   1
loop_
 _symmetry_equiv_pos_site_id
 _symmetry_equiv_pos_as_xyz
  1  'x, y, z'
loop_
 _atom_site_type_symbol
 _atom_site_label
 _atom_site_symmetry_multiplicity
 _atom_site_fract_x
 _atom_site_fract_y
 _atom_site_fract_z
 _atom_site_occupancy
  Sc  Sc0  1  0.840544  0.503422  0.280379  1
  Sc  Sc1  1  0.158427  0.495268  0.780849  1
  Sc  Sc2  1  0.505397  0.841580  0.720702  1
  Sc  Sc3  1  0.494697  0.157913  0.217269  1
  Sc  Sc4  1  0.996071  0.341644  0.530778  1
  Sc  Sc5  1  0.660712  0.998652  0.970112  1
  Sc  Sc6  1  0.341530  0.996788  0.469811  1
  Ta  Ta7  1  0.009796  0.656816  0.036920  1
  Si  Si8  1  0.274265  0.969056  0.061944  1
  Si  Si9  1  0.527858  0.780650  0.314128  1
  Si  Si10  1  0.473185  0.218100  0.815053  1
  Si  Si11  1  0.782234  0.529269  0.685860  1
  Si  Si12  1  0.219241  0.471403  0.185442  1
  Si  Si13  1  0.721691  0.027310  0.564515  1
  Si  Si14  1  0.970265  0.279513  0.935759  1
  Si  Si15  1  0.027173  0.721438  0.436055  1
  Si  Si16  1  0.694518  0.379650  0.064844  1
  Si  Si17  1  0.121954  0.193945  0.317509  1
  Si  Si18  1  0.880255  0.805490  0.821435  1
  Si  Si19  1  0.194782  0.123923  0.682218  1
  Si  Si20  1  0.805653  0.877278  0.179914  1
  Si  Si21  1  0.307363  0.622782  0.567046  1
  Si  Si22  1  0.375455  0.694722  0.932832  1
  Si  Si23  1  0.621507  0.306263  0.432646  1
  Tc  Tc24  1  0.324627  0.330713  0.999671  1
  Tc  Tc25  1  0.168302  0.833044  0.250094  1
  Tc  Tc26  1  0.830908  0.169147  0.750861  1
  Tc  Tc27  1  0.669573  0.669328  0.499550  1
  Tc  Tc28  1  0.977934  0.184184  0.131201  1
  Tc  Tc29  1  0.318699  0.481679  0.379444  1
  Tc  Tc30  1  0.678059  0.521842  0.879210  1
  Tc  Tc31  1  0.482904  0.321657  0.620207  1
  Tc  Tc32  1  0.515938  0.678433  0.119813  1
  Tc  Tc33  1  0.023022  0.818292  0.631556  1
  Tc  Tc34  1  0.187659  0.978286  0.865888  1
  Tc  Tc35  1  0.817801  0.020522  0.368484  1
