# generated using pymatgen
data_Y6In(P3Rh5)4
_symmetry_space_group_name_H-M   'P 1'
_cell_length_a   13.51969600
_cell_length_b   13.51969447
_cell_length_c   3.89906500
_cell_angle_alpha   90.00000000
_cell_angle_beta   90.00000000
_cell_angle_gamma   119.99999885
_symmetry_Int_Tables_number   1
_chemical_formula_structural   Y6In(P3Rh5)4
_chemical_formula_sum   'Y6 In1 P12 Rh20'
_cell_volume   617.19857611
_cell_formula_units_Z   1
loop_
 _symmetry_equiv_pos_site_id
 _symmetry_equiv_pos_as_xyz
  1  'x, y, z'
loop_
 _atom_site_type_symbol
 _atom_site_label
 _atom_site_symmetry_multiplicity
 _atom_site_fract_x
 _atom_site_fract_y
 _atom_site_fract_z
 _atom_site_occupancy
  Y  Y0  1  0.530673  0.716148  0.254784  1
  Y  Y1  1  0.283852  0.814526  0.254784  1
  Y  Y2  1  0.185474  0.469327  0.254784  1
  Y  Y3  1  0.469327  0.283852  0.745216  1
  Y  Y4  1  0.716148  0.185474  0.745216  1
  Y  Y5  1  0.814526  0.530673  0.745216  1
  In  In6  1  0.000000  0.000000  0.000000  1
  P  P7  1  0.527520  0.138754  0.247716  1
  P  P8  1  0.861246  0.388767  0.247716  1
  P  P9  1  0.611233  0.472480  0.247716  1
  P  P10  1  0.950792  0.718431  0.242227  1
  P  P11  1  0.281569  0.232361  0.242227  1
  P  P12  1  0.767639  0.049208  0.242227  1
  P  P13  1  0.388767  0.527520  0.752284  1
  P  P14  1  0.472480  0.861246  0.752284  1
  P  P15  1  0.138754  0.611233  0.752284  1
  P  P16  1  0.718431  0.767639  0.757773  1
  P  P17  1  0.232361  0.950792  0.757773  1
  P  P18  1  0.049208  0.281569  0.757773  1
  Rh  Rh19  1  0.333333  0.666667  0.754436  1
  Rh  Rh20  1  0.917105  0.252576  0.241128  1
  Rh  Rh21  1  0.747424  0.664529  0.241128  1
  Rh  Rh22  1  0.335471  0.082895  0.241128  1
  Rh  Rh23  1  0.443950  0.027845  0.747905  1
  Rh  Rh24  1  0.972155  0.416106  0.747905  1
  Rh  Rh25  1  0.583894  0.556050  0.747905  1
  Rh  Rh26  1  0.666667  0.333333  0.245564  1
  Rh  Rh27  1  0.097559  0.208876  0.267995  1
  Rh  Rh28  1  0.791124  0.888683  0.267995  1
  Rh  Rh29  1  0.111317  0.902441  0.267995  1
  Rh  Rh30  1  0.027845  0.583894  0.252095  1
  Rh  Rh31  1  0.416106  0.443950  0.252095  1
  Rh  Rh32  1  0.556050  0.972155  0.252095  1
  Rh  Rh33  1  0.664529  0.917105  0.758872  1
  Rh  Rh34  1  0.082895  0.747424  0.758872  1
  Rh  Rh35  1  0.252576  0.335471  0.758872  1
  Rh  Rh36  1  0.902441  0.791124  0.732005  1
  Rh  Rh37  1  0.208876  0.111317  0.732005  1
  Rh  Rh38  1  0.888683  0.097559  0.732005  1
