# generated using pymatgen
data_YHo5TcRu
_symmetry_space_group_name_H-M   'P 1'
_cell_length_a   6.24904100
_cell_length_b   7.39572200
_cell_length_c   9.10807000
_cell_angle_alpha   90.00000000
_cell_angle_beta   90.00000000
_cell_angle_gamma   90.00000000
_symmetry_Int_Tables_number   1
_chemical_formula_structural   YHo5TcRu
_chemical_formula_sum   'Y2 Ho10 Tc2 Ru2'
_cell_volume   420.94011152
_cell_formula_units_Z   2
loop_
 _symmetry_equiv_pos_site_id
 _symmetry_equiv_pos_as_xyz
  1  'x, y, z'
loop_
 _atom_site_type_symbol
 _atom_site_label
 _atom_site_symmetry_multiplicity
 _atom_site_fract_x
 _atom_site_fract_y
 _atom_site_fract_z
 _atom_site_occupancy
  Y  Y0  1  0.877970  0.538464  0.250000  1
  Y  Y1  1  0.622030  0.038464  0.250000  1
  Ho  Ho2  1  0.335969  0.676586  0.062929  1
  Ho  Ho3  1  0.164031  0.176586  0.437071  1
  Ho  Ho4  1  0.663371  0.324341  0.563267  1
  Ho  Ho5  1  0.836629  0.824341  0.936733  1
  Ho  Ho6  1  0.663371  0.324341  0.936733  1
  Ho  Ho7  1  0.836629  0.824341  0.563267  1
  Ho  Ho8  1  0.335969  0.676586  0.437071  1
  Ho  Ho9  1  0.164031  0.176586  0.062929  1
  Ho  Ho10  1  0.132012  0.457356  0.750000  1
  Ho  Ho11  1  0.367988  0.957355  0.750000  1
  Tc  Tc12  1  0.044517  0.886272  0.250000  1
  Tc  Tc13  1  0.455483  0.386272  0.250000  1
  Ru  Ru14  1  0.961577  0.116054  0.750000  1
  Ru  Ru15  1  0.538423  0.616054  0.750000  1
