# generated using pymatgen
data_TbDy3(ErSb5)4
_symmetry_space_group_name_H-M   'P 1'
_cell_length_a   4.23985000
_cell_length_b   13.14770521
_cell_length_c   14.63910506
_cell_angle_alpha   77.69793566
_cell_angle_beta   90.00000000
_cell_angle_gamma   90.00000000
_symmetry_Int_Tables_number   1
_chemical_formula_structural   TbDy3(ErSb5)4
_chemical_formula_sum   'Tb1 Dy3 Er4 Sb20'
_cell_volume   797.30848796
_cell_formula_units_Z   1
loop_
 _symmetry_equiv_pos_site_id
 _symmetry_equiv_pos_as_xyz
  1  'x, y, z'
loop_
 _atom_site_type_symbol
 _atom_site_label
 _atom_site_symmetry_multiplicity
 _atom_site_fract_x
 _atom_site_fract_y
 _atom_site_fract_z
 _atom_site_occupancy
  Tb  Tb0  1  0.250000  0.669338  0.577159  1
  Dy  Dy1  1  0.750000  0.330628  0.422778  1
  Dy  Dy2  1  0.250000  0.952733  0.360147  1
  Dy  Dy3  1  0.750000  0.047307  0.639866  1
  Er  Er4  1  0.250000  0.394233  0.771720  1
  Er  Er5  1  0.750000  0.605693  0.228286  1
  Er  Er6  1  0.250000  0.662290  0.855787  1
  Er  Er7  1  0.750000  0.337707  0.144246  1
  Sb  Sb8  1  0.250000  0.143344  0.779852  1
  Sb  Sb9  1  0.750000  0.856651  0.220150  1
  Sb  Sb10  1  0.250000  0.142879  0.482791  1
  Sb  Sb11  1  0.750000  0.857356  0.517132  1
  Sb  Sb12  1  0.250000  0.153633  0.171930  1
  Sb  Sb13  1  0.750000  0.846377  0.828076  1
  Sb  Sb14  1  0.250000  0.420398  0.975736  1
  Sb  Sb15  1  0.750000  0.579604  0.024266  1
  Sb  Sb16  1  0.750000  0.030022  0.906573  1
  Sb  Sb17  1  0.250000  0.969967  0.093427  1
  Sb  Sb18  1  0.750000  0.139260  0.321724  1
  Sb  Sb19  1  0.250000  0.860880  0.678332  1
  Sb  Sb20  1  0.750000  0.279673  0.938551  1
  Sb  Sb21  1  0.250000  0.720336  0.061434  1
  Sb  Sb22  1  0.750000  0.287243  0.653911  1
  Sb  Sb23  1  0.250000  0.712742  0.346014  1
  Sb  Sb24  1  0.750000  0.575366  0.736215  1
  Sb  Sb25  1  0.250000  0.424509  0.264025  1
  Sb  Sb26  1  0.750000  0.574303  0.446367  1
  Sb  Sb27  1  0.250000  0.425529  0.553504  1
