# generated using pymatgen
data_Cs2HgH3Pt
_symmetry_space_group_name_H-M   'P 1'
_cell_length_a   6.19232414
_cell_length_b   6.19232414
_cell_length_c   9.55752134
_cell_angle_alpha   90.39366068
_cell_angle_beta   89.60633932
_cell_angle_gamma   81.48631124
_symmetry_Int_Tables_number   1
_chemical_formula_structural   Cs2HgH3Pt
_chemical_formula_sum   'Cs4 Hg2 H6 Pt2'
_cell_volume   362.42346829
_cell_formula_units_Z   2
loop_
 _symmetry_equiv_pos_site_id
 _symmetry_equiv_pos_as_xyz
  1  'x, y, z'
loop_
 _atom_site_type_symbol
 _atom_site_label
 _atom_site_symmetry_multiplicity
 _atom_site_fract_x
 _atom_site_fract_y
 _atom_site_fract_z
 _atom_site_occupancy
  Cs  Cs0  1  0.069733  0.493450  0.288281  1
  Cs  Cs1  1  0.505112  0.928070  0.784768  1
  Cs  Cs2  1  0.071930  0.494888  0.784768  1
  Cs  Cs3  1  0.506550  0.930267  0.288281  1
  Hg  Hg4  1  0.637285  0.362715  0.036116  1
  Hg  Hg5  1  0.940911  0.059089  0.536061  1
  H  H6  1  0.996999  0.003001  0.860853  1
  H  H7  1  0.592858  0.407142  0.710352  1
  H  H8  1  0.003400  0.996600  0.208873  1
  H  H9  1  0.577204  0.422796  0.360538  1
  H  H10  1  0.182494  0.173152  0.035391  1
  H  H11  1  0.826848  0.817506  0.035391  1
  Pt  Pt12  1  0.590486  0.409514  0.535260  1
  Pt  Pt13  1  0.998190  0.001810  0.035067  1
