# generated using pymatgen
data_La4Gd2Tl5InO18
_symmetry_space_group_name_H-M   'P 1'
_cell_length_a   6.72625845
_cell_length_b   6.72701218
_cell_length_c   12.55848460
_cell_angle_alpha   90.12863006
_cell_angle_beta   89.74271040
_cell_angle_gamma   119.99629368
_symmetry_Int_Tables_number   1
_chemical_formula_structural   La4Gd2Tl5InO18
_chemical_formula_sum   'La4 Gd2 Tl5 In1 O18'
_cell_volume   492.12505184
_cell_formula_units_Z   1
loop_
 _symmetry_equiv_pos_site_id
 _symmetry_equiv_pos_as_xyz
  1  'x, y, z'
loop_
 _atom_site_type_symbol
 _atom_site_label
 _atom_site_symmetry_multiplicity
 _atom_site_fract_x
 _atom_site_fract_y
 _atom_site_fract_z
 _atom_site_occupancy
  La  La0  1  0.666126  0.330228  0.965132  1
  La  La1  1  0.337668  0.669985  0.462264  1
  La  La2  1  0.667684  0.330015  0.462264  1
  La  La3  1  0.335898  0.669772  0.965132  1
  Gd  Gd4  1  0.995564  0.000000  0.997570  1
  Gd  Gd5  1  0.996889  0.000000  0.494441  1
  Tl  Tl6  1  0.669874  0.669158  0.727078  1
  Tl  Tl7  1  0.000716  0.330842  0.727078  1
  Tl  Tl8  1  0.330508  0.329990  0.227014  1
  Tl  Tl9  1  0.000518  0.670010  0.227014  1
  Tl  Tl10  1  0.329600  0.000000  0.726957  1
  In  In11  1  0.669724  0.000000  0.227115  1
  O  O12  1  0.700325  0.699969  0.901770  1
  O  O13  1  0.000357  0.300031  0.901770  1
  O  O14  1  0.300930  0.300890  0.399028  1
  O  O15  1  0.000040  0.699110  0.399028  1
  O  O16  1  0.299072  0.000000  0.901580  1
  O  O17  1  0.701937  0.000000  0.398406  1
  O  O18  1  0.651343  0.650899  0.553011  1
  O  O19  1  0.000444  0.349101  0.553011  1
  O  O20  1  0.347216  0.347499  0.055727  1
  O  O21  1  0.999718  0.652501  0.055727  1
  O  O22  1  0.348764  0.000000  0.552896  1
  O  O23  1  0.648169  0.000000  0.056660  1
  O  O24  1  0.999555  0.000000  0.688360  1
  O  O25  1  0.985233  0.000000  0.191824  1
  O  O26  1  0.666697  0.332979  0.754825  1
  O  O27  1  0.348708  0.681701  0.252139  1
  O  O28  1  0.667008  0.318299  0.252139  1
  O  O29  1  0.333717  0.667021  0.754825  1
