# generated using pymatgen
data_Th2Re2Si2B
_symmetry_space_group_name_H-M   'P 1'
_cell_length_a   6.00980700
_cell_length_b   6.00980621
_cell_length_c   7.07444320
_cell_angle_alpha   54.12761240
_cell_angle_beta   54.12761591
_cell_angle_gamma   41.34397281
_symmetry_Int_Tables_number   1
_chemical_formula_structural   Th2Re2Si2B
_chemical_formula_sum   'Th2 Re2 Si2 B1'
_cell_volume   131.58210394
_cell_formula_units_Z   1
loop_
 _symmetry_equiv_pos_site_id
 _symmetry_equiv_pos_as_xyz
  1  'x, y, z'
loop_
 _atom_site_type_symbol
 _atom_site_label
 _atom_site_symmetry_multiplicity
 _atom_site_fract_x
 _atom_site_fract_y
 _atom_site_fract_z
 _atom_site_occupancy
  Th  Th0  1  0.430550  0.430550  0.301116  1
  Th  Th1  1  0.569450  0.569450  0.698884  1
  Re  Re2  1  0.784554  0.784554  0.103635  1
  Re  Re3  1  0.215446  0.215446  0.896365  1
  Si  Si4  1  0.852245  0.852245  0.698234  1
  Si  Si5  1  0.147755  0.147755  0.301766  1
  B  B6  1  0.000000  0.000000  0.000000  1
