# generated using pymatgen
data_Hf5Sc11Ni8
_symmetry_space_group_name_H-M   'P 1'
_cell_length_a   8.57757538
_cell_length_b   8.59829916
_cell_length_c   8.59829931
_cell_angle_alpha   60.00106571
_cell_angle_beta   60.07969832
_cell_angle_gamma   60.07970099
_symmetry_Int_Tables_number   1
_chemical_formula_structural   Hf5Sc11Ni8
_chemical_formula_sum   'Hf5 Sc11 Ni8'
_cell_volume   448.95239263
_cell_formula_units_Z   1
loop_
 _symmetry_equiv_pos_site_id
 _symmetry_equiv_pos_as_xyz
  1  'x, y, z'
loop_
 _atom_site_type_symbol
 _atom_site_label
 _atom_site_symmetry_multiplicity
 _atom_site_fract_x
 _atom_site_fract_y
 _atom_site_fract_z
 _atom_site_occupancy
  Hf  Hf0  1  0.114326  0.118930  0.118930  1
  Hf  Hf1  1  0.120067  0.118482  0.641383  1
  Hf  Hf2  1  0.647814  0.118930  0.118930  1
  Hf  Hf3  1  0.120067  0.641383  0.118482  1
  Hf  Hf4  1  0.940211  0.559789  0.559789  1
  Sc  Sc5  1  0.559947  0.940053  0.940053  1
  Sc  Sc6  1  0.563281  0.937041  0.563692  1
  Sc  Sc7  1  0.563281  0.563692  0.937041  1
  Sc  Sc8  1  0.935985  0.563692  0.937041  1
  Sc  Sc9  1  0.935985  0.937041  0.563692  1
  Sc  Sc10  1  0.685771  0.314631  0.686441  1
  Sc  Sc11  1  0.313158  0.686441  0.314631  1
  Sc  Sc12  1  0.313789  0.686211  0.686211  1
  Sc  Sc13  1  0.685771  0.686441  0.314631  1
  Sc  Sc14  1  0.684366  0.315634  0.315634  1
  Sc  Sc15  1  0.313158  0.314631  0.686441  1
  Ni  Ni16  1  0.329229  0.331464  0.331464  1
  Ni  Ni17  1  0.331167  0.326871  0.010795  1
  Ni  Ni18  1  0.007845  0.331464  0.331464  1
  Ni  Ni19  1  0.331167  0.010795  0.326871  1
  Ni  Ni20  1  0.906052  0.903782  0.903782  1
  Ni  Ni21  1  0.905590  0.896142  0.292677  1
  Ni  Ni22  1  0.905590  0.292677  0.896142  1
  Ni  Ni23  1  0.286382  0.903782  0.903782  1
