# generated using pymatgen
data_TbY19(Bi2As)4
_symmetry_space_group_name_H-M   'P 1'
_cell_length_a   8.07862706
_cell_length_b   9.13816241
_cell_length_c   12.19645724
_cell_angle_alpha   89.99130071
_cell_angle_beta   89.99097565
_cell_angle_gamma   90.01139484
_symmetry_Int_Tables_number   1
_chemical_formula_structural   TbY19(Bi2As)4
_chemical_formula_sum   'Tb1 Y19 Bi8 As4'
_cell_volume   900.38885529
_cell_formula_units_Z   1
loop_
 _symmetry_equiv_pos_site_id
 _symmetry_equiv_pos_as_xyz
  1  'x, y, z'
loop_
 _atom_site_type_symbol
 _atom_site_label
 _atom_site_symmetry_multiplicity
 _atom_site_fract_x
 _atom_site_fract_y
 _atom_site_fract_z
 _atom_site_occupancy
  Tb  Tb0  1  0.185244  0.553546  0.935723  1
  Y  Y1  1  0.847693  0.749975  0.789581  1
  Y  Y2  1  0.152586  0.250323  0.210637  1
  Y  Y3  1  0.347378  0.250164  0.710513  1
  Y  Y4  1  0.652667  0.750142  0.289356  1
  Y  Y5  1  0.369472  0.749798  0.705121  1
  Y  Y6  1  0.630741  0.249980  0.294833  1
  Y  Y7  1  0.869466  0.249938  0.794993  1
  Y  Y8  1  0.130651  0.749770  0.205161  1
  Y  Y9  1  0.960847  0.749825  0.501012  1
  Y  Y10  1  0.039118  0.249923  0.498838  1
  Y  Y11  1  0.460801  0.250194  0.998994  1
  Y  Y12  1  0.538730  0.749421  0.001037  1
  Y  Y13  1  0.684921  0.052723  0.564602  1
  Y  Y14  1  0.314827  0.947352  0.435173  1
  Y  Y15  1  0.185121  0.946945  0.935326  1
  Y  Y16  1  0.314957  0.552795  0.435583  1
  Y  Y17  1  0.814575  0.052892  0.064274  1
  Y  Y18  1  0.684885  0.447295  0.564750  1
  Y  Y19  1  0.815694  0.447109  0.064296  1
  Bi  Bi20  1  0.576377  0.490511  0.827341  1
  Bi  Bi21  1  0.423906  0.509409  0.172852  1
  Bi  Bi22  1  0.076108  0.509382  0.672525  1
  Bi  Bi23  1  0.424055  0.990608  0.172596  1
  Bi  Bi24  1  0.923716  0.490578  0.327479  1
  Bi  Bi25  1  0.576015  0.009428  0.827392  1
  Bi  Bi26  1  0.923808  0.009462  0.327338  1
  Bi  Bi27  1  0.076178  0.990515  0.672457  1
  As  As28  1  0.580454  0.750157  0.516852  1
  As  As29  1  0.419367  0.249971  0.482934  1
  As  As30  1  0.080890  0.249269  0.983048  1
  As  As31  1  0.918756  0.750596  0.017383  1
