# generated using pymatgen
data_Th5SnBi2Te
_symmetry_space_group_name_H-M   'P 1'
_cell_length_a   9.71992800
_cell_length_b   9.73324692
_cell_length_c   6.68301700
_cell_angle_alpha   90.00007064
_cell_angle_beta   89.99985263
_cell_angle_gamma   119.95473742
_symmetry_Int_Tables_number   1
_chemical_formula_structural   Th5SnBi2Te
_chemical_formula_sum   'Th10 Sn2 Bi4 Te2'
_cell_volume   547.79982042
_cell_formula_units_Z   2
loop_
 _symmetry_equiv_pos_site_id
 _symmetry_equiv_pos_as_xyz
  1  'x, y, z'
loop_
 _atom_site_type_symbol
 _atom_site_label
 _atom_site_symmetry_multiplicity
 _atom_site_fract_x
 _atom_site_fract_y
 _atom_site_fract_z
 _atom_site_occupancy
  Th  Th0  1  0.999912  0.721362  0.749996  1
  Th  Th1  1  0.278550  0.278638  0.749996  1
  Th  Th2  1  0.331210  0.664207  0.497067  1
  Th  Th3  1  0.667004  0.335793  0.497067  1
  Th  Th4  1  0.722878  0.719042  0.250003  1
  Th  Th5  1  0.722746  0.000000  0.749997  1
  Th  Th6  1  0.003836  0.280958  0.250003  1
  Th  Th7  1  0.275945  0.000000  0.249999  1
  Th  Th8  1  0.331206  0.664208  0.002934  1
  Th  Th9  1  0.666999  0.335792  0.002934  1
  Sn  Sn10  1  0.382303  0.381846  0.250000  1
  Sn  Sn11  1  0.000457  0.618154  0.250000  1
  Bi  Bi12  1  0.617438  0.617640  0.750001  1
  Bi  Bi13  1  0.999798  0.382360  0.750001  1
  Bi  Bi14  1  0.382602  0.000000  0.749998  1
  Bi  Bi15  1  0.618364  0.000000  0.250002  1
  Te  Te16  1  0.999374  0.000000  0.999726  1
  Te  Te17  1  0.999375  0.000000  0.500273  1
