# generated using pymatgen
data_Dy5Si4P8Ru16Pt3
_symmetry_space_group_name_H-M   'P 1'
_cell_length_a   12.64099712
_cell_length_b   12.66167121
_cell_length_c   3.98708500
_cell_angle_alpha   90.00000000
_cell_angle_beta   90.00000000
_cell_angle_gamma   119.93048627
_symmetry_Int_Tables_number   1
_chemical_formula_structural   Dy5Si4P8Ru16Pt3
_chemical_formula_sum   'Dy5 Si4 P8 Ru16 Pt3'
_cell_volume   553.04729573
_cell_formula_units_Z   1
loop_
 _symmetry_equiv_pos_site_id
 _symmetry_equiv_pos_as_xyz
  1  'x, y, z'
loop_
 _atom_site_type_symbol
 _atom_site_label
 _atom_site_symmetry_multiplicity
 _atom_site_fract_x
 _atom_site_fract_y
 _atom_site_fract_z
 _atom_site_occupancy
  Dy  Dy0  1  0.664550  0.331260  0.000000  1
  Dy  Dy1  1  0.335612  0.668371  0.000000  1
  Dy  Dy2  1  0.817591  0.002192  0.500000  1
  Dy  Dy3  1  0.181301  0.182906  0.500000  1
  Dy  Dy4  1  0.999026  0.815856  0.500000  1
  Si  Si5  1  0.625516  0.990402  0.000000  1
  Si  Si6  1  0.366475  0.373897  0.000000  1
  Si  Si7  1  0.688259  0.527971  0.500000  1
  Si  Si8  1  0.834950  0.306840  0.500000  1
  P  P9  1  0.010677  0.636905  0.000000  1
  P  P10  1  0.304769  0.826194  0.500000  1
  P  P11  1  0.524301  0.696154  0.500000  1
  P  P12  1  0.181387  0.998171  0.000000  1
  P  P13  1  0.818853  0.816394  0.000000  1
  P  P14  1  0.002769  0.188342  0.000000  1
  P  P15  1  0.468438  0.161440  0.500000  1
  P  P16  1  0.175568  0.481013  0.500000  1
  Ru  Ru17  1  0.621536  0.799587  0.000000  1
  Ru  Ru18  1  0.181915  0.383988  0.000000  1
  Ru  Ru19  1  0.374413  0.180497  0.000000  1
  Ru  Ru20  1  0.196994  0.817595  0.000000  1
  Ru  Ru21  1  0.817992  0.629302  0.000000  1
  Ru  Ru22  1  0.123958  0.632796  0.500000  1
  Ru  Ru23  1  0.369268  0.495722  0.500000  1
  Ru  Ru24  1  0.505189  0.871155  0.500000  1
  Ru  Ru25  1  0.000265  0.002822  0.000000  1
  Ru  Ru26  1  0.721650  0.723485  0.500000  1
  Ru  Ru27  1  0.005076  0.285082  0.500000  1
  Ru  Ru28  1  0.445432  0.002803  0.000000  1
  Ru  Ru29  1  0.564734  0.550520  0.000000  1
  Ru  Ru30  1  0.989962  0.444167  0.000000  1
  Ru  Ru31  1  0.816190  0.188458  0.000000  1
  Ru  Ru32  1  0.278903  0.996539  0.500000  1
  Pt  Pt33  1  0.865223  0.504452  0.500000  1
  Pt  Pt34  1  0.487936  0.359283  0.500000  1
  Pt  Pt35  1  0.633321  0.127438  0.500000  1
