# generated using pymatgen
data_Mg2V3Ni9As7
_symmetry_space_group_name_H-M   'P 1'
_cell_length_a   9.51147800
_cell_length_b   9.51147750
_cell_length_c   3.66103000
_cell_angle_alpha   90.00000000
_cell_angle_beta   90.00000000
_cell_angle_gamma   120.00000173
_symmetry_Int_Tables_number   1
_chemical_formula_structural   Mg2V3Ni9As7
_chemical_formula_sum   'Mg2 V3 Ni9 As7'
_cell_volume   286.83352126
_cell_formula_units_Z   1
loop_
 _symmetry_equiv_pos_site_id
 _symmetry_equiv_pos_as_xyz
  1  'x, y, z'
loop_
 _atom_site_type_symbol
 _atom_site_label
 _atom_site_symmetry_multiplicity
 _atom_site_fract_x
 _atom_site_fract_y
 _atom_site_fract_z
 _atom_site_occupancy
  Mg  Mg0  1  0.333333  0.666667  0.000000  1
  Mg  Mg1  1  0.666667  0.333333  0.500000  1
  V  V2  1  0.219771  0.119120  0.500000  1
  V  V3  1  0.880880  0.100651  0.500000  1
  V  V4  1  0.899349  0.780229  0.500000  1
  Ni  Ni5  1  0.126449  0.280733  0.000000  1
  Ni  Ni6  1  0.719267  0.845716  0.000000  1
  Ni  Ni7  1  0.154284  0.873551  0.000000  1
  Ni  Ni8  1  0.439979  0.373041  0.000000  1
  Ni  Ni9  1  0.626959  0.066938  0.000000  1
  Ni  Ni10  1  0.933062  0.560021  0.000000  1
  Ni  Ni11  1  0.063340  0.439046  0.500000  1
  Ni  Ni12  1  0.560954  0.624294  0.500000  1
  Ni  Ni13  1  0.375706  0.936660  0.500000  1
  As  As14  1  0.296931  0.412684  0.500000  1
  As  As15  1  0.587316  0.884247  0.500000  1
  As  As16  1  0.115753  0.703069  0.500000  1
  As  As17  1  0.411085  0.117866  0.000000  1
  As  As18  1  0.882134  0.293218  0.000000  1
  As  As19  1  0.706782  0.588915  0.000000  1
  As  As20  1  0.000000  0.000000  0.000000  1
