# generated using pymatgen
data_CsCaAsO4
_symmetry_space_group_name_H-M   'P 1'
_cell_length_a   11.01642536
_cell_length_b   11.01642563
_cell_length_c   11.01642503
_cell_angle_alpha   29.23108579
_cell_angle_beta   29.23108512
_cell_angle_gamma   29.23108530
_symmetry_Int_Tables_number   1
_chemical_formula_structural   CsCaAsO4
_chemical_formula_sum   'Cs2 Ca2 As2 O8'
_cell_volume   282.09300488
_cell_formula_units_Z   2
loop_
 _symmetry_equiv_pos_site_id
 _symmetry_equiv_pos_as_xyz
  1  'x, y, z'
loop_
 _atom_site_type_symbol
 _atom_site_label
 _atom_site_symmetry_multiplicity
 _atom_site_fract_x
 _atom_site_fract_y
 _atom_site_fract_z
 _atom_site_occupancy
  Cs  Cs0  1  0.289459  0.289459  0.289459  1
  Cs  Cs1  1  0.710542  0.710542  0.710542  1
  Ca  Ca2  1  0.162054  0.162054  0.162054  1
  Ca  Ca3  1  0.837946  0.837946  0.837946  1
  As  As4  1  0.440471  0.440471  0.440471  1
  As  As5  1  0.559530  0.559530  0.559530  1
  O  O6  1  0.746163  0.474693  0.154820  1
  O  O7  1  0.525309  0.845180  0.253837  1
  O  O8  1  0.386524  0.386524  0.386524  1
  O  O9  1  0.154821  0.746162  0.474692  1
  O  O10  1  0.845179  0.253838  0.525308  1
  O  O11  1  0.613477  0.613477  0.613477  1
  O  O12  1  0.474691  0.154820  0.746163  1
  O  O13  1  0.253838  0.525308  0.845180  1
