# generated using pymatgen
data_Yb3Al12RuRh3
_symmetry_space_group_name_H-M   'P 1'
_cell_length_a   8.85875400
_cell_length_b   8.85875263
_cell_length_c   9.61077600
_cell_angle_alpha   90.00000000
_cell_angle_beta   90.00000000
_cell_angle_gamma   119.99999766
_symmetry_Int_Tables_number   1
_chemical_formula_structural   Yb3Al12RuRh3
_chemical_formula_sum   'Yb6 Al24 Ru2 Rh6'
_cell_volume   653.18215830
_cell_formula_units_Z   2
loop_
 _symmetry_equiv_pos_site_id
 _symmetry_equiv_pos_as_xyz
  1  'x, y, z'
loop_
 _atom_site_type_symbol
 _atom_site_label
 _atom_site_symmetry_multiplicity
 _atom_site_fract_x
 _atom_site_fract_y
 _atom_site_fract_z
 _atom_site_occupancy
  Yb  Yb0  1  0.193137  0.806863  0.250000  1
  Yb  Yb1  1  0.193137  0.386272  0.250000  1
  Yb  Yb2  1  0.613728  0.806863  0.250000  1
  Yb  Yb3  1  0.806863  0.193137  0.750000  1
  Yb  Yb4  1  0.806863  0.613728  0.750000  1
  Yb  Yb5  1  0.386272  0.193137  0.750000  1
  Al  Al6  1  0.562849  0.437151  0.250000  1
  Al  Al7  1  0.562849  0.125696  0.250000  1
  Al  Al8  1  0.874304  0.437151  0.250000  1
  Al  Al9  1  0.437151  0.562849  0.750000  1
  Al  Al10  1  0.437151  0.874304  0.750000  1
  Al  Al11  1  0.125696  0.562849  0.750000  1
  Al  Al12  1  0.321089  0.160544  0.420424  1
  Al  Al13  1  0.839456  0.160544  0.420424  1
  Al  Al14  1  0.839456  0.678911  0.420424  1
  Al  Al15  1  0.678911  0.839456  0.579576  1
  Al  Al16  1  0.160544  0.839456  0.579576  1
  Al  Al17  1  0.160544  0.321089  0.579576  1
  Al  Al18  1  0.678911  0.839456  0.920424  1
  Al  Al19  1  0.160544  0.839456  0.920424  1
  Al  Al20  1  0.160544  0.321089  0.920424  1
  Al  Al21  1  0.321089  0.160544  0.079576  1
  Al  Al22  1  0.839456  0.160544  0.079576  1
  Al  Al23  1  0.839456  0.678911  0.079576  1
  Al  Al24  1  0.666667  0.333333  0.501072  1
  Al  Al25  1  0.333333  0.666667  0.498928  1
  Al  Al26  1  0.333333  0.666667  0.001072  1
  Al  Al27  1  0.666667  0.333333  0.998928  1
  Al  Al28  1  0.000000  0.000000  0.250000  1
  Al  Al29  1  0.000000  0.000000  0.750000  1
  Ru  Ru30  1  0.000000  0.000000  0.500000  1
  Ru  Ru31  1  0.000000  0.000000  0.000000  1
  Rh  Rh32  1  0.500000  0.500000  0.500000  1
  Rh  Rh33  1  0.500000  0.000000  0.500000  1
  Rh  Rh34  1  0.000000  0.500000  0.500000  1
  Rh  Rh35  1  0.500000  0.500000  0.000000  1
  Rh  Rh36  1  0.500000  0.000000  0.000000  1
  Rh  Rh37  1  0.000000  0.500000  0.000000  1
