# generated using pymatgen
data_CoNi2(MoP)3
_symmetry_space_group_name_H-M   'P 1'
_cell_length_a   5.82968740
_cell_length_b   5.82968725
_cell_length_c   3.79995000
_cell_angle_alpha   90.00000000
_cell_angle_beta   90.00000000
_cell_angle_gamma   120.29561431
_symmetry_Int_Tables_number   1
_chemical_formula_structural   CoNi2(MoP)3
_chemical_formula_sum   'Co1 Ni2 Mo3 P3'
_cell_volume   111.50584574
_cell_formula_units_Z   1
loop_
 _symmetry_equiv_pos_site_id
 _symmetry_equiv_pos_as_xyz
  1  'x, y, z'
loop_
 _atom_site_type_symbol
 _atom_site_label
 _atom_site_symmetry_multiplicity
 _atom_site_fract_x
 _atom_site_fract_y
 _atom_site_fract_z
 _atom_site_occupancy
  Co  Co0  1  0.746752  0.746752  0.000000  1
  Ni  Ni1  1  0.252183  0.998614  0.000000  1
  Ni  Ni2  1  0.998614  0.252183  0.000000  1
  Mo  Mo3  1  0.001454  0.587009  0.500000  1
  Mo  Mo4  1  0.587009  0.001454  0.500000  1
  Mo  Mo5  1  0.413782  0.413782  0.500000  1
  P  P6  1  0.995684  0.995684  0.500000  1
  P  P7  1  0.666856  0.337668  0.000000  1
  P  P8  1  0.337668  0.666856  0.000000  1
