# generated using pymatgen
data_NdGaTeO6
_symmetry_space_group_name_H-M   'P 1'
_cell_length_a   5.20632910
_cell_length_b   5.20633033
_cell_length_c   10.29312200
_cell_angle_alpha   90.00401623
_cell_angle_beta   90.00402398
_cell_angle_gamma   120.00532921
_symmetry_Int_Tables_number   1
_chemical_formula_structural   NdGaTeO6
_chemical_formula_sum   'Nd2 Ga2 Te2 O12'
_cell_volume   241.61158809
_cell_formula_units_Z   2
loop_
 _symmetry_equiv_pos_site_id
 _symmetry_equiv_pos_as_xyz
  1  'x, y, z'
loop_
 _atom_site_type_symbol
 _atom_site_label
 _atom_site_symmetry_multiplicity
 _atom_site_fract_x
 _atom_site_fract_y
 _atom_site_fract_z
 _atom_site_occupancy
  Nd  Nd0  1  0.000001  0.000000  0.500000  1
  Nd  Nd1  1  0.000000  0.000001  0.000000  1
  Ga  Ga2  1  0.666641  0.333359  0.750000  1
  Ga  Ga3  1  0.333360  0.666639  0.250001  1
  Te  Te4  1  0.666677  0.333324  0.250001  1
  Te  Te5  1  0.333325  0.666678  0.750000  1
  O  O6  1  0.625875  0.991548  0.857236  1
  O  O7  1  0.365666  0.374219  0.857249  1
  O  O8  1  0.008558  0.634407  0.857242  1
  O  O9  1  0.374125  0.008452  0.142765  1
  O  O10  1  0.634334  0.625782  0.142751  1
  O  O11  1  0.991441  0.365592  0.142757  1
  O  O12  1  0.365593  0.991440  0.642758  1
  O  O13  1  0.625782  0.634333  0.642752  1
  O  O14  1  0.008451  0.374124  0.642766  1
  O  O15  1  0.634408  0.008559  0.357243  1
  O  O16  1  0.374218  0.365668  0.357249  1
  O  O17  1  0.991548  0.625873  0.357235  1
