# generated using pymatgen
data_Fe3SbCl7O
_symmetry_space_group_name_H-M   'P 1'
_cell_length_a   7.43892893
_cell_length_b   7.74904225
_cell_length_c   7.43895300
_cell_angle_alpha   58.35768679
_cell_angle_beta   56.36993602
_cell_angle_gamma   58.35826067
_symmetry_Int_Tables_number   1
_chemical_formula_structural   Fe3SbCl7O
_chemical_formula_sum   'Fe3 Sb1 Cl7 O1'
_cell_volume   286.91772171
_cell_formula_units_Z   1
loop_
 _symmetry_equiv_pos_site_id
 _symmetry_equiv_pos_as_xyz
  1  'x, y, z'
loop_
 _atom_site_type_symbol
 _atom_site_label
 _atom_site_symmetry_multiplicity
 _atom_site_fract_x
 _atom_site_fract_y
 _atom_site_fract_z
 _atom_site_occupancy
  Fe  Fe0  1  0.478316  0.519928  0.005007  1
  Fe  Fe1  1  0.499003  0.994871  0.499031  1
  Fe  Fe2  1  0.004827  0.519775  0.477917  1
  Sb  Sb3  1  0.465026  0.514283  0.465108  1
  Cl  Cl4  1  0.751969  0.299383  0.751852  1
  Cl  Cl5  1  0.762154  0.775426  0.246187  1
  Cl  Cl6  1  0.260973  0.252400  0.260932  1
  Cl  Cl7  1  0.246200  0.775131  0.762374  1
  Cl  Cl8  1  0.752778  0.238236  0.255226  1
  Cl  Cl9  1  0.739396  0.749901  0.739398  1
  Cl  Cl10  1  0.255335  0.237952  0.752800  1
  O  O11  1  0.284023  0.622713  0.284170  1
