# generated using pymatgen
data_BaNdO9
_symmetry_space_group_name_H-M   'P 1'
_cell_length_a   5.25367533
_cell_length_b   5.25367601
_cell_length_c   5.25367500
_cell_angle_alpha   88.14394761
_cell_angle_beta   88.14394737
_cell_angle_gamma   88.14395003
_symmetry_Int_Tables_number   1
_chemical_formula_structural   BaNdO9
_chemical_formula_sum   'Ba1 Nd1 O9'
_cell_volume   144.78383313
_cell_formula_units_Z   1
loop_
 _symmetry_equiv_pos_site_id
 _symmetry_equiv_pos_as_xyz
  1  'x, y, z'
loop_
 _atom_site_type_symbol
 _atom_site_label
 _atom_site_symmetry_multiplicity
 _atom_site_fract_x
 _atom_site_fract_y
 _atom_site_fract_z
 _atom_site_occupancy
  Ba  Ba0  1  0.991152  0.991152  0.991152  1
  Nd  Nd1  1  0.444923  0.444923  0.444923  1
  O  O2  1  0.564994  0.905857  0.521423  1
  O  O3  1  0.905857  0.521423  0.564994  1
  O  O4  1  0.521423  0.564994  0.905857  1
  O  O5  1  0.277654  0.491593  0.012506  1
  O  O6  1  0.721447  0.503681  0.076481  1
  O  O7  1  0.491593  0.012507  0.277653  1
  O  O8  1  0.012506  0.277654  0.491594  1
  O  O9  1  0.076481  0.721447  0.503681  1
  O  O10  1  0.503681  0.076481  0.721447  1
