# generated using pymatgen
data_HfMn2NbSiP
_symmetry_space_group_name_H-M   'P 1'
_cell_length_a   3.58152500
_cell_length_b   6.38023600
_cell_length_c   7.46143000
_cell_angle_alpha   90.00000000
_cell_angle_beta   90.00000000
_cell_angle_gamma   90.00000000
_symmetry_Int_Tables_number   1
_chemical_formula_structural   HfMn2NbSiP
_chemical_formula_sum   'Hf2 Mn4 Nb2 Si2 P2'
_cell_volume   170.50094845
_cell_formula_units_Z   2
loop_
 _symmetry_equiv_pos_site_id
 _symmetry_equiv_pos_as_xyz
  1  'x, y, z'
loop_
 _atom_site_type_symbol
 _atom_site_label
 _atom_site_symmetry_multiplicity
 _atom_site_fract_x
 _atom_site_fract_y
 _atom_site_fract_z
 _atom_site_occupancy
  Hf  Hf0  1  0.750000  0.030485  0.675208  1
  Hf  Hf1  1  0.750000  0.530485  0.824792  1
  Mn  Mn2  1  0.250000  0.365255  0.564224  1
  Mn  Mn3  1  0.250000  0.865255  0.935776  1
  Mn  Mn4  1  0.750000  0.638832  0.441523  1
  Mn  Mn5  1  0.750000  0.138832  0.058477  1
  Nb  Nb6  1  0.250000  0.965941  0.326367  1
  Nb  Nb7  1  0.250000  0.465941  0.173633  1
  Si  Si8  1  0.750000  0.266868  0.369616  1
  Si  Si9  1  0.750000  0.766868  0.130384  1
  P  P10  1  0.250000  0.732621  0.626068  1
  P  P11  1  0.250000  0.232621  0.873932  1
