# generated using pymatgen
data_Tm7Lu3(Ir2Os)2
_symmetry_space_group_name_H-M   'P 1'
_cell_length_a   10.69346230
_cell_length_b   10.69571400
_cell_length_c   6.32697418
_cell_angle_alpha   90.00000000
_cell_angle_beta   89.97294330
_cell_angle_gamma   90.00000000
_symmetry_Int_Tables_number   1
_chemical_formula_structural   Tm7Lu3(Ir2Os)2
_chemical_formula_sum   'Tm14 Lu6 Ir8 Os4'
_cell_volume   723.64262033
_cell_formula_units_Z   2
loop_
 _symmetry_equiv_pos_site_id
 _symmetry_equiv_pos_as_xyz
  1  'x, y, z'
loop_
 _atom_site_type_symbol
 _atom_site_label
 _atom_site_symmetry_multiplicity
 _atom_site_fract_x
 _atom_site_fract_y
 _atom_site_fract_z
 _atom_site_occupancy
  Tm  Tm0  1  0.706606  0.086020  0.875955  1
  Tm  Tm1  1  0.706606  0.913980  0.375955  1
  Tm  Tm2  1  0.585803  0.793409  0.875906  1
  Tm  Tm3  1  0.585803  0.206591  0.375906  1
  Tm  Tm4  1  0.413671  0.793571  0.375945  1
  Tm  Tm5  1  0.413671  0.206429  0.875945  1
  Tm  Tm6  1  0.206765  0.413855  0.624030  1
  Tm  Tm7  1  0.206765  0.586145  0.124030  1
  Tm  Tm8  1  0.793234  0.413936  0.124086  1
  Tm  Tm9  1  0.793234  0.586064  0.624086  1
  Tm  Tm10  1  0.913975  0.706722  0.124069  1
  Tm  Tm11  1  0.913975  0.293278  0.624069  1
  Tm  Tm12  1  0.086238  0.706856  0.624147  1
  Tm  Tm13  1  0.086238  0.293144  0.124147  1
  Lu  Lu14  1  0.293647  0.085789  0.376334  1
  Lu  Lu15  1  0.293647  0.914211  0.876334  1
  Lu  Lu16  1  0.000297  0.000089  0.499915  1
  Lu  Lu17  1  0.000297  0.999911  0.999915  1
  Lu  Lu18  1  0.499897  0.499970  0.999999  1
  Lu  Lu19  1  0.499897  0.500030  0.499999  1
  Ir  Ir20  1  0.848391  0.151677  0.249971  1
  Ir  Ir21  1  0.848391  0.848323  0.749971  1
  Ir  Ir22  1  0.152134  0.151198  0.749212  1
  Ir  Ir23  1  0.152134  0.848802  0.249212  1
  Ir  Ir24  1  0.651687  0.348312  0.750005  1
  Ir  Ir25  1  0.651687  0.651688  0.250005  1
  Ir  Ir26  1  0.348298  0.347805  0.250297  1
  Ir  Ir27  1  0.348298  0.652195  0.750297  1
  Os  Os28  1  0.499360  0.999994  0.123445  1
  Os  Os29  1  0.499360  0.000006  0.623445  1
  Os  Os30  1  0.999998  0.500032  0.876682  1
  Os  Os31  1  0.999998  0.499968  0.376682  1
