# generated using pymatgen
data_Ho3Er3B14MoOs
_symmetry_space_group_name_H-M   'P 1'
_cell_length_a   8.05587276
_cell_length_b   8.05587330
_cell_length_c   9.35475148
_cell_angle_alpha   90.03599763
_cell_angle_beta   89.96400240
_cell_angle_gamma   154.99117238
_symmetry_Int_Tables_number   1
_chemical_formula_structural   Ho3Er3B14MoOs
_chemical_formula_sum   'Ho3 Er3 B14 Mo1 Os1'
_cell_volume   256.65463638
_cell_formula_units_Z   1
loop_
 _symmetry_equiv_pos_site_id
 _symmetry_equiv_pos_as_xyz
  1  'x, y, z'
loop_
 _atom_site_type_symbol
 _atom_site_label
 _atom_site_symmetry_multiplicity
 _atom_site_fract_x
 _atom_site_fract_y
 _atom_site_fract_z
 _atom_site_occupancy
  Ho  Ho0  1  0.256320  0.743680  0.249908  1
  Ho  Ho1  1  0.745044  0.254956  0.750073  1
  Ho  Ho2  1  0.606007  0.393993  0.438081  1
  Er  Er3  1  0.605869  0.394131  0.061582  1
  Er  Er4  1  0.393161  0.606839  0.941260  1
  Er  Er5  1  0.393267  0.606733  0.558762  1
  B  B6  1  0.979141  0.020859  0.095777  1
  B  B7  1  0.019176  0.980824  0.909244  1
  B  B8  1  0.019095  0.980905  0.591117  1
  B  B9  1  0.979039  0.020961  0.403769  1
  B  B10  1  0.773298  0.226702  0.035093  1
  B  B11  1  0.228290  0.771710  0.968079  1
  B  B12  1  0.228529  0.771471  0.532082  1
  B  B13  1  0.773624  0.226376  0.465050  1
  B  B14  1  0.868143  0.131857  0.150539  1
  B  B15  1  0.134689  0.865311  0.853072  1
  B  B16  1  0.134748  0.865252  0.647425  1
  B  B17  1  0.868172  0.131828  0.349393  1
  B  B18  1  0.043036  0.956964  0.249554  1
  B  B19  1  0.953152  0.046848  0.750108  1
  Mo  Mo20  1  0.552260  0.447740  0.750252  1
  Os  Os21  1  0.445940  0.554060  0.249778  1
