# generated using pymatgen
data_Pm4TaV3O12
_symmetry_space_group_name_H-M   'P 1'
_cell_length_a   5.50622209
_cell_length_b   5.86018059
_cell_length_c   7.92543731
_cell_angle_alpha   90.70803640
_cell_angle_beta   89.66510013
_cell_angle_gamma   90.95202822
_symmetry_Int_Tables_number   1
_chemical_formula_structural   Pm4TaV3O12
_chemical_formula_sum   'Pm4 Ta1 V3 O12'
_cell_volume   255.67480442
_cell_formula_units_Z   1
loop_
 _symmetry_equiv_pos_site_id
 _symmetry_equiv_pos_as_xyz
  1  'x, y, z'
loop_
 _atom_site_type_symbol
 _atom_site_label
 _atom_site_symmetry_multiplicity
 _atom_site_fract_x
 _atom_site_fract_y
 _atom_site_fract_z
 _atom_site_occupancy
  Pm  Pm0  1  0.983525  0.070398  0.264400  1
  Pm  Pm1  1  0.518625  0.561803  0.266021  1
  Pm  Pm2  1  0.481374  0.438197  0.733979  1
  Pm  Pm3  1  0.016474  0.929602  0.735600  1
  Ta  Ta4  1  0.500001  0.000000  0.000000  1
  V  V5  1  0.000000  0.500000  0.000000  1
  V  V6  1  0.500001  0.000000  0.499999  1
  V  V7  1  0.000000  0.500000  0.499999  1
  O  O8  1  0.686100  0.285740  0.066018  1
  O  O9  1  0.791539  0.812685  0.054603  1
  O  O10  1  0.113155  0.457714  0.256239  1
  O  O11  1  0.390528  0.959105  0.239257  1
  O  O12  1  0.695884  0.311874  0.450142  1
  O  O13  1  0.814759  0.802077  0.445024  1
  O  O14  1  0.185241  0.197922  0.554976  1
  O  O15  1  0.304117  0.688126  0.549858  1
  O  O16  1  0.609471  0.040893  0.760743  1
  O  O17  1  0.886846  0.542286  0.743761  1
  O  O18  1  0.208461  0.187314  0.945397  1
  O  O19  1  0.313901  0.714260  0.933982  1
