# generated using pymatgen
data_LaTbYIrO7
_symmetry_space_group_name_H-M   'P 1'
_cell_length_a   6.50879076
_cell_length_b   6.50879039
_cell_length_c   7.54003500
_cell_angle_alpha   90.00000000
_cell_angle_beta   90.00000000
_cell_angle_gamma   109.71688029
_symmetry_Int_Tables_number   1
_chemical_formula_structural   LaTbYIrO7
_chemical_formula_sum   'La2 Tb2 Y2 Ir2 O14'
_cell_volume   300.70099183
_cell_formula_units_Z   2
loop_
 _symmetry_equiv_pos_site_id
 _symmetry_equiv_pos_as_xyz
  1  'x, y, z'
loop_
 _atom_site_type_symbol
 _atom_site_label
 _atom_site_symmetry_multiplicity
 _atom_site_fract_x
 _atom_site_fract_y
 _atom_site_fract_z
 _atom_site_occupancy
  La  La0  1  0.000011  0.999989  0.500000  1
  La  La1  1  0.000011  0.999989  0.000000  1
  Tb  Tb2  1  0.516448  0.064539  0.250000  1
  Tb  Tb3  1  0.935461  0.483552  0.750000  1
  Y  Y4  1  0.483786  0.936594  0.750000  1
  Y  Y5  1  0.063406  0.516214  0.250000  1
  Ir  Ir6  1  0.500010  0.499990  0.500000  1
  Ir  Ir7  1  0.500010  0.499990  0.000000  1
  O  O8  1  0.442281  0.182453  0.534455  1
  O  O9  1  0.817547  0.557719  0.465545  1
  O  O10  1  0.442281  0.182453  0.965545  1
  O  O11  1  0.817547  0.557719  0.034455  1
  O  O12  1  0.557554  0.817465  0.465796  1
  O  O13  1  0.182535  0.442446  0.534204  1
  O  O14  1  0.557554  0.817465  0.034204  1
  O  O15  1  0.182535  0.442446  0.965796  1
  O  O16  1  0.160124  0.878862  0.250000  1
  O  O17  1  0.121138  0.839876  0.750000  1
  O  O18  1  0.839157  0.119409  0.750000  1
  O  O19  1  0.880591  0.160843  0.250000  1
  O  O20  1  0.409779  0.409764  0.250000  1
  O  O21  1  0.590236  0.590221  0.750000  1
