# generated using pymatgen
data_Fe2TcMoP2
_symmetry_space_group_name_H-M   'P 1'
_cell_length_a   3.74091600
_cell_length_b   5.83666000
_cell_length_c   6.59676800
_cell_angle_alpha   90.00000000
_cell_angle_beta   90.00000000
_cell_angle_gamma   90.00000000
_symmetry_Int_Tables_number   1
_chemical_formula_structural   Fe2TcMoP2
_chemical_formula_sum   'Fe4 Tc2 Mo2 P4'
_cell_volume   144.03683259
_cell_formula_units_Z   2
loop_
 _symmetry_equiv_pos_site_id
 _symmetry_equiv_pos_as_xyz
  1  'x, y, z'
loop_
 _atom_site_type_symbol
 _atom_site_label
 _atom_site_symmetry_multiplicity
 _atom_site_fract_x
 _atom_site_fract_y
 _atom_site_fract_z
 _atom_site_occupancy
  Fe  Fe0  1  0.250000  0.860758  0.936364  1
  Fe  Fe1  1  0.250000  0.360758  0.563636  1
  Fe  Fe2  1  0.750000  0.140063  0.066167  1
  Fe  Fe3  1  0.750000  0.640063  0.433833  1
  Tc  Tc4  1  0.250000  0.969476  0.330731  1
  Tc  Tc5  1  0.250000  0.469476  0.169269  1
  Mo  Mo6  1  0.750000  0.028228  0.669514  1
  Mo  Mo7  1  0.750000  0.528228  0.830486  1
  P  P8  1  0.250000  0.232863  0.881733  1
  P  P9  1  0.250000  0.732863  0.618267  1
  P  P10  1  0.750000  0.768610  0.121583  1
  P  P11  1  0.750000  0.268610  0.378417  1
