# generated using pymatgen
data_Li3Sc(NbRh3)2
_symmetry_space_group_name_H-M   'P 1'
_cell_length_a   4.37551100
_cell_length_b   6.14313700
_cell_length_c   13.13544100
_cell_angle_alpha   90.00000000
_cell_angle_beta   90.00016144
_cell_angle_gamma   90.00000000
_symmetry_Int_Tables_number   1
_chemical_formula_structural   Li3Sc(NbRh3)2
_chemical_formula_sum   'Li6 Sc2 Nb4 Rh12'
_cell_volume   353.07229361
_cell_formula_units_Z   2
loop_
 _symmetry_equiv_pos_site_id
 _symmetry_equiv_pos_as_xyz
  1  'x, y, z'
loop_
 _atom_site_type_symbol
 _atom_site_label
 _atom_site_symmetry_multiplicity
 _atom_site_fract_x
 _atom_site_fract_y
 _atom_site_fract_z
 _atom_site_occupancy
  Li  Li0  1  0.000005  0.499999  0.000053  1
  Li  Li1  1  0.499891  0.000000  0.166552  1
  Li  Li2  1  0.999880  0.499999  0.332684  1
  Li  Li3  1  0.499997  0.000000  0.499538  1
  Li  Li4  1  0.000122  0.499999  0.667054  1
  Li  Li5  1  0.500119  0.000000  0.834092  1
  Sc  Sc6  1  0.000007  0.000000  0.001117  1
  Sc  Sc7  1  0.499893  0.499999  0.165594  1
  Nb  Nb8  1  0.999901  0.000000  0.329713  1
  Nb  Nb9  1  0.500001  0.499999  0.500046  1
  Nb  Nb10  1  0.000092  0.000000  0.666595  1
  Nb  Nb11  1  0.500092  0.499999  0.836944  1
  Rh  Rh12  1  0.500012  0.251390  0.996196  1
  Rh  Rh13  1  0.500012  0.748610  0.996196  1
  Rh  Rh14  1  0.999899  0.248701  0.170558  1
  Rh  Rh15  1  0.999899  0.751299  0.170558  1
  Rh  Rh16  1  0.499903  0.246131  0.338116  1
  Rh  Rh17  1  0.499903  0.753869  0.338116  1
  Rh  Rh18  1  0.999997  0.250588  0.500410  1
  Rh  Rh19  1  0.999997  0.749412  0.500410  1
  Rh  Rh20  1  0.500096  0.249377  0.666189  1
  Rh  Rh21  1  0.500096  0.750623  0.666189  1
  Rh  Rh22  1  0.000094  0.253861  0.828537  1
  Rh  Rh23  1  0.000094  0.746139  0.828537  1
