# generated using pymatgen
data_Er2TmLu2Co19P12
_symmetry_space_group_name_H-M   'P 1'
_cell_length_a   11.93145400
_cell_length_b   11.93119966
_cell_length_c   3.64418100
_cell_angle_alpha   90.00000000
_cell_angle_beta   90.00000000
_cell_angle_gamma   120.00071072
_symmetry_Int_Tables_number   1
_chemical_formula_structural   Er2TmLu2Co19P12
_chemical_formula_sum   'Er2 Tm1 Lu2 Co19 P12'
_cell_volume   449.26744046
_cell_formula_units_Z   1
loop_
 _symmetry_equiv_pos_site_id
 _symmetry_equiv_pos_as_xyz
  1  'x, y, z'
loop_
 _atom_site_type_symbol
 _atom_site_label
 _atom_site_symmetry_multiplicity
 _atom_site_fract_x
 _atom_site_fract_y
 _atom_site_fract_z
 _atom_site_occupancy
  Er  Er0  1  0.333319  0.666596  0.000000  1
  Er  Er1  1  0.666724  0.333404  0.000000  1
  Tm  Tm2  1  0.186097  0.000000  0.500000  1
  Lu  Lu3  1  0.999905  0.186113  0.500000  1
  Lu  Lu4  1  0.813792  0.813887  0.500000  1
  Co  Co5  1  0.623818  0.822025  0.000000  1
  Co  Co6  1  0.177873  0.801250  0.000000  1
  Co  Co7  1  0.198201  0.376354  0.000000  1
  Co  Co8  1  0.376623  0.198750  0.000000  1
  Co  Co9  1  0.821847  0.623646  0.000000  1
  Co  Co10  1  0.801794  0.177975  0.000000  1
  Co  Co11  1  0.999903  0.551843  0.000000  1
  Co  Co12  1  0.448060  0.448157  0.000000  1
  Co  Co13  1  0.552190  0.000000  0.000000  1
  Co  Co14  1  0.516929  0.642433  0.500000  1
  Co  Co15  1  0.357815  0.874371  0.500000  1
  Co  Co16  1  0.125547  0.483149  0.500000  1
  Co  Co17  1  0.483445  0.125629  0.500000  1
  Co  Co18  1  0.642399  0.516851  0.500000  1
  Co  Co19  1  0.874497  0.357567  0.500000  1
  Co  Co20  1  0.999749  0.715719  0.500000  1
  Co  Co21  1  0.284030  0.284281  0.500000  1
  Co  Co22  1  0.716016  0.000000  0.500000  1
  Co  Co23  1  0.999575  0.000000  0.000000  1
  P  P24  1  0.000017  0.366157  0.000000  1
  P  P25  1  0.633860  0.633843  0.000000  1
  P  P26  1  0.366679  0.000000  0.000000  1
  P  P27  1  0.519806  0.834548  0.500000  1
  P  P28  1  0.165401  0.685109  0.500000  1
  P  P29  1  0.314901  0.480388  0.500000  1
  P  P30  1  0.480292  0.314891  0.500000  1
  P  P31  1  0.834513  0.519612  0.500000  1
  P  P32  1  0.685258  0.165452  0.500000  1
  P  P33  1  0.999461  0.820559  0.000000  1
  P  P34  1  0.178902  0.179441  0.000000  1
  P  P35  1  0.820767  0.000000  0.000000  1
