# generated using pymatgen
data_Dy5ErTm2(P3Ir4)4
_symmetry_space_group_name_H-M   'P 1'
_cell_length_a   12.95887700
_cell_length_b   12.95929416
_cell_length_c   3.99756000
_cell_angle_alpha   90.00000000
_cell_angle_beta   90.00000000
_cell_angle_gamma   120.00106073
_symmetry_Int_Tables_number   1
_chemical_formula_structural   Dy5ErTm2(P3Ir4)4
_chemical_formula_sum   'Dy5 Er1 Tm2 P12 Ir16'
_cell_volume   581.39286288
_cell_formula_units_Z   1
loop_
 _symmetry_equiv_pos_site_id
 _symmetry_equiv_pos_as_xyz
  1  'x, y, z'
loop_
 _atom_site_type_symbol
 _atom_site_label
 _atom_site_symmetry_multiplicity
 _atom_site_fract_x
 _atom_site_fract_y
 _atom_site_fract_z
 _atom_site_occupancy
  Dy  Dy0  1  0.333354  0.666679  0.500000  1
  Dy  Dy1  1  0.666646  0.333325  0.500000  1
  Dy  Dy2  1  0.000000  0.814160  0.000000  1
  Dy  Dy3  1  0.185874  0.185894  0.000000  1
  Dy  Dy4  1  0.814126  0.000020  0.000000  1
  Er  Er5  1  0.000000  0.445813  0.500000  1
  Tm  Tm6  1  0.554016  0.554021  0.500000  1
  Tm  Tm7  1  0.445984  0.000005  0.500000  1
  P  P8  1  0.000000  0.652227  0.500000  1
  P  P9  1  0.348123  0.348064  0.500000  1
  P  P10  1  0.651877  0.999941  0.500000  1
  P  P11  1  0.516819  0.688446  0.000000  1
  P  P12  1  0.311642  0.828448  0.000000  1
  P  P13  1  0.171871  0.483254  0.000000  1
  P  P14  1  0.483181  0.171627  0.000000  1
  P  P15  1  0.688358  0.516806  0.000000  1
  P  P16  1  0.828129  0.311383  0.000000  1
  P  P17  1  0.000000  0.176504  0.500000  1
  P  P18  1  0.823472  0.823498  0.500000  1
  P  P19  1  0.176528  0.000026  0.500000  1
  Ir  Ir20  1  0.509410  0.866152  0.000000  1
  Ir  Ir21  1  0.134103  0.643624  0.000000  1
  Ir  Ir22  1  0.356889  0.490694  0.000000  1
  Ir  Ir23  1  0.490590  0.356742  0.000000  1
  Ir  Ir24  1  0.865897  0.509521  0.000000  1
  Ir  Ir25  1  0.643111  0.133805  0.000000  1
  Ir  Ir26  1  0.000000  0.274620  0.000000  1
  Ir  Ir27  1  0.725020  0.725034  0.000000  1
  Ir  Ir28  1  0.274980  0.000014  0.000000  1
  Ir  Ir29  1  0.630119  0.808830  0.500000  1
  Ir  Ir30  1  0.191214  0.821412  0.500000  1
  Ir  Ir31  1  0.178992  0.369778  0.500000  1
  Ir  Ir32  1  0.369881  0.178711  0.500000  1
  Ir  Ir33  1  0.808786  0.630198  0.500000  1
  Ir  Ir34  1  0.821008  0.190787  0.500000  1
  Ir  Ir35  1  0.000000  0.999942  0.500000  1
