# generated using pymatgen
data_Ba3LiTc2O9
_symmetry_space_group_name_H-M   'P 1'
_cell_length_a   5.87313000
_cell_length_b   5.87313019
_cell_length_c   14.33720100
_cell_angle_alpha   90.00000000
_cell_angle_beta   90.00000000
_cell_angle_gamma   119.99999893
_symmetry_Int_Tables_number   1
_chemical_formula_structural   Ba3LiTc2O9
_chemical_formula_sum   'Ba6 Li2 Tc4 O18'
_cell_volume   428.28636883
_cell_formula_units_Z   2
loop_
 _symmetry_equiv_pos_site_id
 _symmetry_equiv_pos_as_xyz
  1  'x, y, z'
loop_
 _atom_site_type_symbol
 _atom_site_label
 _atom_site_symmetry_multiplicity
 _atom_site_fract_x
 _atom_site_fract_y
 _atom_site_fract_z
 _atom_site_occupancy
  Ba  Ba0  1  0.666667  0.333333  0.410769  1
  Ba  Ba1  1  0.333333  0.666667  0.589231  1
  Ba  Ba2  1  0.333333  0.666667  0.910769  1
  Ba  Ba3  1  0.000000  0.000000  0.250000  1
  Ba  Ba4  1  0.666667  0.333333  0.089231  1
  Ba  Ba5  1  0.000000  0.000000  0.750000  1
  Li  Li6  1  0.000000  0.000000  0.500000  1
  Li  Li7  1  0.000000  0.000000  0.000000  1
  Tc  Tc8  1  0.333333  0.666667  0.153274  1
  Tc  Tc9  1  0.666667  0.333333  0.846726  1
  Tc  Tc10  1  0.333333  0.666667  0.346726  1
  Tc  Tc11  1  0.666667  0.333333  0.653274  1
  O  O12  1  0.825315  0.650631  0.586268  1
  O  O13  1  0.825315  0.174685  0.913732  1
  O  O14  1  0.650631  0.825315  0.413732  1
  O  O15  1  0.515174  0.484826  0.750000  1
  O  O16  1  0.174685  0.349369  0.413732  1
  O  O17  1  0.349369  0.174685  0.586268  1
  O  O18  1  0.515174  0.030347  0.750000  1
  O  O19  1  0.174685  0.349369  0.086268  1
  O  O20  1  0.484826  0.969653  0.250000  1
  O  O21  1  0.650631  0.825315  0.086268  1
  O  O22  1  0.174685  0.825315  0.413732  1
  O  O23  1  0.349369  0.174685  0.913732  1
  O  O24  1  0.030347  0.515174  0.250000  1
  O  O25  1  0.484826  0.515174  0.250000  1
  O  O26  1  0.969653  0.484826  0.750000  1
  O  O27  1  0.825315  0.650631  0.913732  1
  O  O28  1  0.825315  0.174685  0.586268  1
  O  O29  1  0.174685  0.825315  0.086268  1
