# generated using pymatgen
data_LaInSn5Rh4
_symmetry_space_group_name_H-M   'P 1'
_cell_length_a   6.97016396
_cell_length_b   7.04097027
_cell_length_c   6.98511306
_cell_angle_alpha   119.85659750
_cell_angle_beta   119.51818722
_cell_angle_gamma   90.70827504
_symmetry_Int_Tables_number   1
_chemical_formula_structural   LaInSn5Rh4
_chemical_formula_sum   'La1 In1 Sn5 Rh4'
_cell_volume   243.17384349
_cell_formula_units_Z   1
loop_
 _symmetry_equiv_pos_site_id
 _symmetry_equiv_pos_as_xyz
  1  'x, y, z'
loop_
 _atom_site_type_symbol
 _atom_site_label
 _atom_site_symmetry_multiplicity
 _atom_site_fract_x
 _atom_site_fract_y
 _atom_site_fract_z
 _atom_site_occupancy
  La  La0  1  0.000419  0.999829  0.000000  1
  In  In1  1  0.472791  0.122619  0.000000  1
  Sn  Sn2  1  0.129577  0.466510  0.000000  1
  Sn  Sn3  1  0.871796  0.873906  0.343506  1
  Sn  Sn4  1  0.500442  0.002512  0.501512  1
  Sn  Sn5  1  0.998930  0.501000  0.498488  1
  Sn  Sn6  1  0.528292  0.530402  0.656495  1
  Rh  Rh7  1  0.759491  0.403838  0.000000  1
  Rh  Rh8  1  0.397111  0.752238  0.000000  1
  Rh  Rh9  1  0.602587  0.605586  0.364024  1
  Rh  Rh10  1  0.238563  0.241562  0.635977  1
