# generated using pymatgen
data_Tb5Dy4YSn6
_symmetry_space_group_name_H-M   'P 1'
_cell_length_a   8.99534619
_cell_length_b   8.99854289
_cell_length_c   6.56458300
_cell_angle_alpha   90.00000000
_cell_angle_beta   90.00000000
_cell_angle_gamma   120.01176117
_symmetry_Int_Tables_number   1
_chemical_formula_structural   Tb5Dy4YSn6
_chemical_formula_sum   'Tb5 Dy4 Y1 Sn6'
_cell_volume   460.12556813
_cell_formula_units_Z   1
loop_
 _symmetry_equiv_pos_site_id
 _symmetry_equiv_pos_as_xyz
  1  'x, y, z'
loop_
 _atom_site_type_symbol
 _atom_site_label
 _atom_site_symmetry_multiplicity
 _atom_site_fract_x
 _atom_site_fract_y
 _atom_site_fract_z
 _atom_site_occupancy
  Tb  Tb0  1  0.000000  0.238912  0.250000  1
  Tb  Tb1  1  0.761131  0.761146  0.250000  1
  Tb  Tb2  1  0.761092  0.999990  0.750000  1
  Tb  Tb3  1  0.238908  0.238897  0.750000  1
  Tb  Tb4  1  0.238869  0.000015  0.250000  1
  Dy  Dy5  1  0.333322  0.666659  0.500019  1
  Dy  Dy6  1  0.666678  0.333336  0.999981  1
  Dy  Dy7  1  0.666678  0.333336  0.500019  1
  Dy  Dy8  1  0.333322  0.666659  0.999981  1
  Y  Y9  1  0.000000  0.761086  0.750000  1
  Sn  Sn10  1  0.395234  0.999903  0.750000  1
  Sn  Sn11  1  0.395428  0.395408  0.250000  1
  Sn  Sn12  1  0.000000  0.604530  0.250000  1
  Sn  Sn13  1  0.000000  0.395476  0.750000  1
  Sn  Sn14  1  0.604766  0.604668  0.750000  1
  Sn  Sn15  1  0.604572  0.999979  0.250000  1
