# generated using pymatgen
data_DyNb5FeB4Ru9
_symmetry_space_group_name_H-M   'P 1'
_cell_length_a   9.45610011
_cell_length_b   9.45610076
_cell_length_c   3.05898800
_cell_angle_alpha   90.00000000
_cell_angle_beta   90.00000000
_cell_angle_gamma   90.08195019
_symmetry_Int_Tables_number   1
_chemical_formula_structural   DyNb5FeB4Ru9
_chemical_formula_sum   'Dy1 Nb5 Fe1 B4 Ru9'
_cell_volume   273.52780584
_cell_formula_units_Z   1
loop_
 _symmetry_equiv_pos_site_id
 _symmetry_equiv_pos_as_xyz
  1  'x, y, z'
loop_
 _atom_site_type_symbol
 _atom_site_label
 _atom_site_symmetry_multiplicity
 _atom_site_fract_x
 _atom_site_fract_y
 _atom_site_fract_z
 _atom_site_occupancy
  Dy  Dy0  1  0.822857  0.677143  0.000000  1
  Nb  Nb1  1  0.179488  0.320512  0.000000  1
  Nb  Nb2  1  0.329295  0.831117  0.000000  1
  Nb  Nb3  1  0.668883  0.170705  0.000000  1
  Nb  Nb4  1  0.501153  0.500170  0.000000  1
  Nb  Nb5  1  0.999830  0.998847  0.000000  1
  Fe  Fe6  1  0.496063  0.003937  0.500000  1
  B  B7  1  0.609561  0.890439  0.000000  1
  B  B8  1  0.386698  0.113302  0.000000  1
  B  B9  1  0.124635  0.620137  0.000000  1
  B  B10  1  0.879863  0.375365  0.000000  1
  Ru  Ru11  1  0.555889  0.730226  0.500000  1
  Ru  Ru12  1  0.429986  0.277958  0.500000  1
  Ru  Ru13  1  0.082077  0.782856  0.500000  1
  Ru  Ru14  1  0.931043  0.214931  0.500000  1
  Ru  Ru15  1  0.285069  0.568957  0.500000  1
  Ru  Ru16  1  0.717144  0.417923  0.500000  1
  Ru  Ru17  1  0.222042  0.070014  0.500000  1
  Ru  Ru18  1  0.769774  0.944111  0.500000  1
  Ru  Ru19  1  0.008652  0.491348  0.500000  1
