# generated using pymatgen
data_Li(Tm2B7)2
_symmetry_space_group_name_H-M   'P 1'
_cell_length_a   7.15923200
_cell_length_b   7.15923200
_cell_length_c   7.47664200
_cell_angle_alpha   90.00000000
_cell_angle_beta   90.00000000
_cell_angle_gamma   90.00000000
_symmetry_Int_Tables_number   1
_chemical_formula_structural   Li(Tm2B7)2
_chemical_formula_sum   'Li2 Tm8 B28'
_cell_volume   383.21231621
_cell_formula_units_Z   2
loop_
 _symmetry_equiv_pos_site_id
 _symmetry_equiv_pos_as_xyz
  1  'x, y, z'
loop_
 _atom_site_type_symbol
 _atom_site_label
 _atom_site_symmetry_multiplicity
 _atom_site_fract_x
 _atom_site_fract_y
 _atom_site_fract_z
 _atom_site_occupancy
  Li  Li0  1  0.000000  0.000000  0.000000  1
  Li  Li1  1  0.500000  0.500000  0.500000  1
  Tm  Tm2  1  0.196591  0.326818  0.000000  1
  Tm  Tm3  1  0.673182  0.196591  0.000000  1
  Tm  Tm4  1  0.326818  0.803409  0.000000  1
  Tm  Tm5  1  0.696591  0.173182  0.500000  1
  Tm  Tm6  1  0.303409  0.826818  0.500000  1
  Tm  Tm7  1  0.803409  0.673182  0.000000  1
  Tm  Tm8  1  0.826818  0.696591  0.500000  1
  Tm  Tm9  1  0.173182  0.303409  0.500000  1
  B  B10  1  0.175469  0.038298  0.234746  1
  B  B11  1  0.961702  0.175469  0.234746  1
  B  B12  1  0.038298  0.824531  0.234746  1
  B  B13  1  0.675469  0.461702  0.265254  1
  B  B14  1  0.324531  0.538298  0.265254  1
  B  B15  1  0.824531  0.961702  0.234746  1
  B  B16  1  0.538298  0.675469  0.265254  1
  B  B17  1  0.461702  0.324531  0.265254  1
  B  B18  1  0.824531  0.961702  0.765254  1
  B  B19  1  0.038298  0.824531  0.765254  1
  B  B20  1  0.961702  0.175469  0.765254  1
  B  B21  1  0.324531  0.538298  0.734746  1
  B  B22  1  0.675469  0.461702  0.734746  1
  B  B23  1  0.175469  0.038298  0.765254  1
  B  B24  1  0.461702  0.324531  0.734746  1
  B  B25  1  0.538298  0.675469  0.734746  1
  B  B26  1  0.088373  0.588373  0.250000  1
  B  B27  1  0.411627  0.088373  0.250000  1
  B  B28  1  0.588373  0.911627  0.250000  1
  B  B29  1  0.911627  0.411627  0.250000  1
  B  B30  1  0.911627  0.411627  0.750000  1
  B  B31  1  0.588373  0.911627  0.750000  1
  B  B32  1  0.411627  0.088373  0.750000  1
  B  B33  1  0.088373  0.588373  0.750000  1
  B  B34  1  0.000000  0.000000  0.389931  1
  B  B35  1  0.500000  0.500000  0.110069  1
  B  B36  1  0.000000  0.000000  0.610069  1
  B  B37  1  0.500000  0.500000  0.889931  1
