# generated using pymatgen
data_Pm4Er(MoO4)3
_symmetry_space_group_name_H-M   'P 1'
_cell_length_a   5.64434455
_cell_length_b   5.95170251
_cell_length_c   8.19647117
_cell_angle_alpha   90.54007953
_cell_angle_beta   89.71872921
_cell_angle_gamma   89.93295776
_symmetry_Int_Tables_number   1
_chemical_formula_structural   Pm4Er(MoO4)3
_chemical_formula_sum   'Pm4 Er1 Mo3 O12'
_cell_volume   275.33206936
_cell_formula_units_Z   1
loop_
 _symmetry_equiv_pos_site_id
 _symmetry_equiv_pos_as_xyz
  1  'x, y, z'
loop_
 _atom_site_type_symbol
 _atom_site_label
 _atom_site_symmetry_multiplicity
 _atom_site_fract_x
 _atom_site_fract_y
 _atom_site_fract_z
 _atom_site_occupancy
  Pm  Pm0  1  0.981689  0.062961  0.255137  1
  Pm  Pm1  1  0.522060  0.560385  0.255750  1
  Pm  Pm2  1  0.477940  0.439615  0.744250  1
  Pm  Pm3  1  0.018310  0.937039  0.744863  1
  Er  Er4  1  0.500000  0.000000  0.000000  1
  Mo  Mo5  1  0.000000  0.500001  0.000000  1
  Mo  Mo6  1  0.500000  0.000000  0.500000  1
  Mo  Mo7  1  0.000000  0.500001  0.500000  1
  O  O8  1  0.694660  0.308265  0.071677  1
  O  O9  1  0.815006  0.804224  0.069824  1
  O  O10  1  0.129637  0.442990  0.250342  1
  O  O11  1  0.371431  0.942367  0.255056  1
  O  O12  1  0.690195  0.305094  0.436743  1
  O  O13  1  0.810930  0.804449  0.436789  1
  O  O14  1  0.189071  0.195551  0.563212  1
  O  O15  1  0.309806  0.694906  0.563258  1
  O  O16  1  0.628569  0.057633  0.744944  1
  O  O17  1  0.870364  0.557010  0.749658  1
  O  O18  1  0.184995  0.195776  0.930175  1
  O  O19  1  0.305341  0.691735  0.928322  1
