# generated using pymatgen
data_Hf18ZnRe2Mo6Se
_symmetry_space_group_name_H-M   'P 1'
_cell_length_a   8.68752300
_cell_length_b   8.68752258
_cell_length_c   8.65561500
_cell_angle_alpha   90.00000000
_cell_angle_beta   90.00000000
_cell_angle_gamma   119.99999016
_symmetry_Int_Tables_number   1
_chemical_formula_structural   Hf18ZnRe2Mo6Se
_chemical_formula_sum   'Hf18 Zn1 Re2 Mo6 Se1'
_cell_volume   565.74473323
_cell_formula_units_Z   1
loop_
 _symmetry_equiv_pos_site_id
 _symmetry_equiv_pos_as_xyz
  1  'x, y, z'
loop_
 _atom_site_type_symbol
 _atom_site_label
 _atom_site_symmetry_multiplicity
 _atom_site_fract_x
 _atom_site_fract_y
 _atom_site_fract_z
 _atom_site_occupancy
  Hf  Hf0  1  0.540641  0.081282  0.250000  1
  Hf  Hf1  1  0.457658  0.915317  0.750000  1
  Hf  Hf2  1  0.918718  0.459359  0.250000  1
  Hf  Hf3  1  0.084683  0.542342  0.750000  1
  Hf  Hf4  1  0.540641  0.459359  0.250000  1
  Hf  Hf5  1  0.457658  0.542342  0.750000  1
  Hf  Hf6  1  0.194950  0.389898  0.048476  1
  Hf  Hf7  1  0.806330  0.612661  0.954086  1
  Hf  Hf8  1  0.610102  0.805050  0.048476  1
  Hf  Hf9  1  0.806330  0.612661  0.545914  1
  Hf  Hf10  1  0.387339  0.193670  0.954086  1
  Hf  Hf11  1  0.194950  0.389898  0.451524  1
  Hf  Hf12  1  0.194950  0.805050  0.048476  1
  Hf  Hf13  1  0.387339  0.193670  0.545914  1
  Hf  Hf14  1  0.806330  0.193670  0.954086  1
  Hf  Hf15  1  0.610102  0.805050  0.451524  1
  Hf  Hf16  1  0.806330  0.193670  0.545914  1
  Hf  Hf17  1  0.194950  0.805050  0.451524  1
  Zn  Zn18  1  0.333333  0.666667  0.250000  1
  Re  Re19  1  0.000000  0.000000  0.000731  1
  Re  Re20  1  0.000000  0.000000  0.499269  1
  Mo  Mo21  1  0.889712  0.779424  0.250000  1
  Mo  Mo22  1  0.109745  0.219489  0.750000  1
  Mo  Mo23  1  0.220576  0.110288  0.250000  1
  Mo  Mo24  1  0.780511  0.890255  0.750000  1
  Mo  Mo25  1  0.889712  0.110288  0.250000  1
  Mo  Mo26  1  0.109745  0.890255  0.750000  1
  Se  Se27  1  0.666667  0.333333  0.750000  1
