# generated using pymatgen
data_TbNdCrGeO8
_symmetry_space_group_name_H-M   'P 1'
_cell_length_a   6.08469901
_cell_length_b   6.08469853
_cell_length_c   6.08469787
_cell_angle_alpha   106.08038341
_cell_angle_beta   106.08039071
_cell_angle_gamma   116.48917143
_symmetry_Int_Tables_number   1
_chemical_formula_structural   TbNdCrGeO8
_chemical_formula_sum   'Tb1 Nd1 Cr1 Ge1 O8'
_cell_volume   171.44415467
_cell_formula_units_Z   1
loop_
 _symmetry_equiv_pos_site_id
 _symmetry_equiv_pos_as_xyz
  1  'x, y, z'
loop_
 _atom_site_type_symbol
 _atom_site_label
 _atom_site_symmetry_multiplicity
 _atom_site_fract_x
 _atom_site_fract_y
 _atom_site_fract_z
 _atom_site_occupancy
  Tb  Tb0  1  0.000000  0.000000  0.000000  1
  Nd  Nd1  1  0.250000  0.750000  0.500000  1
  Cr  Cr2  1  0.500000  0.500000  0.000000  1
  Ge  Ge3  1  0.750000  0.250000  0.500000  1
  O  O4  1  0.336672  0.512558  0.175886  1
  O  O5  1  0.382620  0.070550  0.312068  1
  O  O6  1  0.758482  0.070550  0.687932  1
  O  O7  1  0.336672  0.160786  0.824114  1
  O  O8  1  0.839214  0.663328  0.175886  1
  O  O9  1  0.929450  0.241518  0.312068  1
  O  O10  1  0.929450  0.617380  0.687932  1
  O  O11  1  0.487442  0.663328  0.824114  1
