# generated using pymatgen
data_YTm7(ZnCo)2
_symmetry_space_group_name_H-M   'P 1'
_cell_length_a   9.24663365
_cell_length_b   9.24663410
_cell_length_c   9.23217900
_cell_angle_alpha   60.05169592
_cell_angle_beta   60.05169433
_cell_angle_gamma   59.89660216
_symmetry_Int_Tables_number   1
_chemical_formula_structural   YTm7(ZnCo)2
_chemical_formula_sum   'Y2 Tm14 Zn4 Co4'
_cell_volume   558.15445825
_cell_formula_units_Z   2
loop_
 _symmetry_equiv_pos_site_id
 _symmetry_equiv_pos_as_xyz
  1  'x, y, z'
loop_
 _atom_site_type_symbol
 _atom_site_label
 _atom_site_symmetry_multiplicity
 _atom_site_fract_x
 _atom_site_fract_y
 _atom_site_fract_z
 _atom_site_occupancy
  Y  Y0  1  0.813676  0.813676  0.186324  1
  Y  Y1  1  0.186324  0.186324  0.813676  1
  Tm  Tm2  1  0.600588  0.600588  0.599973  1
  Tm  Tm3  1  0.600588  0.600588  0.198849  1
  Tm  Tm4  1  0.599973  0.198849  0.600588  1
  Tm  Tm5  1  0.198849  0.599973  0.600588  1
  Tm  Tm6  1  0.059989  0.440011  0.440011  1
  Tm  Tm7  1  0.440011  0.059989  0.059989  1
  Tm  Tm8  1  0.440011  0.059989  0.440011  1
  Tm  Tm9  1  0.059989  0.440011  0.059989  1
  Tm  Tm10  1  0.440112  0.440112  0.059888  1
  Tm  Tm11  1  0.059888  0.059888  0.440112  1
  Tm  Tm12  1  0.189281  0.810719  0.810719  1
  Tm  Tm13  1  0.810719  0.189281  0.189281  1
  Tm  Tm14  1  0.810719  0.189281  0.810719  1
  Tm  Tm15  1  0.189281  0.810719  0.189281  1
  Zn  Zn16  1  0.827789  0.827789  0.826610  1
  Zn  Zn17  1  0.827789  0.827789  0.517812  1
  Zn  Zn18  1  0.826610  0.517812  0.827789  1
  Zn  Zn19  1  0.517812  0.826610  0.827789  1
  Co  Co20  1  0.392786  0.392786  0.390515  1
  Co  Co21  1  0.392786  0.392786  0.823913  1
  Co  Co22  1  0.390515  0.823913  0.392786  1
  Co  Co23  1  0.823913  0.390515  0.392786  1
