# generated using pymatgen
data_Zr3ScCo2Si6Ir5
_symmetry_space_group_name_H-M   'P 1'
_cell_length_a   6.92454056
_cell_length_b   6.92613406
_cell_length_c   6.92613539
_cell_angle_alpha   109.24815283
_cell_angle_beta   109.48780102
_cell_angle_gamma   109.48779906
_symmetry_Int_Tables_number   1
_chemical_formula_structural   Zr3ScCo2Si6Ir5
_chemical_formula_sum   'Zr3 Sc1 Co2 Si6 Ir5'
_cell_volume   256.30834946
_cell_formula_units_Z   1
loop_
 _symmetry_equiv_pos_site_id
 _symmetry_equiv_pos_as_xyz
  1  'x, y, z'
loop_
 _atom_site_type_symbol
 _atom_site_label
 _atom_site_symmetry_multiplicity
 _atom_site_fract_x
 _atom_site_fract_y
 _atom_site_fract_z
 _atom_site_occupancy
  Zr  Zr0  1  0.998387  0.998908  0.499037  1
  Zr  Zr1  1  0.998387  0.499037  0.998908  1
  Zr  Zr2  1  0.503086  0.005509  0.005509  1
  Sc  Sc3  1  0.501524  0.498372  0.498372  1
  Co  Co4  1  0.748188  0.250116  0.496520  1
  Co  Co5  1  0.748188  0.496520  0.250116  1
  Si  Si6  1  0.682997  0.679241  0.001408  1
  Si  Si7  1  0.327669  0.008077  0.322422  1
  Si  Si8  1  0.990992  0.321050  0.321050  1
  Si  Si9  1  0.327669  0.322422  0.008077  1
  Si  Si10  1  0.682997  0.001408  0.679241  1
  Si  Si11  1  0.985995  0.667204  0.667204  1
  Ir  Ir12  1  0.507316  0.253801  0.753125  1
  Ir  Ir13  1  0.244661  0.496398  0.748893  1
  Ir  Ir14  1  0.244661  0.748893  0.496398  1
  Ir  Ir15  1  0.507316  0.753125  0.253801  1
  Ir  Ir16  1  0.999964  0.999919  0.999919  1
