# generated using pymatgen
data_Th6Cu3Sb8Ir3
_symmetry_space_group_name_H-M   'P 1'
_cell_length_a   8.51968104
_cell_length_b   8.51968117
_cell_length_c   8.52134834
_cell_angle_alpha   108.86257779
_cell_angle_beta   110.07983643
_cell_angle_gamma   109.46562155
_symmetry_Int_Tables_number   1
_chemical_formula_structural   Th6Cu3Sb8Ir3
_chemical_formula_sum   'Th6 Cu3 Sb8 Ir3'
_cell_volume   476.13104344
_cell_formula_units_Z   1
loop_
 _symmetry_equiv_pos_site_id
 _symmetry_equiv_pos_as_xyz
  1  'x, y, z'
loop_
 _atom_site_type_symbol
 _atom_site_label
 _atom_site_symmetry_multiplicity
 _atom_site_fract_x
 _atom_site_fract_y
 _atom_site_fract_z
 _atom_site_occupancy
  Th  Th0  1  0.375990  0.255917  0.629357  1
  Th  Th1  1  0.743383  0.869837  0.117013  1
  Th  Th2  1  0.252824  0.626370  0.382987  1
  Th  Th3  1  0.623226  0.373226  0.250000  1
  Th  Th4  1  0.878054  0.128054  0.750000  1
  Th  Th5  1  0.126560  0.746633  0.870643  1
  Cu  Cu6  1  0.125578  0.875578  0.250000  1
  Cu  Cu7  1  0.625105  0.748944  0.374941  1
  Cu  Cu8  1  0.874002  0.250164  0.125059  1
  Sb  Sb9  1  0.995122  0.327608  0.495076  1
  Sb  Sb10  1  0.837778  0.503435  0.002672  1
  Sb  Sb11  1  0.503326  0.001912  0.833199  1
  Sb  Sb12  1  0.668714  0.670128  0.666801  1
  Sb  Sb13  1  0.161724  0.165173  0.165176  1
  Sb  Sb14  1  0.332532  0.500046  0.004924  1
  Sb  Sb15  1  0.499997  0.996547  0.334824  1
  Sb  Sb16  1  0.000763  0.835106  0.497328  1
  Ir  Ir17  1  0.251290  0.125745  0.876752  1
  Ir  Ir18  1  0.748993  0.374538  0.623248  1
  Ir  Ir19  1  0.375039  0.625039  0.750000  1
