# generated using pymatgen
data_Pr2Eu2P7Ir8
_symmetry_space_group_name_H-M   'P 1'
_cell_length_a   4.00265800
_cell_length_b   12.83319657
_cell_length_c   13.24618033
_cell_angle_alpha   81.04116949
_cell_angle_beta   90.00000000
_cell_angle_gamma   90.00000000
_symmetry_Int_Tables_number   1
_chemical_formula_structural   Pr2Eu2P7Ir8
_chemical_formula_sum   'Pr4 Eu4 P14 Ir16'
_cell_volume   672.11444822
_cell_formula_units_Z   2
loop_
 _symmetry_equiv_pos_site_id
 _symmetry_equiv_pos_as_xyz
  1  'x, y, z'
loop_
 _atom_site_type_symbol
 _atom_site_label
 _atom_site_symmetry_multiplicity
 _atom_site_fract_x
 _atom_site_fract_y
 _atom_site_fract_z
 _atom_site_occupancy
  Pr  Pr0  1  0.750000  0.719186  0.895472  1
  Pr  Pr1  1  0.250000  0.104911  0.789433  1
  Pr  Pr2  1  0.750000  0.895089  0.210567  1
  Pr  Pr3  1  0.250000  0.280814  0.104528  1
  Eu  Eu4  1  0.750000  0.788844  0.563311  1
  Eu  Eu5  1  0.250000  0.211156  0.436689  1
  Eu  Eu6  1  0.750000  0.484689  0.708320  1
  Eu  Eu7  1  0.250000  0.515311  0.291680  1
  P  P8  1  0.250000  0.909270  0.409911  1
  P  P9  1  0.750000  0.473616  0.127965  1
  P  P10  1  0.250000  0.526384  0.872035  1
  P  P11  1  0.750000  0.090730  0.590089  1
  P  P12  1  0.250000  0.742883  0.082521  1
  P  P13  1  0.750000  0.257117  0.917479  1
  P  P14  1  0.750000  0.155421  0.281989  1
  P  P15  1  0.250000  0.844579  0.718011  1
  P  P16  1  0.250000  0.053366  0.099030  1
  P  P17  1  0.750000  0.946634  0.900970  1
  P  P18  1  0.250000  0.314516  0.687549  1
  P  P19  1  0.750000  0.685484  0.312451  1
  P  P20  1  0.250000  0.609069  0.561829  1
  P  P21  1  0.750000  0.390931  0.438171  1
  Ir  Ir22  1  0.250000  0.988816  0.575951  1
  Ir  Ir23  1  0.750000  0.011184  0.424049  1
  Ir  Ir24  1  0.250000  0.662160  0.729677  1
  Ir  Ir25  1  0.750000  0.337840  0.270323  1
  Ir  Ir26  1  0.250000  0.551422  0.048328  1
  Ir  Ir27  1  0.750000  0.448578  0.951672  1
  Ir  Ir28  1  0.250000  0.061778  0.272674  1
  Ir  Ir29  1  0.750000  0.938222  0.727326  1
  Ir  Ir30  1  0.250000  0.424077  0.527264  1
  Ir  Ir31  1  0.750000  0.575923  0.472736  1
  Ir  Ir32  1  0.250000  0.916401  0.997810  1
  Ir  Ir33  1  0.750000  0.083599  0.002190  1
  Ir  Ir34  1  0.250000  0.728974  0.394082  1
  Ir  Ir35  1  0.750000  0.271026  0.605918  1
  Ir  Ir36  1  0.250000  0.340697  0.858810  1
  Ir  Ir37  1  0.750000  0.659303  0.141190  1
