# generated using pymatgen
data_Li2NdLuSi3
_symmetry_space_group_name_H-M   'P 1'
_cell_length_a   9.24774902
_cell_length_b   9.24774842
_cell_length_c   6.78052500
_cell_angle_alpha   90.00000000
_cell_angle_beta   90.00000000
_cell_angle_gamma   153.21519361
_symmetry_Int_Tables_number   1
_chemical_formula_structural   Li2NdLuSi3
_chemical_formula_sum   'Li4 Nd2 Lu2 Si6'
_cell_volume   261.31593941
_cell_formula_units_Z   2
loop_
 _symmetry_equiv_pos_site_id
 _symmetry_equiv_pos_as_xyz
  1  'x, y, z'
loop_
 _atom_site_type_symbol
 _atom_site_label
 _atom_site_symmetry_multiplicity
 _atom_site_fract_x
 _atom_site_fract_y
 _atom_site_fract_z
 _atom_site_occupancy
  Li  Li0  1  0.190650  0.809350  0.059608  1
  Li  Li1  1  0.190650  0.809350  0.440392  1
  Li  Li2  1  0.809350  0.190650  0.940392  1
  Li  Li3  1  0.809350  0.190650  0.559608  1
  Nd  Nd4  1  0.553997  0.446003  0.250000  1
  Nd  Nd5  1  0.446003  0.553997  0.750000  1
  Lu  Lu6  1  0.343814  0.656186  0.250000  1
  Lu  Lu7  1  0.656186  0.343814  0.750000  1
  Si  Si8  1  0.724302  0.275698  0.250000  1
  Si  Si9  1  0.275698  0.724302  0.750000  1
  Si  Si10  1  0.060206  0.939794  0.925024  1
  Si  Si11  1  0.939794  0.060206  0.074976  1
  Si  Si12  1  0.939794  0.060206  0.425024  1
  Si  Si13  1  0.060206  0.939794  0.574976  1
