# generated using pymatgen
data_Tb4TcOs6Ru
_symmetry_space_group_name_H-M   'P 1'
_cell_length_a   5.28011612
_cell_length_b   5.36047797
_cell_length_c   9.03310652
_cell_angle_alpha   90.00000250
_cell_angle_beta   89.96707317
_cell_angle_gamma   120.50475507
_symmetry_Int_Tables_number   1
_chemical_formula_structural   Tb4TcOs6Ru
_chemical_formula_sum   'Tb4 Tc1 Os6 Ru1'
_cell_volume   220.28411408
_cell_formula_units_Z   1
loop_
 _symmetry_equiv_pos_site_id
 _symmetry_equiv_pos_as_xyz
  1  'x, y, z'
loop_
 _atom_site_type_symbol
 _atom_site_label
 _atom_site_symmetry_multiplicity
 _atom_site_fract_x
 _atom_site_fract_y
 _atom_site_fract_z
 _atom_site_occupancy
  Tb  Tb0  1  0.328332  0.664167  0.434643  1
  Tb  Tb1  1  0.658778  0.329388  0.564350  1
  Tb  Tb2  1  0.659704  0.329852  0.935530  1
  Tb  Tb3  1  0.329559  0.664781  0.065825  1
  Tc  Tc4  1  0.679495  0.839747  0.749094  1
  Os  Os5  1  0.979689  0.989844  0.499950  1
  Os  Os6  1  0.836952  0.169036  0.250558  1
  Os  Os7  1  0.836952  0.667916  0.250558  1
  Os  Os8  1  0.355744  0.177871  0.250562  1
  Os  Os9  1  0.177401  0.826364  0.749503  1
  Os  Os10  1  0.177401  0.351037  0.749503  1
  Ru  Ru11  1  0.979994  0.989997  0.999923  1
