# generated using pymatgen
data_Hf6NbCo17P12
_symmetry_space_group_name_H-M   'P 1'
_cell_length_a   3.60377300
_cell_length_b   10.31517400
_cell_length_c   11.95050700
_cell_angle_alpha   90.00000000
_cell_angle_beta   90.00000000
_cell_angle_gamma   90.00000000
_symmetry_Int_Tables_number   1
_chemical_formula_structural   Hf6NbCo17P12
_chemical_formula_sum   'Hf6 Nb1 Co17 P12'
_cell_volume   444.24271633
_cell_formula_units_Z   1
loop_
 _symmetry_equiv_pos_site_id
 _symmetry_equiv_pos_as_xyz
  1  'x, y, z'
loop_
 _atom_site_type_symbol
 _atom_site_label
 _atom_site_symmetry_multiplicity
 _atom_site_fract_x
 _atom_site_fract_y
 _atom_site_fract_z
 _atom_site_occupancy
  Hf  Hf0  1  0.750000  0.250000  0.467148  1
  Hf  Hf1  1  0.250000  0.750000  0.526412  1
  Hf  Hf2  1  0.250000  0.927609  0.790945  1
  Hf  Hf3  1  0.250000  0.572391  0.790945  1
  Hf  Hf4  1  0.750000  0.071632  0.206580  1
  Hf  Hf5  1  0.750000  0.428368  0.206580  1
  Nb  Nb6  1  0.250000  0.250000  0.840191  1
  Co  Co7  1  0.750000  0.750000  0.167171  1
  Co  Co8  1  0.250000  0.250000  0.297754  1
  Co  Co9  1  0.750000  0.750000  0.703240  1
  Co  Co10  1  0.750000  0.250000  0.014304  1
  Co  Co11  1  0.250000  0.750000  0.985243  1
  Co  Co12  1  0.250000  0.420411  0.012176  1
  Co  Co13  1  0.250000  0.079589  0.012176  1
  Co  Co14  1  0.750000  0.585711  0.996117  1
  Co  Co15  1  0.750000  0.914289  0.996117  1
  Co  Co16  1  0.250000  0.451900  0.564744  1
  Co  Co17  1  0.250000  0.048100  0.564744  1
  Co  Co18  1  0.750000  0.550615  0.432980  1
  Co  Co19  1  0.750000  0.949385  0.432980  1
  Co  Co20  1  0.250000  0.874673  0.293849  1
  Co  Co21  1  0.250000  0.625327  0.293849  1
  Co  Co22  1  0.750000  0.123387  0.703779  1
  Co  Co23  1  0.750000  0.376613  0.703779  1
  P  P24  1  0.250000  0.250000  0.122357  1
  P  P25  1  0.750000  0.750000  0.878928  1
  P  P26  1  0.250000  0.250000  0.634883  1
  P  P27  1  0.750000  0.750000  0.353647  1
  P  P28  1  0.250000  0.433583  0.380972  1
  P  P29  1  0.250000  0.066417  0.380972  1
  P  P30  1  0.750000  0.569080  0.616342  1
  P  P31  1  0.750000  0.930920  0.616342  1
  P  P32  1  0.250000  0.901098  0.113940  1
  P  P33  1  0.250000  0.598902  0.113940  1
  P  P34  1  0.750000  0.084323  0.891936  1
  P  P35  1  0.750000  0.415677  0.891936  1
