# generated using pymatgen
data_Gd2PtN2
_symmetry_space_group_name_H-M   'P 1'
_cell_length_a   3.51857399
_cell_length_b   3.51857336
_cell_length_c   6.82010471
_cell_angle_alpha   104.95253836
_cell_angle_beta   104.95253330
_cell_angle_gamma   89.98598278
_symmetry_Int_Tables_number   1
_chemical_formula_structural   Gd2PtN2
_chemical_formula_sum   'Gd2 Pt1 N2'
_cell_volume   78.61494560
_cell_formula_units_Z   1
loop_
 _symmetry_equiv_pos_site_id
 _symmetry_equiv_pos_as_xyz
  1  'x, y, z'
loop_
 _atom_site_type_symbol
 _atom_site_label
 _atom_site_symmetry_multiplicity
 _atom_site_fract_x
 _atom_site_fract_y
 _atom_site_fract_z
 _atom_site_occupancy
  Gd  Gd0  1  0.153413  0.653413  0.806828  1
  Gd  Gd1  1  0.846587  0.346587  0.193172  1
  Pt  Pt2  1  0.500000  0.000000  0.500000  1
  N  N3  1  0.664951  0.164951  0.829899  1
  N  N4  1  0.335049  0.835049  0.170101  1
