# generated using pymatgen
data_Zr6Co16Si6As
_symmetry_space_group_name_H-M   'P 1'
_cell_length_a   8.08289713
_cell_length_b   8.08289733
_cell_length_c   8.08289700
_cell_angle_alpha   59.99999727
_cell_angle_beta   59.99999644
_cell_angle_gamma   60.00000082
_symmetry_Int_Tables_number   1
_chemical_formula_structural   Zr6Co16Si6As
_chemical_formula_sum   'Zr6 Co16 Si6 As1'
_cell_volume   373.41017088
_cell_formula_units_Z   1
loop_
 _symmetry_equiv_pos_site_id
 _symmetry_equiv_pos_as_xyz
  1  'x, y, z'
loop_
 _atom_site_type_symbol
 _atom_site_label
 _atom_site_symmetry_multiplicity
 _atom_site_fract_x
 _atom_site_fract_y
 _atom_site_fract_z
 _atom_site_occupancy
  Zr  Zr0  1  0.705828  0.294172  0.294172  1
  Zr  Zr1  1  0.294172  0.294172  0.705828  1
  Zr  Zr2  1  0.294172  0.705828  0.705828  1
  Zr  Zr3  1  0.705828  0.705828  0.294172  1
  Zr  Zr4  1  0.294172  0.705828  0.294172  1
  Zr  Zr5  1  0.705828  0.294172  0.705828  1
  Co  Co6  1  0.120440  0.120440  0.638681  1
  Co  Co7  1  0.672710  0.981868  0.672710  1
  Co  Co8  1  0.361319  0.879560  0.879560  1
  Co  Co9  1  0.018132  0.327290  0.327290  1
  Co  Co10  1  0.981868  0.672710  0.672710  1
  Co  Co11  1  0.327290  0.327290  0.018132  1
  Co  Co12  1  0.672710  0.672710  0.981868  1
  Co  Co13  1  0.638681  0.120440  0.120440  1
  Co  Co14  1  0.672710  0.672710  0.672710  1
  Co  Co15  1  0.879560  0.879560  0.361319  1
  Co  Co16  1  0.120440  0.120440  0.120440  1
  Co  Co17  1  0.879560  0.361319  0.879560  1
  Co  Co18  1  0.879560  0.879560  0.879560  1
  Co  Co19  1  0.327290  0.327290  0.327290  1
  Co  Co20  1  0.120440  0.638681  0.120440  1
  Co  Co21  1  0.327290  0.018132  0.327290  1
  Si  Si22  1  0.000000  0.500000  0.000000  1
  Si  Si23  1  0.000000  0.000000  0.500000  1
  Si  Si24  1  0.500000  0.500000  0.000000  1
  Si  Si25  1  0.500000  0.000000  0.500000  1
  Si  Si26  1  0.500000  0.000000  0.000000  1
  Si  Si27  1  0.000000  0.500000  0.500000  1
  As  As28  1  0.000000  0.000000  0.000000  1
