# generated using pymatgen
data_Tm4Lu6Sn5Sb
_symmetry_space_group_name_H-M   'P 1'
_cell_length_a   8.80912042
_cell_length_b   8.80912154
_cell_length_c   6.35315100
_cell_angle_alpha   90.00000000
_cell_angle_beta   90.00000000
_cell_angle_gamma   119.98030463
_symmetry_Int_Tables_number   1
_chemical_formula_structural   Tm4Lu6Sn5Sb
_chemical_formula_sum   'Tm4 Lu6 Sn5 Sb1'
_cell_volume   427.04251656
_cell_formula_units_Z   1
loop_
 _symmetry_equiv_pos_site_id
 _symmetry_equiv_pos_as_xyz
  1  'x, y, z'
loop_
 _atom_site_type_symbol
 _atom_site_label
 _atom_site_symmetry_multiplicity
 _atom_site_fract_x
 _atom_site_fract_y
 _atom_site_fract_z
 _atom_site_occupancy
  Tm  Tm0  1  0.762604  0.762604  0.750000  1
  Tm  Tm1  1  0.237684  0.997690  0.750000  1
  Tm  Tm2  1  0.997690  0.237684  0.750000  1
  Tm  Tm3  1  0.238455  0.238455  0.250000  1
  Lu  Lu4  1  0.667424  0.333069  0.000204  1
  Lu  Lu5  1  0.333069  0.667424  0.000204  1
  Lu  Lu6  1  0.333069  0.667424  0.499796  1
  Lu  Lu7  1  0.667424  0.333069  0.499796  1
  Lu  Lu8  1  0.761798  0.000569  0.250000  1
  Lu  Lu9  1  0.000569  0.761798  0.250000  1
  Sn  Sn10  1  0.604169  0.999377  0.750000  1
  Sn  Sn11  1  0.999377  0.604169  0.750000  1
  Sn  Sn12  1  0.606859  0.606859  0.250000  1
  Sn  Sn13  1  0.394852  0.000586  0.250000  1
  Sn  Sn14  1  0.000586  0.394852  0.250000  1
  Sb  Sb15  1  0.394369  0.394369  0.750000  1
