# generated using pymatgen
data_Er3Sc7(Si5Rh2)4
_symmetry_space_group_name_H-M   'P 1'
_cell_length_a   12.45891728
_cell_length_b   12.45891672
_cell_length_c   4.09393200
_cell_angle_alpha   90.00000000
_cell_angle_beta   90.00000000
_cell_angle_gamma   89.97426984
_symmetry_Int_Tables_number   1
_chemical_formula_structural   Er3Sc7(Si5Rh2)4
_chemical_formula_sum   'Er3 Sc7 Si20 Rh8'
_cell_volume   635.47894566
_cell_formula_units_Z   1
loop_
 _symmetry_equiv_pos_site_id
 _symmetry_equiv_pos_as_xyz
  1  'x, y, z'
loop_
 _atom_site_type_symbol
 _atom_site_label
 _atom_site_symmetry_multiplicity
 _atom_site_fract_x
 _atom_site_fract_y
 _atom_site_fract_z
 _atom_site_occupancy
  Er  Er0  1  0.114986  0.614986  0.500000  1
  Er  Er1  1  0.385025  0.115198  0.500000  1
  Er  Er2  1  0.615198  0.885025  0.500000  1
  Sc  Sc3  1  0.500382  0.500065  0.000000  1
  Sc  Sc4  1  0.000065  0.000382  0.000000  1
  Sc  Sc5  1  0.674810  0.174810  0.500000  1
  Sc  Sc6  1  0.326059  0.826059  0.500000  1
  Sc  Sc7  1  0.173082  0.325975  0.500000  1
  Sc  Sc8  1  0.825975  0.673082  0.500000  1
  Sc  Sc9  1  0.884892  0.384892  0.500000  1
  Si  Si10  1  0.567295  0.067295  0.000000  1
  Si  Si11  1  0.433163  0.933163  0.000000  1
  Si  Si12  1  0.065485  0.432674  0.000000  1
  Si  Si13  1  0.932674  0.565485  0.000000  1
  Si  Si14  1  0.665289  0.698201  0.000000  1
  Si  Si15  1  0.334896  0.301171  0.000000  1
  Si  Si16  1  0.164869  0.801100  0.000000  1
  Si  Si17  1  0.835607  0.200299  0.000000  1
  Si  Si18  1  0.301100  0.664869  0.000000  1
  Si  Si19  1  0.700299  0.335607  0.000000  1
  Si  Si20  1  0.198201  0.165289  0.000000  1
  Si  Si21  1  0.801171  0.834896  0.000000  1
  Si  Si22  1  0.653630  0.504792  0.500000  1
  Si  Si23  1  0.347816  0.492580  0.500000  1
  Si  Si24  1  0.152052  0.993557  0.500000  1
  Si  Si25  1  0.847969  0.006693  0.500000  1
  Si  Si26  1  0.493557  0.652052  0.500000  1
  Si  Si27  1  0.506693  0.347969  0.500000  1
  Si  Si28  1  0.004792  0.153630  0.500000  1
  Si  Si29  1  0.992580  0.847816  0.500000  1
  Rh  Rh30  1  0.745870  0.518844  0.000000  1
  Rh  Rh31  1  0.254765  0.480151  0.000000  1
  Rh  Rh32  1  0.244186  0.980361  0.000000  1
  Rh  Rh33  1  0.755974  0.020236  0.000000  1
  Rh  Rh34  1  0.480361  0.744186  0.000000  1
  Rh  Rh35  1  0.520236  0.255974  0.000000  1
  Rh  Rh36  1  0.018844  0.245870  0.000000  1
  Rh  Rh37  1  0.980151  0.754765  0.000000  1
