# generated using pymatgen
data_YbHo2Al7Ag2
_symmetry_space_group_name_H-M   'P 1'
_cell_length_a   9.29159121
_cell_length_b   9.29159097
_cell_length_c   9.29159200
_cell_angle_alpha   35.17789449
_cell_angle_beta   35.17789660
_cell_angle_gamma   35.17788907
_symmetry_Int_Tables_number   1
_chemical_formula_structural   YbHo2Al7Ag2
_chemical_formula_sum   'Yb1 Ho2 Al7 Ag2'
_cell_volume   237.80304391
_cell_formula_units_Z   1
loop_
 _symmetry_equiv_pos_site_id
 _symmetry_equiv_pos_as_xyz
  1  'x, y, z'
loop_
 _atom_site_type_symbol
 _atom_site_label
 _atom_site_symmetry_multiplicity
 _atom_site_fract_x
 _atom_site_fract_y
 _atom_site_fract_z
 _atom_site_occupancy
  Yb  Yb0  1  0.000000  0.000000  0.000000  1
  Ho  Ho1  1  0.857660  0.857660  0.857660  1
  Ho  Ho2  1  0.142340  0.142340  0.142340  1
  Al  Al3  1  0.411752  0.411752  0.924271  1
  Al  Al4  1  0.924271  0.411752  0.411752  1
  Al  Al5  1  0.411752  0.924271  0.411752  1
  Al  Al6  1  0.500000  0.500000  0.500000  1
  Al  Al7  1  0.588248  0.075729  0.588248  1
  Al  Al8  1  0.075729  0.588248  0.588248  1
  Al  Al9  1  0.588248  0.588248  0.075729  1
  Ag  Ag10  1  0.664301  0.664301  0.664301  1
  Ag  Ag11  1  0.335699  0.335699  0.335699  1
