# generated using pymatgen
data_Tb13Th3(CdCo)4
_symmetry_space_group_name_H-M   'P 1'
_cell_length_a   9.58163375
_cell_length_b   9.59031839
_cell_length_c   9.59031800
_cell_angle_alpha   60.00000136
_cell_angle_beta   59.97001388
_cell_angle_gamma   59.97001445
_symmetry_Int_Tables_number   1
_chemical_formula_structural   Tb13Th3(CdCo)4
_chemical_formula_sum   'Tb13 Th3 Cd4 Co4'
_cell_volume   622.86455904
_cell_formula_units_Z   1
loop_
 _symmetry_equiv_pos_site_id
 _symmetry_equiv_pos_as_xyz
  1  'x, y, z'
loop_
 _atom_site_type_symbol
 _atom_site_label
 _atom_site_symmetry_multiplicity
 _atom_site_fract_x
 _atom_site_fract_y
 _atom_site_fract_z
 _atom_site_occupancy
  Tb  Tb0  1  0.203827  0.598725  0.598725  1
  Tb  Tb1  1  0.062286  0.438242  0.438242  1
  Tb  Tb2  1  0.438864  0.062368  0.062368  1
  Tb  Tb3  1  0.438864  0.062368  0.436400  1
  Tb  Tb4  1  0.062286  0.438242  0.061230  1
  Tb  Tb5  1  0.438864  0.436400  0.062368  1
  Tb  Tb6  1  0.062286  0.061230  0.438242  1
  Tb  Tb7  1  0.186775  0.813741  0.813741  1
  Tb  Tb8  1  0.813284  0.186761  0.186761  1
  Tb  Tb9  1  0.813284  0.186761  0.813194  1
  Tb  Tb10  1  0.186775  0.813741  0.185743  1
  Tb  Tb11  1  0.813284  0.813194  0.186761  1
  Tb  Tb12  1  0.186775  0.185743  0.813741  1
  Th  Th13  1  0.591317  0.595948  0.595948  1
  Th  Th14  1  0.591317  0.595948  0.216786  1
  Th  Th15  1  0.591317  0.216786  0.595948  1
  Cd  Cd16  1  0.832568  0.830851  0.830851  1
  Cd  Cd17  1  0.832568  0.830851  0.505728  1
  Cd  Cd18  1  0.832568  0.505728  0.830851  1
  Cd  Cd19  1  0.505664  0.831445  0.831445  1
  Co  Co20  1  0.399618  0.390198  0.390198  1
  Co  Co21  1  0.399618  0.390198  0.819987  1
  Co  Co22  1  0.399618  0.819987  0.390198  1
  Co  Co23  1  0.816372  0.394543  0.394543  1
