# generated using pymatgen
data_Dy4Si12Ni7Rh13
_symmetry_space_group_name_H-M   'P 1'
_cell_length_a   3.81945400
_cell_length_b   11.24332755
_cell_length_c   12.60396200
_cell_angle_alpha   90.29153721
_cell_angle_beta   90.00000000
_cell_angle_gamma   90.00000000
_symmetry_Int_Tables_number   1
_chemical_formula_structural   Dy4Si12Ni7Rh13
_chemical_formula_sum   'Dy4 Si12 Ni7 Rh13'
_cell_volume   541.24962687
_cell_formula_units_Z   1
loop_
 _symmetry_equiv_pos_site_id
 _symmetry_equiv_pos_as_xyz
  1  'x, y, z'
loop_
 _atom_site_type_symbol
 _atom_site_label
 _atom_site_symmetry_multiplicity
 _atom_site_fract_x
 _atom_site_fract_y
 _atom_site_fract_z
 _atom_site_occupancy
  Dy  Dy0  1  0.250000  0.591107  0.704536  1
  Dy  Dy1  1  0.250000  0.910079  0.202265  1
  Dy  Dy2  1  0.750000  0.411578  0.297251  1
  Dy  Dy3  1  0.750000  0.087555  0.796892  1
  Si  Si4  1  0.250000  0.410381  0.107514  1
  Si  Si5  1  0.250000  0.091593  0.603192  1
  Si  Si6  1  0.750000  0.584899  0.895315  1
  Si  Si7  1  0.750000  0.911224  0.389945  1
  Si  Si8  1  0.250000  0.276170  0.880693  1
  Si  Si9  1  0.250000  0.223191  0.380168  1
  Si  Si10  1  0.750000  0.720033  0.120448  1
  Si  Si11  1  0.750000  0.781700  0.620340  1
  Si  Si12  1  0.250000  0.602728  0.388427  1
  Si  Si13  1  0.250000  0.896281  0.890610  1
  Si  Si14  1  0.750000  0.399929  0.612054  1
  Si  Si15  1  0.750000  0.101743  0.111947  1
  Ni  Ni16  1  0.250000  0.603016  0.194336  1
  Ni  Ni17  1  0.750000  0.104925  0.305427  1
  Ni  Ni18  1  0.750000  0.394534  0.806508  1
  Ni  Ni19  1  0.250000  0.469504  0.931563  1
  Ni  Ni20  1  0.250000  0.028999  0.426955  1
  Ni  Ni21  1  0.750000  0.526242  0.070733  1
  Ni  Ni22  1  0.750000  0.975845  0.562273  1
  Rh  Rh23  1  0.250000  0.708377  0.990006  1
  Rh  Rh24  1  0.250000  0.791401  0.483826  1
  Rh  Rh25  1  0.750000  0.288310  0.012084  1
  Rh  Rh26  1  0.750000  0.214115  0.510491  1
  Rh  Rh27  1  0.250000  0.409119  0.487672  1
  Rh  Rh28  1  0.250000  0.092133  0.988263  1
  Rh  Rh29  1  0.750000  0.595387  0.513839  1
  Rh  Rh30  1  0.750000  0.905352  0.014429  1
  Rh  Rh31  1  0.250000  0.217004  0.187789  1
  Rh  Rh32  1  0.250000  0.284533  0.687150  1
  Rh  Rh33  1  0.750000  0.776662  0.817618  1
  Rh  Rh34  1  0.750000  0.715771  0.312478  1
  Rh  Rh35  1  0.250000  0.898581  0.694961  1
