# generated using pymatgen
data_Nb2AlGa2Ni
_symmetry_space_group_name_H-M   'P 1'
_cell_length_a   5.13707604
_cell_length_b   5.13707573
_cell_length_c   7.84390900
_cell_angle_alpha   90.00000000
_cell_angle_beta   90.00000000
_cell_angle_gamma   119.90825066
_symmetry_Int_Tables_number   1
_chemical_formula_structural   Nb2AlGa2Ni
_chemical_formula_sum   'Nb4 Al2 Ga4 Ni2'
_cell_volume   179.43035476
_cell_formula_units_Z   2
loop_
 _symmetry_equiv_pos_site_id
 _symmetry_equiv_pos_as_xyz
  1  'x, y, z'
loop_
 _atom_site_type_symbol
 _atom_site_label
 _atom_site_symmetry_multiplicity
 _atom_site_fract_x
 _atom_site_fract_y
 _atom_site_fract_z
 _atom_site_occupancy
  Nb  Nb0  1  0.334214  0.665786  0.178317  1
  Nb  Nb1  1  0.666510  0.333490  0.319580  1
  Nb  Nb2  1  0.666510  0.333490  0.680420  1
  Nb  Nb3  1  0.334214  0.665786  0.821683  1
  Al  Al4  1  0.831235  0.664667  0.000000  1
  Al  Al5  1  0.335333  0.168765  0.000000  1
  Ga  Ga6  1  0.829541  0.170459  0.000000  1
  Ga  Ga7  1  0.169069  0.337677  0.500000  1
  Ga  Ga8  1  0.662323  0.830931  0.500000  1
  Ga  Ga9  1  0.169098  0.830902  0.500000  1
  Ni  Ni10  1  0.001055  0.998945  0.249105  1
  Ni  Ni11  1  0.001055  0.998945  0.750895  1
