# generated using pymatgen
data_Tb3Ta(Ga3Pd)8
_symmetry_space_group_name_H-M   'P 1'
_cell_length_a   8.53037199
_cell_length_b   8.53037303
_cell_length_c   8.53037400
_cell_angle_alpha   89.72397700
_cell_angle_beta   89.72397696
_cell_angle_gamma   89.72398036
_symmetry_Int_Tables_number   1
_chemical_formula_structural   Tb3Ta(Ga3Pd)8
_chemical_formula_sum   'Tb3 Ta1 Ga24 Pd8'
_cell_volume   620.71036106
_cell_formula_units_Z   1
loop_
 _symmetry_equiv_pos_site_id
 _symmetry_equiv_pos_as_xyz
  1  'x, y, z'
loop_
 _atom_site_type_symbol
 _atom_site_label
 _atom_site_symmetry_multiplicity
 _atom_site_fract_x
 _atom_site_fract_y
 _atom_site_fract_z
 _atom_site_occupancy
  Tb  Tb0  1  0.000000  0.500000  0.000000  1
  Tb  Tb1  1  0.500000  0.000000  0.000000  1
  Tb  Tb2  1  0.000000  0.000000  0.500000  1
  Ta  Ta3  1  0.500000  0.500000  0.500000  1
  Ga  Ga4  1  0.989184  0.642878  0.642878  1
  Ga  Ga5  1  0.642878  0.642878  0.989184  1
  Ga  Ga6  1  0.642878  0.989184  0.642878  1
  Ga  Ga7  1  0.010816  0.357122  0.357122  1
  Ga  Ga8  1  0.357122  0.357122  0.010816  1
  Ga  Ga9  1  0.357122  0.010816  0.357122  1
  Ga  Ga10  1  0.737376  0.500000  0.262624  1
  Ga  Ga11  1  0.262624  0.500000  0.737376  1
  Ga  Ga12  1  0.500000  0.262624  0.737376  1
  Ga  Ga13  1  0.500000  0.737376  0.262624  1
  Ga  Ga14  1  0.262624  0.737376  0.500000  1
  Ga  Ga15  1  0.737376  0.262624  0.500000  1
  Ga  Ga16  1  0.838414  0.141257  0.838414  1
  Ga  Ga17  1  0.141257  0.838414  0.838414  1
  Ga  Ga18  1  0.838414  0.838414  0.141257  1
  Ga  Ga19  1  0.161586  0.858743  0.161586  1
  Ga  Ga20  1  0.858743  0.161586  0.161586  1
  Ga  Ga21  1  0.161586  0.161586  0.858743  1
  Ga  Ga22  1  0.729295  0.487999  0.729295  1
  Ga  Ga23  1  0.487999  0.729295  0.729295  1
  Ga  Ga24  1  0.729295  0.729295  0.487999  1
  Ga  Ga25  1  0.270705  0.512001  0.270705  1
  Ga  Ga26  1  0.512001  0.270705  0.270705  1
  Ga  Ga27  1  0.270705  0.270705  0.512001  1
  Pd  Pd28  1  0.836378  0.836378  0.836378  1
  Pd  Pd29  1  0.163622  0.163622  0.163622  1
  Pd  Pd30  1  0.665583  0.334417  0.000000  1
  Pd  Pd31  1  0.000000  0.334417  0.665583  1
  Pd  Pd32  1  0.334417  0.000000  0.665583  1
  Pd  Pd33  1  0.334417  0.665583  0.000000  1
  Pd  Pd34  1  0.000000  0.665583  0.334417  1
  Pd  Pd35  1  0.665583  0.000000  0.334417  1
