# generated using pymatgen
data_Na(NbTe2)3
_symmetry_space_group_name_H-M   'P 1'
_cell_length_a   6.42392600
_cell_length_b   6.42392591
_cell_length_c   17.33322600
_cell_angle_alpha   90.00000000
_cell_angle_beta   90.00000000
_cell_angle_gamma   120.00000048
_symmetry_Int_Tables_number   1
_chemical_formula_structural   Na(NbTe2)3
_chemical_formula_sum   'Na2 Nb6 Te12'
_cell_volume   619.45688147
_cell_formula_units_Z   2
loop_
 _symmetry_equiv_pos_site_id
 _symmetry_equiv_pos_as_xyz
  1  'x, y, z'
loop_
 _atom_site_type_symbol
 _atom_site_label
 _atom_site_symmetry_multiplicity
 _atom_site_fract_x
 _atom_site_fract_y
 _atom_site_fract_z
 _atom_site_occupancy
  Na  Na0  1  0.666667  0.333333  0.750000  1
  Na  Na1  1  0.333333  0.666667  0.250000  1
  Nb  Nb2  1  0.333333  0.666667  0.500869  1
  Nb  Nb3  1  0.666667  0.333333  0.000869  1
  Nb  Nb4  1  0.666667  0.333333  0.499131  1
  Nb  Nb5  1  0.333333  0.666667  0.999131  1
  Nb  Nb6  1  0.000000  0.000000  0.500000  1
  Nb  Nb7  1  0.000000  0.000000  0.000000  1
  Te  Te8  1  0.332824  0.333026  0.105698  1
  Te  Te9  1  0.666974  0.999798  0.105698  1
  Te  Te10  1  0.000202  0.667176  0.105698  1
  Te  Te11  1  0.999798  0.332824  0.605698  1
  Te  Te12  1  0.667176  0.000202  0.894302  1
  Te  Te13  1  0.667176  0.666974  0.605698  1
  Te  Te14  1  0.333026  0.000202  0.605698  1
  Te  Te15  1  0.666974  0.667176  0.394302  1
  Te  Te16  1  0.332824  0.999798  0.394302  1
  Te  Te17  1  0.333026  0.332824  0.894302  1
  Te  Te18  1  0.999798  0.666974  0.894302  1
  Te  Te19  1  0.000202  0.333026  0.394302  1
