# generated using pymatgen
data_Y8Nb11ReSi16
_symmetry_space_group_name_H-M   'P 1'
_cell_length_a   7.04419273
_cell_length_b   7.05067729
_cell_length_c   13.04245850
_cell_angle_alpha   89.83779921
_cell_angle_beta   89.91652763
_cell_angle_gamma   90.08340645
_symmetry_Int_Tables_number   1
_chemical_formula_structural   Y8Nb11ReSi16
_chemical_formula_sum   'Y8 Nb11 Re1 Si16'
_cell_volume   647.76707054
_cell_formula_units_Z   1
loop_
 _symmetry_equiv_pos_site_id
 _symmetry_equiv_pos_as_xyz
  1  'x, y, z'
loop_
 _atom_site_type_symbol
 _atom_site_label
 _atom_site_symmetry_multiplicity
 _atom_site_fract_x
 _atom_site_fract_y
 _atom_site_fract_z
 _atom_site_occupancy
  Y  Y0  1  0.998242  0.340994  0.220014  1
  Y  Y1  1  0.002809  0.659410  0.716434  1
  Y  Y2  1  0.158544  0.498776  0.467376  1
  Y  Y3  1  0.501177  0.842315  0.033663  1
  Y  Y4  1  0.841045  0.502698  0.967638  1
  Y  Y5  1  0.497831  0.157393  0.530920  1
  Y  Y6  1  0.341486  0.999214  0.781599  1
  Y  Y7  1  0.658891  0.001320  0.282313  1
  Nb  Nb8  1  0.171378  0.171913  0.001008  1
  Nb  Nb9  1  0.828120  0.828792  0.499727  1
  Nb  Nb10  1  0.327597  0.668930  0.250314  1
  Nb  Nb11  1  0.671052  0.329665  0.750273  1
  Nb  Nb12  1  0.845941  0.008129  0.875478  1
  Nb  Nb13  1  0.505842  0.656124  0.624126  1
  Nb  Nb14  1  0.345968  0.493326  0.873643  1
  Nb  Nb15  1  0.489092  0.343045  0.127635  1
  Nb  Nb16  1  0.654378  0.506357  0.374081  1
  Nb  Nb17  1  0.994705  0.154125  0.623155  1
  Nb  Nb18  1  0.005790  0.847287  0.124270  1
  Re  Re19  1  0.156295  0.993840  0.375893  1
  Si  Si20  1  0.290909  0.041799  0.190090  1
  Si  Si21  1  0.707810  0.955257  0.686687  1
  Si  Si22  1  0.451211  0.793144  0.434943  1
  Si  Si23  1  0.206635  0.545967  0.063395  1
  Si  Si24  1  0.544770  0.206951  0.937037  1
  Si  Si25  1  0.792201  0.453781  0.562998  1
  Si  Si26  1  0.045459  0.294187  0.813063  1
  Si  Si27  1  0.958724  0.712690  0.313670  1
  Si  Si28  1  0.366909  0.290389  0.319492  1
  Si  Si29  1  0.632574  0.705795  0.816494  1
  Si  Si30  1  0.201982  0.868774  0.564165  1
  Si  Si31  1  0.133270  0.797447  0.933200  1
  Si  Si32  1  0.796424  0.134144  0.067679  1
  Si  Si33  1  0.873201  0.197811  0.431812  1
  Si  Si34  1  0.297217  0.367413  0.682007  1
  Si  Si35  1  0.704523  0.630801  0.183706  1
