# generated using pymatgen
data_Nd2Er2V3Cr(WO6)4
_symmetry_space_group_name_H-M   'P 1'
_cell_length_a   5.29443500
_cell_length_b   7.47322971
_cell_length_c   11.20417100
_cell_angle_alpha   90.00000000
_cell_angle_beta   90.00000000
_cell_angle_gamma   90.13487452
_symmetry_Int_Tables_number   1
_chemical_formula_structural   Nd2Er2V3Cr(WO6)4
_chemical_formula_sum   'Nd2 Er2 V3 Cr1 W4 O24'
_cell_volume   443.30892760
_cell_formula_units_Z   1
loop_
 _symmetry_equiv_pos_site_id
 _symmetry_equiv_pos_as_xyz
  1  'x, y, z'
loop_
 _atom_site_type_symbol
 _atom_site_label
 _atom_site_symmetry_multiplicity
 _atom_site_fract_x
 _atom_site_fract_y
 _atom_site_fract_z
 _atom_site_occupancy
  Nd  Nd0  1  0.541973  0.251399  0.044987  1
  Nd  Nd1  1  0.040480  0.750950  0.454761  1
  Er  Er2  1  0.950788  0.251098  0.547061  1
  Er  Er3  1  0.450362  0.750120  0.954237  1
  V  V4  1  0.549818  0.496857  0.366934  1
  V  V5  1  0.448506  0.999380  0.635297  1
  V  V6  1  0.948829  0.499409  0.864313  1
  Cr  Cr7  1  0.049421  0.996931  0.132709  1
  W  W8  1  0.055482  0.509349  0.141793  1
  W  W9  1  0.554414  0.009458  0.357098  1
  W  W10  1  0.442856  0.502636  0.645129  1
  W  W11  1  0.941980  0.002114  0.855804  1
  O  O12  1  0.759933  0.954497  0.018659  1
  O  O13  1  0.765345  0.550368  0.027270  1
  O  O14  1  0.180816  0.750426  0.116249  1
  O  O15  1  0.948972  0.259685  0.138986  1
  O  O16  1  0.368839  0.440583  0.209190  1
  O  O17  1  0.380151  0.064897  0.217313  1
  O  O18  1  0.882689  0.566248  0.282107  1
  O  O19  1  0.868019  0.942544  0.287754  1
  O  O20  1  0.450262  0.759360  0.360851  1
  O  O21  1  0.681232  0.250623  0.384006  1
  O  O22  1  0.265980  0.050763  0.471485  1
  O  O23  1  0.258653  0.454043  0.482045  1
  O  O24  1  0.740735  0.969471  0.520850  1
  O  O25  1  0.732799  0.537420  0.531197  1
  O  O26  1  0.335259  0.747435  0.618399  1
  O  O27  1  0.568269  0.256999  0.646372  1
  O  O28  1  0.124417  0.431831  0.705480  1
  O  O29  1  0.106677  0.064947  0.712606  1
  O  O30  1  0.605676  0.565306  0.788198  1
  O  O31  1  0.623869  0.931800  0.795591  1
  O  O32  1  0.069437  0.757594  0.853420  1
  O  O33  1  0.835875  0.247290  0.880854  1
  O  O34  1  0.229988  0.036655  0.972788  1
  O  O35  1  0.241193  0.469908  0.978205  1
