# generated using pymatgen
data_Pr8Ho8Sc4Si15P
_symmetry_space_group_name_H-M   'P 1'
_cell_length_a   7.42854036
_cell_length_b   7.72332147
_cell_length_c   14.63981336
_cell_angle_alpha   90.13112010
_cell_angle_beta   89.07633661
_cell_angle_gamma   90.33082269
_symmetry_Int_Tables_number   1
_chemical_formula_structural   Pr8Ho8Sc4Si15P
_chemical_formula_sum   'Pr8 Ho8 Sc4 Si15 P1'
_cell_volume   839.80492488
_cell_formula_units_Z   1
loop_
 _symmetry_equiv_pos_site_id
 _symmetry_equiv_pos_as_xyz
  1  'x, y, z'
loop_
 _atom_site_type_symbol
 _atom_site_label
 _atom_site_symmetry_multiplicity
 _atom_site_fract_x
 _atom_site_fract_y
 _atom_site_fract_z
 _atom_site_occupancy
  Pr  Pr0  1  0.018394  0.183231  0.404070  1
  Pr  Pr1  1  0.513303  0.319542  0.399861  1
  Pr  Pr2  1  0.479382  0.678934  0.899942  1
  Pr  Pr3  1  0.485945  0.674581  0.598248  1
  Pr  Pr4  1  0.983200  0.815708  0.595942  1
  Pr  Pr5  1  0.978972  0.820700  0.900285  1
  Pr  Pr6  1  0.521346  0.322149  0.099942  1
  Pr  Pr7  1  0.021755  0.179557  0.099384  1
  Ho  Ho8  1  0.324772  0.179006  0.624828  1
  Ho  Ho9  1  0.674483  0.826277  0.373771  1
  Ho  Ho10  1  0.169645  0.668510  0.381626  1
  Ho  Ho11  1  0.822577  0.322293  0.874442  1
  Ho  Ho12  1  0.832769  0.328582  0.619981  1
  Ho  Ho13  1  0.320632  0.176597  0.874414  1
  Ho  Ho14  1  0.177862  0.677489  0.124813  1
  Ho  Ho15  1  0.680033  0.824094  0.125171  1
  Sc  Sc16  1  0.653494  0.991572  0.748027  1
  Sc  Sc17  1  0.844123  0.490998  0.254287  1
  Sc  Sc18  1  0.345598  0.007458  0.251738  1
  Sc  Sc19  1  0.156316  0.511334  0.747582  1
  Si  Si20  1  0.278768  0.873745  0.749058  1
  Si  Si21  1  0.470807  0.612044  0.249110  1
  Si  Si22  1  0.021169  0.106533  0.747639  1
  Si  Si23  1  0.529278  0.388768  0.750348  1
  Si  Si24  1  0.980990  0.891048  0.251900  1
  Si  Si25  1  0.722465  0.128227  0.249970  1
  Si  Si26  1  0.854914  0.531893  0.040488  1
  Si  Si27  1  0.355961  0.969007  0.040786  1
  Si  Si28  1  0.144912  0.468988  0.958468  1
  Si  Si29  1  0.649317  0.032570  0.540458  1
  Si  Si30  1  0.350150  0.965501  0.461313  1
  Si  Si31  1  0.821162  0.534402  0.452915  1
  Si  Si32  1  0.779595  0.624498  0.748891  1
  Si  Si33  1  0.219937  0.375508  0.250890  1
  Si  Si34  1  0.644603  0.031753  0.958989  1
  P  P35  1  0.171369  0.466905  0.550424  1
