# generated using pymatgen
data_Tb5Nd6Ho5(CdPt)4
_symmetry_space_group_name_H-M   'P 1'
_cell_length_a   9.77339445
_cell_length_b   9.79920608
_cell_length_c   9.79920538
_cell_angle_alpha   60.16787859
_cell_angle_beta   60.08709189
_cell_angle_gamma   60.08709231
_symmetry_Int_Tables_number   1
_chemical_formula_structural   Tb5Nd6Ho5(CdPt)4
_chemical_formula_sum   'Tb5 Nd6 Ho5 Cd4 Pt4'
_cell_volume   665.32227199
_cell_formula_units_Z   1
loop_
 _symmetry_equiv_pos_site_id
 _symmetry_equiv_pos_as_xyz
  1  'x, y, z'
loop_
 _atom_site_type_symbol
 _atom_site_label
 _atom_site_symmetry_multiplicity
 _atom_site_fract_x
 _atom_site_fract_y
 _atom_site_fract_z
 _atom_site_occupancy
  Tb  Tb0  1  0.349644  0.351092  0.351092  1
  Tb  Tb1  1  0.351416  0.352365  0.944803  1
  Tb  Tb2  1  0.351416  0.944803  0.352365  1
  Tb  Tb3  1  0.948171  0.351092  0.351092  1
  Tb  Tb4  1  0.812301  0.187699  0.187699  1
  Nd  Nd5  1  0.937652  0.562348  0.562348  1
  Nd  Nd6  1  0.561533  0.938467  0.938467  1
  Nd  Nd7  1  0.562261  0.938652  0.561670  1
  Nd  Nd8  1  0.937417  0.561670  0.938652  1
  Nd  Nd9  1  0.562261  0.561670  0.938652  1
  Nd  Nd10  1  0.937417  0.938652  0.561670  1
  Ho  Ho11  1  0.187205  0.812795  0.812795  1
  Ho  Ho12  1  0.188482  0.812670  0.186846  1
  Ho  Ho13  1  0.812001  0.186846  0.812670  1
  Ho  Ho14  1  0.188482  0.186846  0.812670  1
  Ho  Ho15  1  0.812001  0.812670  0.186846  1
  Cd  Cd16  1  0.579751  0.579859  0.579859  1
  Cd  Cd17  1  0.579900  0.580270  0.259932  1
  Cd  Cd18  1  0.579900  0.259932  0.580270  1
  Cd  Cd19  1  0.260533  0.579859  0.579859  1
  Pt  Pt20  1  0.144041  0.142387  0.142387  1
  Pt  Pt21  1  0.142515  0.141882  0.573089  1
  Pt  Pt22  1  0.142515  0.573089  0.141882  1
  Pt  Pt23  1  0.571186  0.142387  0.142387  1
