# generated using pymatgen
data_Ho2Co12Si6Ge
_symmetry_space_group_name_H-M   'P 1'
_cell_length_a   9.20121100
_cell_length_b   9.20121171
_cell_length_c   3.62542700
_cell_angle_alpha   90.00000000
_cell_angle_beta   90.00000000
_cell_angle_gamma   120.00000105
_symmetry_Int_Tables_number   1
_chemical_formula_structural   Ho2Co12Si6Ge
_chemical_formula_sum   'Ho2 Co12 Si6 Ge1'
_cell_volume   265.81519620
_cell_formula_units_Z   1
loop_
 _symmetry_equiv_pos_site_id
 _symmetry_equiv_pos_as_xyz
  1  'x, y, z'
loop_
 _atom_site_type_symbol
 _atom_site_label
 _atom_site_symmetry_multiplicity
 _atom_site_fract_x
 _atom_site_fract_y
 _atom_site_fract_z
 _atom_site_occupancy
  Ho  Ho0  1  0.666667  0.333333  0.500000  1
  Ho  Ho1  1  0.333333  0.666667  0.000000  1
  Co  Co2  1  0.128386  0.846318  0.000000  1
  Co  Co3  1  0.382055  0.434062  0.500000  1
  Co  Co4  1  0.717932  0.871614  0.000000  1
  Co  Co5  1  0.565938  0.947992  0.500000  1
  Co  Co6  1  0.238621  0.109759  0.500000  1
  Co  Co7  1  0.871139  0.761379  0.500000  1
  Co  Co8  1  0.890241  0.128861  0.500000  1
  Co  Co9  1  0.943160  0.379858  0.000000  1
  Co  Co10  1  0.620142  0.563304  0.000000  1
  Co  Co11  1  0.436696  0.056840  0.000000  1
  Co  Co12  1  0.052008  0.617945  0.500000  1
  Co  Co13  1  0.153682  0.282068  0.000000  1
  Si  Si14  1  0.598410  0.707200  0.500000  1
  Si  Si15  1  0.712480  0.112284  0.000000  1
  Si  Si16  1  0.887716  0.600196  0.000000  1
  Si  Si17  1  0.399804  0.287520  0.000000  1
  Si  Si18  1  0.292800  0.891210  0.500000  1
  Si  Si19  1  0.108790  0.401590  0.500000  1
  Ge  Ge20  1  0.000000  0.000000  0.000000  1
