# generated using pymatgen
data_Pa2Mo2C3
_symmetry_space_group_name_H-M   'P 1'
_cell_length_a   6.20325023
_cell_length_b   6.20325045
_cell_length_c   5.70651881
_cell_angle_alpha   68.40049716
_cell_angle_beta   68.40049589
_cell_angle_gamma   30.62029732
_symmetry_Int_Tables_number   1
_chemical_formula_structural   Pa2Mo2C3
_chemical_formula_sum   'Pa2 Mo2 C3'
_cell_volume   103.38011722
_cell_formula_units_Z   1
loop_
 _symmetry_equiv_pos_site_id
 _symmetry_equiv_pos_as_xyz
  1  'x, y, z'
loop_
 _atom_site_type_symbol
 _atom_site_label
 _atom_site_symmetry_multiplicity
 _atom_site_fract_x
 _atom_site_fract_y
 _atom_site_fract_z
 _atom_site_occupancy
  Pa  Pa0  1  0.604967  0.604967  0.185722  1
  Pa  Pa1  1  0.395033  0.395033  0.814278  1
  Mo  Mo2  1  0.844395  0.844395  0.335215  1
  Mo  Mo3  1  0.155605  0.155605  0.664785  1
  C  C4  1  0.749612  0.749612  0.750170  1
  C  C5  1  0.250388  0.250388  0.249830  1
  C  C6  1  0.000000  0.000000  0.000000  1
