# generated using pymatgen
data_Li4ScNi9As3P4
_symmetry_space_group_name_H-M   'P 1'
_cell_length_a   9.19405730
_cell_length_b   9.26611725
_cell_length_c   3.65293400
_cell_angle_alpha   90.00000000
_cell_angle_beta   90.00000000
_cell_angle_gamma   119.86536413
_symmetry_Int_Tables_number   1
_chemical_formula_structural   Li4ScNi9As3P4
_chemical_formula_sum   'Li4 Sc1 Ni9 As3 P4'
_cell_volume   269.87649175
_cell_formula_units_Z   1
loop_
 _symmetry_equiv_pos_site_id
 _symmetry_equiv_pos_as_xyz
  1  'x, y, z'
loop_
 _atom_site_type_symbol
 _atom_site_label
 _atom_site_symmetry_multiplicity
 _atom_site_fract_x
 _atom_site_fract_y
 _atom_site_fract_z
 _atom_site_occupancy
  Li  Li0  1  0.772258  0.558074  0.500000  1
  Li  Li1  1  0.445582  0.213334  0.500000  1
  Li  Li2  1  0.785999  0.232435  0.500000  1
  Li  Li3  1  0.995279  0.975432  0.500000  1
  Sc  Sc4  1  0.333764  0.668679  0.000000  1
  Ni  Ni5  1  0.278198  0.394132  0.500000  1
  Ni  Ni6  1  0.610047  0.886178  0.500000  1
  Ni  Ni7  1  0.106020  0.725615  0.500000  1
  Ni  Ni8  1  0.497952  0.460827  0.000000  1
  Ni  Ni9  1  0.539519  0.037864  0.000000  1
  Ni  Ni10  1  0.961247  0.510115  0.000000  1
  Ni  Ni11  1  0.724779  0.758854  0.000000  1
  Ni  Ni12  1  0.233910  0.948792  0.000000  1
  Ni  Ni13  1  0.046443  0.294582  0.000000  1
  As  As14  1  0.241098  0.207668  0.000000  1
  As  As15  1  0.795196  0.036172  0.000000  1
  As  As16  1  0.665705  0.333236  0.000000  1
  P  P17  1  0.966595  0.753130  0.000000  1
  P  P18  1  0.539586  0.621783  0.500000  1
  P  P19  1  0.377808  0.915783  0.500000  1
  P  P20  1  0.083018  0.467313  0.500000  1
