# generated using pymatgen
data_Tb2Ho5Tm(SiBr6)2
_symmetry_space_group_name_H-M   'P 1'
_cell_length_a   4.04816400
_cell_length_b   13.22991030
_cell_length_c   13.98141249
_cell_angle_alpha   90.40191310
_cell_angle_beta   90.00000000
_cell_angle_gamma   90.00000000
_symmetry_Int_Tables_number   1
_chemical_formula_structural   Tb2Ho5Tm(SiBr6)2
_chemical_formula_sum   'Tb2 Ho5 Tm1 Si2 Br12'
_cell_volume   748.78194130
_cell_formula_units_Z   1
loop_
 _symmetry_equiv_pos_site_id
 _symmetry_equiv_pos_as_xyz
  1  'x, y, z'
loop_
 _atom_site_type_symbol
 _atom_site_label
 _atom_site_symmetry_multiplicity
 _atom_site_fract_x
 _atom_site_fract_y
 _atom_site_fract_z
 _atom_site_occupancy
  Tb  Tb0  1  0.000000  0.618453  0.921111  1
  Tb  Tb1  1  0.000000  0.381650  0.079038  1
  Ho  Ho2  1  0.500000  0.117470  0.342174  1
  Ho  Ho3  1  0.500000  0.882546  0.657857  1
  Ho  Ho4  1  0.500000  0.618085  0.158490  1
  Ho  Ho5  1  0.000000  0.117284  0.578474  1
  Ho  Ho6  1  0.000000  0.882892  0.421664  1
  Tm  Tm7  1  0.500000  0.381889  0.841468  1
  Si  Si8  1  0.500000  0.000084  0.500072  1
  Si  Si9  1  0.500000  0.499452  0.999226  1
  Br  Br10  1  0.500000  0.242643  0.165145  1
  Br  Br11  1  0.500000  0.757252  0.834702  1
  Br  Br12  1  0.500000  0.746806  0.336526  1
  Br  Br13  1  0.500000  0.253999  0.664671  1
  Br  Br14  1  0.000000  0.254373  0.412589  1
  Br  Br15  1  0.000000  0.745601  0.587482  1
  Br  Br16  1  0.000000  0.755410  0.090990  1
  Br  Br17  1  0.000000  0.246333  0.907273  1
  Br  Br18  1  0.000000  0.001533  0.243857  1
  Br  Br19  1  0.000000  0.998468  0.756161  1
  Br  Br20  1  0.000000  0.505139  0.258416  1
  Br  Br21  1  0.000000  0.492638  0.742613  1
