# generated using pymatgen
data_Dy3Tm(CO3)6
_symmetry_space_group_name_H-M   'P 1'
_cell_length_a   8.18010624
_cell_length_b   8.34895794
_cell_length_c   8.37611937
_cell_angle_alpha   119.90811992
_cell_angle_beta   90.05467936
_cell_angle_gamma   90.00481399
_symmetry_Int_Tables_number   1
_chemical_formula_structural   Dy3Tm(CO3)6
_chemical_formula_sum   'Dy3 Tm1 C6 O18'
_cell_volume   495.86763561
_cell_formula_units_Z   1
loop_
 _symmetry_equiv_pos_site_id
 _symmetry_equiv_pos_as_xyz
  1  'x, y, z'
loop_
 _atom_site_type_symbol
 _atom_site_label
 _atom_site_symmetry_multiplicity
 _atom_site_fract_x
 _atom_site_fract_y
 _atom_site_fract_z
 _atom_site_occupancy
  Dy  Dy0  1  0.967022  0.665363  0.332330  1
  Dy  Dy1  1  0.532864  0.667559  0.333574  1
  Dy  Dy2  1  0.466387  0.332458  0.666431  1
  Tm  Tm3  1  0.033406  0.334456  0.667567  1
  C  C4  1  0.248184  0.967214  0.373695  1
  C  C5  1  0.248926  0.407141  0.033482  1
  C  C6  1  0.750904  0.371612  0.408774  1
  C  C7  1  0.249103  0.627942  0.593451  1
  C  C8  1  0.751180  0.590643  0.963767  1
  C  C9  1  0.751874  0.035462  0.626849  1
  O  O10  1  0.112287  0.879587  0.319232  1
  O  O11  1  0.387275  0.884973  0.324812  1
  O  O12  1  0.750676  0.662843  0.143352  1
  O  O13  1  0.387460  0.442203  0.116964  1
  O  O14  1  0.112580  0.438778  0.119721  1
  O  O15  1  0.750250  0.478898  0.335812  1
  O  O16  1  0.752017  0.855347  0.518769  1
  O  O17  1  0.112663  0.681331  0.559894  1
  O  O18  1  0.387652  0.677414  0.559346  1
  O  O19  1  0.613556  0.318209  0.440523  1
  O  O20  1  0.888743  0.323775  0.446252  1
  O  O21  1  0.245376  0.146982  0.483431  1
  O  O22  1  0.247071  0.518934  0.664356  1
  O  O23  1  0.888915  0.554983  0.879012  1
  O  O24  1  0.613771  0.557985  0.878800  1
  O  O25  1  0.246770  0.337030  0.854249  1
  O  O26  1  0.613946  0.119273  0.679584  1
  O  O27  1  0.889143  0.121606  0.675970  1
