# generated using pymatgen
data_La4Pr2(GaSn)5
_symmetry_space_group_name_H-M   'P 1'
_cell_length_a   6.53556346
_cell_length_b   6.53556322
_cell_length_c   10.24938000
_cell_angle_alpha   90.00000000
_cell_angle_beta   90.00000000
_cell_angle_gamma   102.49852284
_symmetry_Int_Tables_number   1
_chemical_formula_structural   La4Pr2(GaSn)5
_chemical_formula_sum   'La4 Pr2 Ga5 Sn5'
_cell_volume   427.41292066
_cell_formula_units_Z   1
loop_
 _symmetry_equiv_pos_site_id
 _symmetry_equiv_pos_as_xyz
  1  'x, y, z'
loop_
 _atom_site_type_symbol
 _atom_site_label
 _atom_site_symmetry_multiplicity
 _atom_site_fract_x
 _atom_site_fract_y
 _atom_site_fract_z
 _atom_site_occupancy
  La  La0  1  0.200700  0.799431  0.495246  1
  La  La1  1  0.200700  0.799431  0.004754  1
  La  La2  1  0.799431  0.200700  0.495246  1
  La  La3  1  0.799431  0.200700  0.004754  1
  Pr  Pr4  1  0.648662  0.648662  0.250000  1
  Pr  Pr5  1  0.362455  0.362455  0.750000  1
  Ga  Ga6  1  0.032996  0.032996  0.250000  1
  Ga  Ga7  1  0.309993  0.309993  0.049495  1
  Ga  Ga8  1  0.687360  0.687360  0.955289  1
  Ga  Ga9  1  0.309993  0.309993  0.450505  1
  Ga  Ga10  1  0.687360  0.687360  0.544711  1
  Sn  Sn11  1  0.973307  0.973307  0.750000  1
  Sn  Sn12  1  0.481890  0.090519  0.250000  1
  Sn  Sn13  1  0.908114  0.507089  0.750000  1
  Sn  Sn14  1  0.507089  0.908114  0.750000  1
  Sn  Sn15  1  0.090519  0.481890  0.250000  1
