# generated using pymatgen
data_LiEr5(P2Ru3)6
_symmetry_space_group_name_H-M   'P 1'
_cell_length_a   12.59920174
_cell_length_b   12.59920282
_cell_length_c   3.96284200
_cell_angle_alpha   90.00000000
_cell_angle_beta   90.00000000
_cell_angle_gamma   121.00520280
_symmetry_Int_Tables_number   1
_chemical_formula_structural   LiEr5(P2Ru3)6
_chemical_formula_sum   'Li1 Er5 P12 Ru18'
_cell_volume   539.18121277
_cell_formula_units_Z   1
loop_
 _symmetry_equiv_pos_site_id
 _symmetry_equiv_pos_as_xyz
  1  'x, y, z'
loop_
 _atom_site_type_symbol
 _atom_site_label
 _atom_site_symmetry_multiplicity
 _atom_site_fract_x
 _atom_site_fract_y
 _atom_site_fract_z
 _atom_site_occupancy
  Li  Li0  1  0.561438  0.561438  0.000000  1
  Er  Er1  1  0.181598  0.181598  0.500000  1
  Er  Er2  1  0.817689  0.000544  0.500000  1
  Er  Er3  1  0.000544  0.817689  0.500000  1
  Er  Er4  1  0.329574  0.668360  0.000000  1
  Er  Er5  1  0.668360  0.329574  0.000000  1
  P  P6  1  0.810399  0.810399  0.000000  1
  P  P7  1  0.182949  0.000413  0.000000  1
  P  P8  1  0.000413  0.182949  0.000000  1
  P  P9  1  0.172828  0.480974  0.500000  1
  P  P10  1  0.519193  0.698430  0.500000  1
  P  P11  1  0.306953  0.831952  0.500000  1
  P  P12  1  0.698430  0.519193  0.500000  1
  P  P13  1  0.831952  0.306953  0.500000  1
  P  P14  1  0.480974  0.172828  0.500000  1
  P  P15  1  0.366661  0.366661  0.000000  1
  P  P16  1  0.625671  0.998724  0.000000  1
  P  P17  1  0.998724  0.625671  0.000000  1
  Ru  Ru18  1  0.445044  0.000304  0.000000  1
  Ru  Ru19  1  0.000304  0.445044  0.000000  1
  Ru  Ru20  1  0.713483  0.713483  0.500000  1
  Ru  Ru21  1  0.283109  0.001882  0.500000  1
  Ru  Ru22  1  0.001882  0.283109  0.500000  1
  Ru  Ru23  1  0.185731  0.379751  0.000000  1
  Ru  Ru24  1  0.620253  0.806805  0.000000  1
  Ru  Ru25  1  0.188581  0.815358  0.000000  1
  Ru  Ru26  1  0.806805  0.620253  0.000000  1
  Ru  Ru27  1  0.815358  0.188581  0.000000  1
  Ru  Ru28  1  0.379751  0.185731  0.000000  1
  Ru  Ru29  1  0.366888  0.490865  0.500000  1
  Ru  Ru30  1  0.508774  0.876771  0.500000  1
  Ru  Ru31  1  0.128717  0.635456  0.500000  1
  Ru  Ru32  1  0.876771  0.508774  0.500000  1
  Ru  Ru33  1  0.635456  0.128717  0.500000  1
  Ru  Ru34  1  0.490865  0.366888  0.500000  1
  Ru  Ru35  1  0.997878  0.997878  0.000000  1
