# generated using pymatgen
data_Ti5GaSnSb2
_symmetry_space_group_name_H-M   'P 1'
_cell_length_a   8.23861606
_cell_length_b   8.25865284
_cell_length_c   5.54358200
_cell_angle_alpha   90.00000000
_cell_angle_beta   90.00000000
_cell_angle_gamma   120.08048477
_symmetry_Int_Tables_number   1
_chemical_formula_structural   Ti5GaSnSb2
_chemical_formula_sum   'Ti10 Ga2 Sn2 Sb4'
_cell_volume   326.38620185
_cell_formula_units_Z   2
loop_
 _symmetry_equiv_pos_site_id
 _symmetry_equiv_pos_as_xyz
  1  'x, y, z'
loop_
 _atom_site_type_symbol
 _atom_site_label
 _atom_site_symmetry_multiplicity
 _atom_site_fract_x
 _atom_site_fract_y
 _atom_site_fract_z
 _atom_site_occupancy
  Ti  Ti0  1  0.668045  0.334466  0.498980  1
  Ti  Ti1  1  0.331955  0.666422  0.498980  1
  Ti  Ti2  1  0.331955  0.666422  0.001020  1
  Ti  Ti3  1  0.668045  0.334466  0.001020  1
  Ti  Ti4  1  0.730272  0.729074  0.250000  1
  Ti  Ti5  1  0.269728  0.998804  0.250000  1
  Ti  Ti6  1  0.000000  0.272879  0.250000  1
  Ti  Ti7  1  0.267769  0.267000  0.750000  1
  Ti  Ti8  1  0.732231  0.999232  0.750000  1
  Ti  Ti9  1  0.000000  0.731806  0.750000  1
  Ga  Ga10  1  0.000000  0.001398  0.003222  1
  Ga  Ga11  1  0.000000  0.001398  0.496778  1
  Sn  Sn12  1  0.385548  0.385398  0.250000  1
  Sn  Sn13  1  0.614452  0.999850  0.250000  1
  Sb  Sb14  1  0.000000  0.613205  0.250000  1
  Sb  Sb15  1  0.608670  0.609484  0.750000  1
  Sb  Sb16  1  0.391330  0.000814  0.750000  1
  Sb  Sb17  1  0.000000  0.387883  0.750000  1
