# generated using pymatgen
data_Tm2PRh6
_symmetry_space_group_name_H-M   'P 1'
_cell_length_a   5.93131571
_cell_length_b   5.93131650
_cell_length_c   5.93131700
_cell_angle_alpha   60.00000277
_cell_angle_beta   59.99999839
_cell_angle_gamma   60.00000653
_symmetry_Int_Tables_number   1
_chemical_formula_structural   Tm2PRh6
_chemical_formula_sum   'Tm2 P1 Rh6'
_cell_volume   147.54969051
_cell_formula_units_Z   1
loop_
 _symmetry_equiv_pos_site_id
 _symmetry_equiv_pos_as_xyz
  1  'x, y, z'
loop_
 _atom_site_type_symbol
 _atom_site_label
 _atom_site_symmetry_multiplicity
 _atom_site_fract_x
 _atom_site_fract_y
 _atom_site_fract_z
 _atom_site_occupancy
  Tm  Tm0  1  0.250000  0.250000  0.250000  1
  Tm  Tm1  1  0.750000  0.750000  0.750000  1
  P  P2  1  0.500000  0.500000  0.500000  1
  Rh  Rh3  1  0.766390  0.233609  0.233609  1
  Rh  Rh4  1  0.233609  0.766390  0.233609  1
  Rh  Rh5  1  0.766390  0.766390  0.233609  1
  Rh  Rh6  1  0.233609  0.233609  0.766390  1
  Rh  Rh7  1  0.766390  0.233609  0.766390  1
  Rh  Rh8  1  0.233609  0.766390  0.766390  1
