# generated using pymatgen
data_Hf10Si6O
_symmetry_space_group_name_H-M   'P 1'
_cell_length_a   7.85535100
_cell_length_b   7.85535080
_cell_length_c   5.49947500
_cell_angle_alpha   90.00000000
_cell_angle_beta   90.00000000
_cell_angle_gamma   120.00000506
_symmetry_Int_Tables_number   1
_chemical_formula_structural   Hf10Si6O
_chemical_formula_sum   'Hf10 Si6 O1'
_cell_volume   293.88879030
_cell_formula_units_Z   1
loop_
 _symmetry_equiv_pos_site_id
 _symmetry_equiv_pos_as_xyz
  1  'x, y, z'
loop_
 _atom_site_type_symbol
 _atom_site_label
 _atom_site_symmetry_multiplicity
 _atom_site_fract_x
 _atom_site_fract_y
 _atom_site_fract_z
 _atom_site_occupancy
  Hf  Hf0  1  0.000000  0.753698  0.252261  1
  Hf  Hf1  1  0.246302  0.246302  0.252261  1
  Hf  Hf2  1  0.753698  0.000000  0.252261  1
  Hf  Hf3  1  0.000000  0.246302  0.747739  1
  Hf  Hf4  1  0.753698  0.753698  0.747739  1
  Hf  Hf5  1  0.246302  0.000000  0.747739  1
  Hf  Hf6  1  0.333333  0.666667  0.500000  1
  Hf  Hf7  1  0.666667  0.333333  0.500000  1
  Hf  Hf8  1  0.666667  0.333333  0.000000  1
  Hf  Hf9  1  0.333333  0.666667  0.000000  1
  Si  Si10  1  0.000000  0.395696  0.245572  1
  Si  Si11  1  0.604304  0.604304  0.245572  1
  Si  Si12  1  0.395696  0.000000  0.245572  1
  Si  Si13  1  0.000000  0.604304  0.754428  1
  Si  Si14  1  0.395696  0.395696  0.754428  1
  Si  Si15  1  0.604304  0.000000  0.754428  1
  O  O16  1  0.000000  0.000000  0.500000  1
