# generated using pymatgen
data_Lu12Tc2Ni2SnRh
_symmetry_space_group_name_H-M   'P 1'
_cell_length_a   8.21494739
_cell_length_b   8.21494815
_cell_length_c   8.21494732
_cell_angle_alpha   113.93618385
_cell_angle_beta   110.09548639
_cell_angle_gamma   104.51865785
_symmetry_Int_Tables_number   1
_chemical_formula_structural   Lu12Tc2Ni2SnRh
_chemical_formula_sum   'Lu12 Tc2 Ni2 Sn1 Rh1'
_cell_volume   423.88066992
_cell_formula_units_Z   1
loop_
 _symmetry_equiv_pos_site_id
 _symmetry_equiv_pos_as_xyz
  1  'x, y, z'
loop_
 _atom_site_type_symbol
 _atom_site_label
 _atom_site_symmetry_multiplicity
 _atom_site_fract_x
 _atom_site_fract_y
 _atom_site_fract_z
 _atom_site_occupancy
  Lu  Lu0  1  0.667969  0.852582  0.184612  1
  Lu  Lu1  1  0.332031  0.516644  0.184612  1
  Lu  Lu2  1  0.821784  0.775782  0.597566  1
  Lu  Lu3  1  0.178216  0.775782  0.953997  1
  Lu  Lu4  1  0.821784  0.224218  0.046003  1
  Lu  Lu5  1  0.178216  0.224218  0.402434  1
  Lu  Lu6  1  0.667969  0.483356  0.815388  1
  Lu  Lu7  1  0.332031  0.147418  0.815388  1
  Lu  Lu8  1  0.576124  0.266859  0.309264  1
  Lu  Lu9  1  0.423876  0.733141  0.690736  1
  Lu  Lu10  1  0.042405  0.733141  0.309264  1
  Lu  Lu11  1  0.957595  0.266859  0.690736  1
  Tc  Tc12  1  0.329933  0.500000  0.829933  1
  Tc  Tc13  1  0.670067  0.500000  0.170067  1
  Ni  Ni14  1  0.882600  0.882600  0.000000  1
  Ni  Ni15  1  0.117400  0.117400  0.000000  1
  Sn  Sn16  1  0.500000  0.000000  0.500000  1
  Rh  Rh17  1  0.000000  0.500000  0.500000  1
