# generated using pymatgen
data_Y3LuNiAu3O14
_symmetry_space_group_name_H-M   'P 1'
_cell_length_a   7.30937043
_cell_length_b   7.29445974
_cell_length_c   7.29446000
_cell_angle_alpha   59.99998977
_cell_angle_beta   60.06744762
_cell_angle_gamma   60.06745092
_symmetry_Int_Tables_number   1
_chemical_formula_structural   Y3LuNiAu3O14
_chemical_formula_sum   'Y3 Lu1 Ni1 Au3 O14'
_cell_volume   275.29177085
_cell_formula_units_Z   1
loop_
 _symmetry_equiv_pos_site_id
 _symmetry_equiv_pos_as_xyz
  1  'x, y, z'
loop_
 _atom_site_type_symbol
 _atom_site_label
 _atom_site_symmetry_multiplicity
 _atom_site_fract_x
 _atom_site_fract_y
 _atom_site_fract_z
 _atom_site_occupancy
  Y  Y0  1  0.125000  0.125000  0.125000  1
  Y  Y1  1  0.125000  0.125000  0.625000  1
  Y  Y2  1  0.125000  0.625000  0.125000  1
  Lu  Lu3  1  0.625000  0.125000  0.125000  1
  Ni  Ni4  1  0.125000  0.625000  0.625000  1
  Au  Au5  1  0.625000  0.625000  0.625000  1
  Au  Au6  1  0.625000  0.625000  0.125000  1
  Au  Au7  1  0.625000  0.125000  0.625000  1
  O  O8  1  0.987840  0.004054  0.004054  1
  O  O9  1  0.262160  0.245946  0.245946  1
  O  O10  1  0.283328  0.276965  0.719854  1
  O  O11  1  0.543199  0.521961  0.967420  1
  O  O12  1  0.706801  0.282580  0.728039  1
  O  O13  1  0.706801  0.282580  0.282580  1
  O  O14  1  0.283328  0.719854  0.719854  1
  O  O15  1  0.283328  0.719854  0.276965  1
  O  O16  1  0.706801  0.728039  0.282580  1
  O  O17  1  0.966672  0.530146  0.530146  1
  O  O18  1  0.543199  0.967420  0.967420  1
  O  O19  1  0.966672  0.973035  0.530146  1
  O  O20  1  0.966672  0.530146  0.973035  1
  O  O21  1  0.543199  0.967420  0.521961  1
