# generated using pymatgen
data_La12Pr2Pd5Pt
_symmetry_space_group_name_H-M   'P 1'
_cell_length_a   10.35037617
_cell_length_b   10.35037613
_cell_length_c   6.59712100
_cell_angle_alpha   90.01042911
_cell_angle_beta   89.98957642
_cell_angle_gamma   120.09033559
_symmetry_Int_Tables_number   1
_chemical_formula_structural   La12Pr2Pd5Pt
_chemical_formula_sum   'La12 Pr2 Pd5 Pt1'
_cell_volume   611.50679551
_cell_formula_units_Z   1
loop_
 _symmetry_equiv_pos_site_id
 _symmetry_equiv_pos_as_xyz
  1  'x, y, z'
loop_
 _atom_site_type_symbol
 _atom_site_label
 _atom_site_symmetry_multiplicity
 _atom_site_fract_x
 _atom_site_fract_y
 _atom_site_fract_z
 _atom_site_occupancy
  La  La0  1  0.126896  0.873104  0.244951  1
  La  La1  1  0.747737  0.876857  0.244596  1
  La  La2  1  0.123143  0.252263  0.244596  1
  La  La3  1  0.872719  0.127281  0.750114  1
  La  La4  1  0.253802  0.126772  0.745309  1
  La  La5  1  0.873228  0.746198  0.745309  1
  La  La6  1  0.537968  0.462032  0.442486  1
  La  La7  1  0.921880  0.458793  0.441096  1
  La  La8  1  0.541207  0.078120  0.441096  1
  La  La9  1  0.461826  0.538174  0.942937  1
  La  La10  1  0.076963  0.538033  0.941135  1
  La  La11  1  0.461967  0.923037  0.941135  1
  Pr  Pr12  1  0.333246  0.666754  0.453215  1
  Pr  Pr13  1  0.667727  0.332273  0.956083  1
  Pd  Pd14  1  0.375334  0.187939  0.191707  1
  Pd  Pd15  1  0.812061  0.624666  0.191707  1
  Pd  Pd16  1  0.187760  0.812240  0.692224  1
  Pd  Pd17  1  0.624295  0.811877  0.691880  1
  Pd  Pd18  1  0.188123  0.375705  0.691880  1
  Pt  Pt19  1  0.812120  0.187880  0.192332  1
