# generated using pymatgen
data_Tb16CdNi2Hg3Ru2
_symmetry_space_group_name_H-M   'P 1'
_cell_length_a   9.59575108
_cell_length_b   9.59039565
_cell_length_c   9.63387700
_cell_angle_alpha   59.84989765
_cell_angle_beta   59.86846971
_cell_angle_gamma   59.97673460
_symmetry_Int_Tables_number   1
_chemical_formula_structural   Tb16CdNi2Hg3Ru2
_chemical_formula_sum   'Tb16 Cd1 Ni2 Hg3 Ru2'
_cell_volume   625.45753163
_cell_formula_units_Z   1
loop_
 _symmetry_equiv_pos_site_id
 _symmetry_equiv_pos_as_xyz
  1  'x, y, z'
loop_
 _atom_site_type_symbol
 _atom_site_label
 _atom_site_symmetry_multiplicity
 _atom_site_fract_x
 _atom_site_fract_y
 _atom_site_fract_z
 _atom_site_occupancy
  Tb  Tb0  1  0.351350  0.350625  0.343829  1
  Tb  Tb1  1  0.351350  0.350625  0.954197  1
  Tb  Tb2  1  0.352410  0.953086  0.347252  1
  Tb  Tb3  1  0.949691  0.353059  0.348625  1
  Tb  Tb4  1  0.810151  0.187294  0.191109  1
  Tb  Tb5  1  0.185958  0.811301  0.812217  1
  Tb  Tb6  1  0.185958  0.811301  0.190524  1
  Tb  Tb7  1  0.810151  0.187294  0.811447  1
  Tb  Tb8  1  0.187855  0.189197  0.811474  1
  Tb  Tb9  1  0.807773  0.808498  0.191865  1
  Tb  Tb10  1  0.937979  0.557778  0.566086  1
  Tb  Tb11  1  0.557257  0.938741  0.937671  1
  Tb  Tb12  1  0.557257  0.938741  0.566331  1
  Tb  Tb13  1  0.937979  0.557778  0.938156  1
  Tb  Tb14  1  0.564756  0.565477  0.934883  1
  Tb  Tb15  1  0.938805  0.939116  0.561040  1
  Cd  Cd16  1  0.259815  0.579630  0.580276  1
  Ni  Ni17  1  0.142261  0.575674  0.141033  1
  Ni  Ni18  1  0.575633  0.142800  0.140784  1
  Hg  Hg19  1  0.582406  0.584156  0.587601  1
  Hg  Hg20  1  0.582406  0.584156  0.245837  1
  Hg  Hg21  1  0.583995  0.244596  0.585703  1
  Ru  Ru22  1  0.143401  0.144538  0.137780  1
  Ru  Ru23  1  0.143401  0.144538  0.574280  1
