# generated using pymatgen
data_Tb3Ga6Ni7Ir2
_symmetry_space_group_name_H-M   'P 1'
_cell_length_a   4.14280800
_cell_length_b   8.80781749
_cell_length_c   8.93764902
_cell_angle_alpha   59.60112731
_cell_angle_beta   90.00000000
_cell_angle_gamma   90.00000000
_symmetry_Int_Tables_number   1
_chemical_formula_structural   Tb3Ga6Ni7Ir2
_chemical_formula_sum   'Tb3 Ga6 Ni7 Ir2'
_cell_volume   281.29201799
_cell_formula_units_Z   1
loop_
 _symmetry_equiv_pos_site_id
 _symmetry_equiv_pos_as_xyz
  1  'x, y, z'
loop_
 _atom_site_type_symbol
 _atom_site_label
 _atom_site_symmetry_multiplicity
 _atom_site_fract_x
 _atom_site_fract_y
 _atom_site_fract_z
 _atom_site_occupancy
  Tb  Tb0  1  0.500000  0.334597  0.334519  1
  Tb  Tb1  1  0.500000  0.664712  0.665340  1
  Tb  Tb2  1  0.000000  0.999242  0.991545  1
  Ga  Ga3  1  0.500000  0.728279  0.277613  1
  Ga  Ga4  1  0.500000  0.270740  0.006383  1
  Ga  Ga5  1  0.500000  0.999734  0.716711  1
  Ga  Ga6  1  0.000000  0.478935  0.528485  1
  Ga  Ga7  1  0.000000  0.521268  0.007840  1
  Ga  Ga8  1  0.000000  0.998775  0.473876  1
  Ni  Ni9  1  0.000000  0.197153  0.171991  1
  Ni  Ni10  1  0.000000  0.170804  0.615954  1
  Ni  Ni11  1  0.000000  0.621745  0.214548  1
  Ni  Ni12  1  0.000000  0.829522  0.787069  1
  Ni  Ni13  1  0.000000  0.378792  0.836443  1
  Ni  Ni14  1  0.000000  0.803997  0.367136  1
  Ni  Ni15  1  0.500000  0.000292  0.291768  1
  Ir  Ir16  1  0.500000  0.293456  0.710039  1
  Ir  Ir17  1  0.500000  0.707860  0.002837  1
