# generated using pymatgen
data_Ba8TbY3(CoO5)4
_symmetry_space_group_name_H-M   'P 1'
_cell_length_a   6.18274904
_cell_length_b   7.98922265
_cell_length_c   12.51370416
_cell_angle_alpha   91.39934491
_cell_angle_beta   89.99124478
_cell_angle_gamma   90.00927525
_symmetry_Int_Tables_number   1
_chemical_formula_structural   Ba8TbY3(CoO5)4
_chemical_formula_sum   'Ba8 Tb1 Y3 Co4 O20'
_cell_volume   617.93454821
_cell_formula_units_Z   1
loop_
 _symmetry_equiv_pos_site_id
 _symmetry_equiv_pos_as_xyz
  1  'x, y, z'
loop_
 _atom_site_type_symbol
 _atom_site_label
 _atom_site_symmetry_multiplicity
 _atom_site_fract_x
 _atom_site_fract_y
 _atom_site_fract_z
 _atom_site_occupancy
  Ba  Ba0  1  0.761562  0.490516  0.359434  1
  Ba  Ba1  1  0.738748  0.990124  0.860067  1
  Ba  Ba2  1  0.238693  0.510028  0.640211  1
  Ba  Ba3  1  0.261054  0.009367  0.140298  1
  Ba  Ba4  1  0.755346  0.993490  0.382301  1
  Ba  Ba5  1  0.744927  0.493816  0.882999  1
  Ba  Ba6  1  0.245110  0.006252  0.617342  1
  Ba  Ba7  1  0.254996  0.506448  0.117501  1
  Tb  Tb8  1  0.747496  0.262811  0.628659  1
  Y  Y9  1  0.752542  0.762460  0.128539  1
  Y  Y10  1  0.252694  0.737502  0.371430  1
  Y  Y11  1  0.247327  0.237437  0.871728  1
  Co  Co12  1  0.739490  0.745821  0.591321  1
  Co  Co13  1  0.760664  0.245644  0.091358  1
  Co  Co14  1  0.260872  0.254132  0.407993  1
  Co  Co15  1  0.239525  0.754233  0.908652  1
  O  O16  1  0.758567  0.970085  0.634014  1
  O  O17  1  0.741349  0.469816  0.133838  1
  O  O18  1  0.241245  0.029802  0.365845  1
  O  O19  1  0.258556  0.530238  0.866057  1
  O  O20  1  0.734827  0.054482  0.169166  1
  O  O21  1  0.765338  0.554905  0.669598  1
  O  O22  1  0.265119  0.945319  0.830747  1
  O  O23  1  0.234600  0.445745  0.330512  1
  O  O24  1  0.546897  0.746302  0.273071  1
  O  O25  1  0.951880  0.246203  0.774107  1
  O  O26  1  0.451240  0.253668  0.726480  1
  O  O27  1  0.046463  0.753452  0.227096  1
  O  O28  1  0.535929  0.229909  0.985217  1
  O  O29  1  0.964548  0.729951  0.485417  1
  O  O30  1  0.464656  0.769945  0.014608  1
  O  O31  1  0.036922  0.270127  0.514488  1
  O  O32  1  0.036166  0.236251  0.022322  1
  O  O33  1  0.464180  0.736179  0.522073  1
  O  O34  1  0.964441  0.763824  0.978281  1
  O  O35  1  0.536030  0.263719  0.477227  1
