# generated using pymatgen
data_TbEr3Al18NiRh5
_symmetry_space_group_name_H-M   'P 1'
_cell_length_a   7.53647482
_cell_length_b   7.53936071
_cell_length_c   9.41314699
_cell_angle_alpha   90.15912989
_cell_angle_beta   90.16443677
_cell_angle_gamma   119.69209979
_symmetry_Int_Tables_number   1
_chemical_formula_structural   TbEr3Al18NiRh5
_chemical_formula_sum   'Tb1 Er3 Al18 Ni1 Rh5'
_cell_volume   464.62276562
_cell_formula_units_Z   1
loop_
 _symmetry_equiv_pos_site_id
 _symmetry_equiv_pos_as_xyz
  1  'x, y, z'
loop_
 _atom_site_type_symbol
 _atom_site_label
 _atom_site_symmetry_multiplicity
 _atom_site_fract_x
 _atom_site_fract_y
 _atom_site_fract_z
 _atom_site_occupancy
  Tb  Tb0  1  0.994406  0.669319  0.749372  1
  Er  Er1  1  0.005786  0.330613  0.250493  1
  Er  Er2  1  0.669101  0.994350  0.749361  1
  Er  Er3  1  0.330790  0.005814  0.250523  1
  Al  Al4  1  0.123868  0.124485  0.747061  1
  Al  Al5  1  0.876198  0.876432  0.253012  1
  Al  Al6  1  0.999482  0.331534  0.574630  1
  Al  Al7  1  0.000476  0.667588  0.423941  1
  Al  Al8  1  0.999838  0.665853  0.076429  1
  Al  Al9  1  0.334955  0.000861  0.924870  1
  Al  Al10  1  0.000103  0.333408  0.924913  1
  Al  Al11  1  0.665888  0.999939  0.075642  1
  Al  Al12  1  0.667692  0.000544  0.424768  1
  Al  Al13  1  0.333136  0.000203  0.574746  1
  Al  Al14  1  0.332991  0.333025  0.051842  1
  Al  Al15  1  0.666435  0.667062  0.949055  1
  Al  Al16  1  0.668946  0.669607  0.549272  1
  Al  Al17  1  0.330287  0.330305  0.449817  1
  Al  Al18  1  0.339727  0.548568  0.749542  1
  Al  Al19  1  0.660854  0.451257  0.250437  1
  Al  Al20  1  0.547696  0.338187  0.749526  1
  Al  Al21  1  0.451465  0.661056  0.250462  1
  Ni  Ni22  1  0.000037  0.000295  0.499620  1
  Rh  Rh23  1  0.671932  0.327291  0.499464  1
  Rh  Rh24  1  0.327847  0.672197  0.499547  1
  Rh  Rh25  1  0.327735  0.672334  0.000462  1
  Rh  Rh26  1  0.672052  0.327329  0.000513  1
  Rh  Rh27  1  0.000276  0.000543  0.000678  1
