# generated using pymatgen
data_Yb6Y2BiPd24
_symmetry_space_group_name_H-M   'P 1'
_cell_length_a   8.31381202
_cell_length_b   8.31381205
_cell_length_c   8.31381200
_cell_angle_alpha   89.99557557
_cell_angle_beta   89.99557557
_cell_angle_gamma   89.99557523
_symmetry_Int_Tables_number   1
_chemical_formula_structural   Yb6Y2BiPd24
_chemical_formula_sum   'Yb6 Y2 Bi1 Pd24'
_cell_volume   574.64627888
_cell_formula_units_Z   1
loop_
 _symmetry_equiv_pos_site_id
 _symmetry_equiv_pos_as_xyz
  1  'x, y, z'
loop_
 _atom_site_type_symbol
 _atom_site_label
 _atom_site_symmetry_multiplicity
 _atom_site_fract_x
 _atom_site_fract_y
 _atom_site_fract_z
 _atom_site_occupancy
  Yb  Yb0  1  0.747782  0.747782  0.252992  1
  Yb  Yb1  1  0.747782  0.252992  0.747782  1
  Yb  Yb2  1  0.252218  0.252218  0.747008  1
  Yb  Yb3  1  0.252218  0.747008  0.252218  1
  Yb  Yb4  1  0.252992  0.747782  0.747782  1
  Yb  Yb5  1  0.747008  0.252218  0.252218  1
  Y  Y6  1  0.253950  0.253950  0.253950  1
  Y  Y7  1  0.746050  0.746050  0.746050  1
  Bi  Bi8  1  0.000000  0.000000  0.000000  1
  Pd  Pd9  1  0.268741  0.500097  0.998588  1
  Pd  Pd10  1  0.731259  0.499903  0.001412  1
  Pd  Pd11  1  0.998588  0.268741  0.500097  1
  Pd  Pd12  1  0.500097  0.268741  0.998588  1
  Pd  Pd13  1  0.001412  0.731259  0.499903  1
  Pd  Pd14  1  0.499903  0.731259  0.001412  1
  Pd  Pd15  1  0.500097  0.998588  0.268741  1
  Pd  Pd16  1  0.268741  0.998588  0.500097  1
  Pd  Pd17  1  0.499903  0.001412  0.731259  1
  Pd  Pd18  1  0.731259  0.001412  0.499903  1
  Pd  Pd19  1  0.998588  0.500097  0.268741  1
  Pd  Pd20  1  0.001412  0.499903  0.731259  1
  Pd  Pd21  1  0.256140  0.500852  0.500852  1
  Pd  Pd22  1  0.743860  0.499148  0.499148  1
  Pd  Pd23  1  0.500852  0.256140  0.500852  1
  Pd  Pd24  1  0.499148  0.743860  0.499148  1
  Pd  Pd25  1  0.500852  0.500852  0.256140  1
  Pd  Pd26  1  0.499148  0.499148  0.743860  1
  Pd  Pd27  1  0.318714  0.999367  0.999367  1
  Pd  Pd28  1  0.681286  0.000633  0.000633  1
  Pd  Pd29  1  0.999367  0.318714  0.999367  1
  Pd  Pd30  1  0.000633  0.681286  0.000633  1
  Pd  Pd31  1  0.999367  0.999367  0.318714  1
  Pd  Pd32  1  0.000633  0.000633  0.681286  1
