# generated using pymatgen
data_Gd5B(WC3)2
_symmetry_space_group_name_H-M   'P 1'
_cell_length_a   8.48783100
_cell_length_b   8.48783123
_cell_length_c   3.44718000
_cell_angle_alpha   90.00000000
_cell_angle_beta   90.00000000
_cell_angle_gamma   122.92311686
_symmetry_Int_Tables_number   1
_chemical_formula_structural   Gd5B(WC3)2
_chemical_formula_sum   'Gd5 B1 W2 C6'
_cell_volume   208.46191297
_cell_formula_units_Z   1
loop_
 _symmetry_equiv_pos_site_id
 _symmetry_equiv_pos_as_xyz
  1  'x, y, z'
loop_
 _atom_site_type_symbol
 _atom_site_label
 _atom_site_symmetry_multiplicity
 _atom_site_fract_x
 _atom_site_fract_y
 _atom_site_fract_z
 _atom_site_occupancy
  Gd  Gd0  1  0.500000  0.500000  0.000000  1
  Gd  Gd1  1  0.072907  0.323975  0.500000  1
  Gd  Gd2  1  0.927093  0.676025  0.500000  1
  Gd  Gd3  1  0.676025  0.927093  0.500000  1
  Gd  Gd4  1  0.323975  0.072907  0.500000  1
  B  B5  1  0.000000  0.000000  0.000000  1
  W  W6  1  0.712455  0.287545  0.000000  1
  W  W7  1  0.287545  0.712455  0.000000  1
  C  C8  1  0.629655  0.370345  0.500000  1
  C  C9  1  0.370345  0.629655  0.500000  1
  C  C10  1  0.181758  0.181758  0.000000  1
  C  C11  1  0.818242  0.818242  0.000000  1
  C  C12  1  0.000000  0.500000  0.000000  1
  C  C13  1  0.500000  0.000000  0.000000  1
