# generated using pymatgen
data_Sr6Mn2TcO12
_symmetry_space_group_name_H-M   'P 1'
_cell_length_a   8.91441593
_cell_length_b   8.91441671
_cell_length_c   6.84567644
_cell_angle_alpha   67.09678150
_cell_angle_beta   67.09678007
_cell_angle_gamma   36.85610765
_symmetry_Int_Tables_number   1
_chemical_formula_structural   Sr6Mn2TcO12
_chemical_formula_sum   'Sr6 Mn2 Tc1 O12'
_cell_volume   297.58050401
_cell_formula_units_Z   1
loop_
 _symmetry_equiv_pos_site_id
 _symmetry_equiv_pos_as_xyz
  1  'x, y, z'
loop_
 _atom_site_type_symbol
 _atom_site_label
 _atom_site_symmetry_multiplicity
 _atom_site_fract_x
 _atom_site_fract_y
 _atom_site_fract_z
 _atom_site_occupancy
  Sr  Sr0  1  0.875186  0.875186  0.717397  1
  Sr  Sr1  1  0.220056  0.220056  0.711815  1
  Sr  Sr2  1  0.548044  0.548044  0.707798  1
  Sr  Sr3  1  0.451956  0.451956  0.292202  1
  Sr  Sr4  1  0.779944  0.779944  0.288185  1
  Sr  Sr5  1  0.124814  0.124814  0.282603  1
  Mn  Mn6  1  0.668432  0.668432  0.998817  1
  Mn  Mn7  1  0.331568  0.331568  0.001183  1
  Tc  Tc8  1  0.000000  0.000000  0.000000  1
  O  O9  1  0.946443  0.946443  0.319267  1
  O  O10  1  0.281701  0.281701  0.318190  1
  O  O11  1  0.612717  0.612717  0.317652  1
  O  O12  1  0.387283  0.387283  0.682348  1
  O  O13  1  0.718299  0.718299  0.681810  1
  O  O14  1  0.053557  0.053557  0.680733  1
  O  O15  1  0.500000  0.000000  0.000000  1
  O  O16  1  0.833300  0.325186  0.000946  1
  O  O17  1  0.166700  0.674814  0.999054  1
  O  O18  1  0.000000  0.500000  0.000000  1
  O  O19  1  0.325186  0.833300  0.000946  1
  O  O20  1  0.674814  0.166700  0.999054  1
