# generated using pymatgen
data_Er6U2Si12IrPt3
_symmetry_space_group_name_H-M   'P 1'
_cell_length_a   8.15833300
_cell_length_b   8.15833220
_cell_length_c   7.88156900
_cell_angle_alpha   90.00000000
_cell_angle_beta   90.00000000
_cell_angle_gamma   119.99999917
_symmetry_Int_Tables_number   1
_chemical_formula_structural   Er6U2Si12IrPt3
_chemical_formula_sum   'Er6 U2 Si12 Ir1 Pt3'
_cell_volume   454.30355049
_cell_formula_units_Z   1
loop_
 _symmetry_equiv_pos_site_id
 _symmetry_equiv_pos_as_xyz
  1  'x, y, z'
loop_
 _atom_site_type_symbol
 _atom_site_label
 _atom_site_symmetry_multiplicity
 _atom_site_fract_x
 _atom_site_fract_y
 _atom_site_fract_z
 _atom_site_occupancy
  Er  Er0  1  0.492900  0.507100  0.252115  1
  Er  Er1  1  0.492900  0.985802  0.252115  1
  Er  Er2  1  0.014198  0.507100  0.252115  1
  Er  Er3  1  0.504002  0.495998  0.747903  1
  Er  Er4  1  0.991998  0.495998  0.747903  1
  Er  Er5  1  0.504002  0.008002  0.747903  1
  U  U6  1  0.000000  0.000000  0.249176  1
  U  U7  1  0.000000  0.000000  0.750995  1
  Si  Si8  1  0.835891  0.164109  0.496592  1
  Si  Si9  1  0.835891  0.671782  0.496592  1
  Si  Si10  1  0.328218  0.164109  0.496592  1
  Si  Si11  1  0.835099  0.164901  0.001779  1
  Si  Si12  1  0.835099  0.670198  0.001779  1
  Si  Si13  1  0.329802  0.164901  0.001779  1
  Si  Si14  1  0.164391  0.835609  0.998564  1
  Si  Si15  1  0.671218  0.835609  0.998564  1
  Si  Si16  1  0.164391  0.328782  0.998564  1
  Si  Si17  1  0.166215  0.833785  0.503673  1
  Si  Si18  1  0.667569  0.833785  0.503673  1
  Si  Si19  1  0.166215  0.332431  0.503673  1
  Ir  Ir20  1  0.333333  0.666667  0.513220  1
  Pt  Pt21  1  0.666667  0.333333  0.486648  1
  Pt  Pt22  1  0.666667  0.333333  0.014659  1
  Pt  Pt23  1  0.333333  0.666667  0.983423  1
