# generated using pymatgen
data_V12FeSi8Ni3C4
_symmetry_space_group_name_H-M   'P 1'
_cell_length_a   7.66281917
_cell_length_b   7.66281901
_cell_length_c   7.66281799
_cell_angle_alpha   59.79718793
_cell_angle_beta   59.79718399
_cell_angle_gamma   59.79718538
_symmetry_Int_Tables_number   1
_chemical_formula_structural   V12FeSi8Ni3C4
_chemical_formula_sum   'V12 Fe1 Si8 Ni3 C4'
_cell_volume   316.69885185
_cell_formula_units_Z   1
loop_
 _symmetry_equiv_pos_site_id
 _symmetry_equiv_pos_as_xyz
  1  'x, y, z'
loop_
 _atom_site_type_symbol
 _atom_site_label
 _atom_site_symmetry_multiplicity
 _atom_site_fract_x
 _atom_site_fract_y
 _atom_site_fract_z
 _atom_site_occupancy
  V  V0  1  0.812847  0.812847  0.188262  1
  V  V1  1  0.186829  0.186829  0.812739  1
  V  V2  1  0.812847  0.188262  0.812847  1
  V  V3  1  0.186829  0.812739  0.186829  1
  V  V4  1  0.188262  0.812847  0.812847  1
  V  V5  1  0.812739  0.186829  0.186829  1
  V  V6  1  0.437153  0.437153  0.061738  1
  V  V7  1  0.063171  0.063171  0.437261  1
  V  V8  1  0.437153  0.061738  0.437153  1
  V  V9  1  0.063171  0.437261  0.063171  1
  V  V10  1  0.061738  0.437153  0.437153  1
  V  V11  1  0.437261  0.063171  0.063171  1
  Fe  Fe12  1  0.625000  0.625000  0.625000  1
  Si  Si13  1  0.762324  0.413932  0.413932  1
  Si  Si14  1  0.413932  0.762324  0.413932  1
  Si  Si15  1  0.413932  0.413932  0.762324  1
  Si  Si16  1  0.411909  0.411909  0.411909  1
  Si  Si17  1  0.487676  0.836068  0.836068  1
  Si  Si18  1  0.836068  0.487676  0.836068  1
  Si  Si19  1  0.836068  0.836068  0.487676  1
  Si  Si20  1  0.838091  0.838091  0.838091  1
  Ni  Ni21  1  0.125000  0.625000  0.625000  1
  Ni  Ni22  1  0.625000  0.125000  0.625000  1
  Ni  Ni23  1  0.625000  0.625000  0.125000  1
  C  C24  1  0.625000  0.125000  0.125000  1
  C  C25  1  0.125000  0.625000  0.125000  1
  C  C26  1  0.125000  0.125000  0.625000  1
  C  C27  1  0.125000  0.125000  0.125000  1
