# generated using pymatgen
data_Mg2Zn3Pt
_symmetry_space_group_name_H-M   'P 1'
_cell_length_a   5.19773655
_cell_length_b   5.25500627
_cell_length_c   8.47980800
_cell_angle_alpha   90.00000000
_cell_angle_beta   90.00000000
_cell_angle_gamma   120.36514487
_symmetry_Int_Tables_number   1
_chemical_formula_structural   Mg2Zn3Pt
_chemical_formula_sum   'Mg4 Zn6 Pt2'
_cell_volume   199.84551356
_cell_formula_units_Z   2
loop_
 _symmetry_equiv_pos_site_id
 _symmetry_equiv_pos_as_xyz
  1  'x, y, z'
loop_
 _atom_site_type_symbol
 _atom_site_label
 _atom_site_symmetry_multiplicity
 _atom_site_fract_x
 _atom_site_fract_y
 _atom_site_fract_z
 _atom_site_occupancy
  Mg  Mg0  1  0.325571  0.658795  0.064501  1
  Mg  Mg1  1  0.674429  0.333222  0.564501  1
  Mg  Mg2  1  0.674429  0.333222  0.935499  1
  Mg  Mg3  1  0.325571  0.658795  0.435499  1
  Zn  Zn4  1  0.000000  0.002562  0.000000  1
  Zn  Zn5  1  0.000000  0.002562  0.500000  1
  Zn  Zn6  1  0.336857  0.167891  0.250000  1
  Zn  Zn7  1  0.663143  0.831034  0.750000  1
  Zn  Zn8  1  0.169465  0.832703  0.750000  1
  Zn  Zn9  1  0.830535  0.663238  0.250000  1
  Pt  Pt10  1  0.175499  0.345738  0.750000  1
  Pt  Pt11  1  0.824501  0.170238  0.250000  1
