# generated using pymatgen
data_Y2Er3Ti3(Co4As3)4
_symmetry_space_group_name_H-M   'P 1'
_cell_length_a   12.56781500
_cell_length_b   12.56781570
_cell_length_c   3.79312700
_cell_angle_alpha   90.00000000
_cell_angle_beta   90.00000000
_cell_angle_gamma   120.00000606
_symmetry_Int_Tables_number   1
_chemical_formula_structural   Y2Er3Ti3(Co4As3)4
_chemical_formula_sum   'Y2 Er3 Ti3 Co16 As12'
_cell_volume   518.85687010
_cell_formula_units_Z   1
loop_
 _symmetry_equiv_pos_site_id
 _symmetry_equiv_pos_as_xyz
  1  'x, y, z'
loop_
 _atom_site_type_symbol
 _atom_site_label
 _atom_site_symmetry_multiplicity
 _atom_site_fract_x
 _atom_site_fract_y
 _atom_site_fract_z
 _atom_site_occupancy
  Y  Y0  1  0.333333  0.666667  0.000000  1
  Y  Y1  1  0.666667  0.333333  0.000000  1
  Er  Er2  1  0.186051  0.186051  0.500000  1
  Er  Er3  1  0.813949  0.000000  0.500000  1
  Er  Er4  1  0.000000  0.813949  0.500000  1
  Ti  Ti5  1  0.563951  0.563951  0.000000  1
  Ti  Ti6  1  0.436049  0.000000  0.000000  1
  Ti  Ti7  1  0.000000  0.436049  0.000000  1
  Co  Co8  1  0.716923  0.716923  0.500000  1
  Co  Co9  1  0.283077  0.000000  0.500000  1
  Co  Co10  1  0.000000  0.283077  0.500000  1
  Co  Co11  1  0.177034  0.375503  0.000000  1
  Co  Co12  1  0.624497  0.801531  0.000000  1
  Co  Co13  1  0.198469  0.822966  0.000000  1
  Co  Co14  1  0.801531  0.624497  0.000000  1
  Co  Co15  1  0.822966  0.198469  0.000000  1
  Co  Co16  1  0.375503  0.177034  0.000000  1
  Co  Co17  1  0.355951  0.479494  0.500000  1
  Co  Co18  1  0.520506  0.876457  0.500000  1
  Co  Co19  1  0.123543  0.644049  0.500000  1
  Co  Co20  1  0.876457  0.520506  0.500000  1
  Co  Co21  1  0.644049  0.123543  0.500000  1
  Co  Co22  1  0.479494  0.355951  0.500000  1
  Co  Co23  1  0.000000  0.000000  0.000000  1
  As  As24  1  0.822292  0.822292  0.000000  1
  As  As25  1  0.177708  0.000000  0.000000  1
  As  As26  1  0.000000  0.177708  0.000000  1
  As  As27  1  0.168642  0.482833  0.500000  1
  As  As28  1  0.517167  0.685809  0.500000  1
  As  As29  1  0.314191  0.831358  0.500000  1
  As  As30  1  0.685809  0.517167  0.500000  1
  As  As31  1  0.831358  0.314191  0.500000  1
  As  As32  1  0.482833  0.168642  0.500000  1
  As  As33  1  0.359075  0.359075  0.000000  1
  As  As34  1  0.640925  0.000000  0.000000  1
  As  As35  1  0.000000  0.640925  0.000000  1
