# generated using pymatgen
data_Sm6HoTm13Pb16
_symmetry_space_group_name_H-M   'P 1'
_cell_length_a   8.19473559
_cell_length_b   15.59419111
_cell_length_c   8.26737033
_cell_angle_alpha   90.01878598
_cell_angle_beta   90.07766353
_cell_angle_gamma   90.54536436
_symmetry_Int_Tables_number   1
_chemical_formula_structural   Sm6HoTm13Pb16
_chemical_formula_sum   'Sm6 Ho1 Tm13 Pb16'
_cell_volume   1056.44061940
_cell_formula_units_Z   1
loop_
 _symmetry_equiv_pos_site_id
 _symmetry_equiv_pos_as_xyz
  1  'x, y, z'
loop_
 _atom_site_type_symbol
 _atom_site_label
 _atom_site_symmetry_multiplicity
 _atom_site_fract_x
 _atom_site_fract_y
 _atom_site_fract_z
 _atom_site_occupancy
  Sm  Sm0  1  0.967253  0.900808  0.822247  1
  Sm  Sm1  1  0.532755  0.098236  0.322412  1
  Sm  Sm2  1  0.036022  0.401249  0.176163  1
  Sm  Sm3  1  0.535814  0.401397  0.323974  1
  Sm  Sm4  1  0.032790  0.098254  0.177543  1
  Sm  Sm5  1  0.467621  0.901186  0.677604  1
  Ho  Ho6  1  0.962157  0.600267  0.823781  1
  Tm  Tm7  1  0.624972  0.621678  0.157676  1
  Tm  Tm8  1  0.127406  0.876976  0.342597  1
  Tm  Tm9  1  0.373117  0.122141  0.841801  1
  Tm  Tm10  1  0.876946  0.379094  0.658953  1
  Tm  Tm11  1  0.376996  0.379301  0.841005  1
  Tm  Tm12  1  0.873081  0.122096  0.658224  1
  Tm  Tm13  1  0.627082  0.876801  0.157188  1
  Tm  Tm14  1  0.124671  0.621696  0.342391  1
  Tm  Tm15  1  0.460697  0.600685  0.675387  1
  Tm  Tm16  1  0.792754  0.748719  0.495000  1
  Tm  Tm17  1  0.293000  0.748732  0.005118  1
  Tm  Tm18  1  0.207229  0.250735  0.506061  1
  Tm  Tm19  1  0.707184  0.250643  0.994002  1
  Pb  Pb20  1  0.716774  0.457747  0.963211  1
  Pb  Pb21  1  0.212554  0.043043  0.537741  1
  Pb  Pb22  1  0.287759  0.956366  0.037877  1
  Pb  Pb23  1  0.782538  0.544420  0.469531  1
  Pb  Pb24  1  0.284178  0.544273  0.031280  1
  Pb  Pb25  1  0.787896  0.956335  0.461684  1
  Pb  Pb26  1  0.712697  0.042932  0.962226  1
  Pb  Pb27  1  0.216640  0.458414  0.537839  1
  Pb  Pb28  1  0.430948  0.749545  0.372458  1
  Pb  Pb29  1  0.930625  0.749629  0.127918  1
  Pb  Pb30  1  0.570237  0.250380  0.628123  1
  Pb  Pb31  1  0.069829  0.250371  0.871666  1
  Pb  Pb32  1  0.652741  0.747637  0.845182  1
  Pb  Pb33  1  0.153801  0.748142  0.653898  1
  Pb  Pb34  1  0.345634  0.250063  0.152168  1
  Pb  Pb35  1  0.845601  0.250011  0.348073  1
