# generated using pymatgen
data_Pr3Nd5(Dy3Pb4)4
_symmetry_space_group_name_H-M   'P 1'
_cell_length_a   8.27124373
_cell_length_b   8.38853809
_cell_length_c   15.79423900
_cell_angle_alpha   90.00611307
_cell_angle_beta   90.02405784
_cell_angle_gamma   89.97143335
_symmetry_Int_Tables_number   1
_chemical_formula_structural   Pr3Nd5(Dy3Pb4)4
_chemical_formula_sum   'Pr3 Nd5 Dy12 Pb16'
_cell_volume   1095.86160239
_cell_formula_units_Z   1
loop_
 _symmetry_equiv_pos_site_id
 _symmetry_equiv_pos_as_xyz
  1  'x, y, z'
loop_
 _atom_site_type_symbol
 _atom_site_label
 _atom_site_symmetry_multiplicity
 _atom_site_fract_x
 _atom_site_fract_y
 _atom_site_fract_z
 _atom_site_occupancy
  Pr  Pr0  1  0.023556  0.177694  0.097328  1
  Pr  Pr1  1  0.476390  0.677607  0.902852  1
  Pr  Pr2  1  0.976424  0.822380  0.597126  1
  Nd  Nd3  1  0.476049  0.677484  0.597423  1
  Nd  Nd4  1  0.976124  0.822327  0.902490  1
  Nd  Nd5  1  0.523847  0.322371  0.097528  1
  Nd  Nd6  1  0.023849  0.177797  0.402436  1
  Nd  Nd7  1  0.523857  0.322407  0.402618  1
  Dy  Dy8  1  0.633574  0.158566  0.622212  1
  Dy  Dy9  1  0.133755  0.341503  0.877682  1
  Dy  Dy10  1  0.366265  0.841577  0.122506  1
  Dy  Dy11  1  0.866233  0.658352  0.377679  1
  Dy  Dy12  1  0.366278  0.841568  0.377629  1
  Dy  Dy13  1  0.866143  0.658433  0.122414  1
  Dy  Dy14  1  0.633833  0.158477  0.877659  1
  Dy  Dy15  1  0.133670  0.341523  0.622219  1
  Dy  Dy16  1  0.799527  0.495187  0.749925  1
  Dy  Dy17  1  0.299555  0.004899  0.749942  1
  Dy  Dy18  1  0.200569  0.504660  0.250125  1
  Dy  Dy19  1  0.700419  0.995197  0.250149  1
  Pb  Pb20  1  0.705526  0.960189  0.456432  1
  Pb  Pb21  1  0.205632  0.540394  0.043523  1
  Pb  Pb22  1  0.294354  0.040233  0.956623  1
  Pb  Pb23  1  0.793721  0.459354  0.543111  1
  Pb  Pb24  1  0.294626  0.040711  0.542988  1
  Pb  Pb25  1  0.794609  0.459351  0.956935  1
  Pb  Pb26  1  0.705423  0.959372  0.043165  1
  Pb  Pb27  1  0.206124  0.540159  0.456709  1
  Pb  Pb28  1  0.437857  0.371273  0.749879  1
  Pb  Pb29  1  0.937815  0.128766  0.750047  1
  Pb  Pb30  1  0.562116  0.628531  0.250011  1
  Pb  Pb31  1  0.062177  0.871243  0.250116  1
  Pb  Pb32  1  0.664616  0.849937  0.749726  1
  Pb  Pb33  1  0.164688  0.649918  0.750238  1
  Pb  Pb34  1  0.335864  0.150513  0.250162  1
  Pb  Pb35  1  0.834940  0.350049  0.250393  1
