# generated using pymatgen
data_Ho3Th(CuAs2)4
_symmetry_space_group_name_H-M   'P 1'
_cell_length_a   3.94994600
_cell_length_b   3.94229922
_cell_length_c   19.66787945
_cell_angle_alpha   90.05252346
_cell_angle_beta   90.00000000
_cell_angle_gamma   90.00000000
_symmetry_Int_Tables_number   1
_chemical_formula_structural   Ho3Th(CuAs2)4
_chemical_formula_sum   'Ho3 Th1 Cu4 As8'
_cell_volume   306.26551452
_cell_formula_units_Z   1
loop_
 _symmetry_equiv_pos_site_id
 _symmetry_equiv_pos_as_xyz
  1  'x, y, z'
loop_
 _atom_site_type_symbol
 _atom_site_label
 _atom_site_symmetry_multiplicity
 _atom_site_fract_x
 _atom_site_fract_y
 _atom_site_fract_z
 _atom_site_occupancy
  Ho  Ho0  1  0.750000  0.740082  0.384125  1
  Ho  Ho1  1  0.250000  0.260090  0.619567  1
  Ho  Ho2  1  0.750000  0.758480  0.878733  1
  Th  Th3  1  0.250000  0.242262  0.115368  1
  Cu  Cu4  1  0.750000  0.237395  0.253236  1
  Cu  Cu5  1  0.250000  0.737797  0.253439  1
  Cu  Cu6  1  0.750000  0.262945  0.749662  1
  Cu  Cu7  1  0.250000  0.762595  0.749535  1
  As  As8  1  0.250000  0.746513  0.995540  1
  As  As9  1  0.750000  0.740538  0.171947  1
  As  As10  1  0.250000  0.239542  0.332442  1
  As  As11  1  0.750000  0.245137  0.500917  1
  As  As12  1  0.250000  0.753861  0.500969  1
  As  As13  1  0.750000  0.761095  0.668970  1
  As  As14  1  0.250000  0.260458  0.829958  1
  As  As15  1  0.750000  0.251211  0.995595  1
