# generated using pymatgen
data_TbErB6(Ir2Rh)3
_symmetry_space_group_name_H-M   'P 1'
_cell_length_a   5.61912007
_cell_length_b   5.62620051
_cell_length_c   8.64087100
_cell_angle_alpha   90.00000000
_cell_angle_beta   90.00000000
_cell_angle_gamma   119.87550237
_symmetry_Int_Tables_number   1
_chemical_formula_structural   TbErB6(Ir2Rh)3
_chemical_formula_sum   'Tb1 Er1 B6 Ir6 Rh3'
_cell_volume   236.87276881
_cell_formula_units_Z   1
loop_
 _symmetry_equiv_pos_site_id
 _symmetry_equiv_pos_as_xyz
  1  'x, y, z'
loop_
 _atom_site_type_symbol
 _atom_site_label
 _atom_site_symmetry_multiplicity
 _atom_site_fract_x
 _atom_site_fract_y
 _atom_site_fract_z
 _atom_site_occupancy
  Tb  Tb0  1  0.000000  0.000000  0.701334  1
  Er  Er1  1  0.000000  0.000000  0.299517  1
  B  B2  1  0.667100  0.332474  0.000064  1
  B  B3  1  0.332900  0.667526  0.000064  1
  B  B4  1  0.666757  0.333314  0.667703  1
  B  B5  1  0.333243  0.666686  0.667703  1
  B  B6  1  0.333832  0.667104  0.331827  1
  B  B7  1  0.666168  0.332896  0.331827  1
  Ir  Ir8  1  0.500000  0.000000  0.836613  1
  Ir  Ir9  1  0.000000  0.500000  0.836889  1
  Ir  Ir10  1  0.500000  0.000000  0.164079  1
  Ir  Ir11  1  0.500000  0.500000  0.499345  1
  Ir  Ir12  1  0.500000  0.000000  0.499597  1
  Ir  Ir13  1  0.000000  0.500000  0.498591  1
  Rh  Rh14  1  0.500000  0.500000  0.836786  1
  Rh  Rh15  1  0.500000  0.500000  0.163791  1
  Rh  Rh16  1  0.000000  0.500000  0.164268  1
