# generated using pymatgen
data_Ho11ErGaCo4Ru
_symmetry_space_group_name_H-M   'P 1'
_cell_length_a   8.20601004
_cell_length_b   8.20843953
_cell_length_c   8.20843973
_cell_angle_alpha   106.81399034
_cell_angle_beta   110.54790495
_cell_angle_gamma   111.09739866
_symmetry_Int_Tables_number   1
_chemical_formula_structural   Ho11ErGaCo4Ru
_chemical_formula_sum   'Ho11 Er1 Ga1 Co4 Ru1'
_cell_volume   424.86692730
_cell_formula_units_Z   1
loop_
 _symmetry_equiv_pos_site_id
 _symmetry_equiv_pos_as_xyz
  1  'x, y, z'
loop_
 _atom_site_type_symbol
 _atom_site_label
 _atom_site_symmetry_multiplicity
 _atom_site_fract_x
 _atom_site_fract_y
 _atom_site_fract_z
 _atom_site_occupancy
  Ho  Ho0  1  0.692187  0.275208  0.967771  1
  Ho  Ho1  1  0.307712  0.725088  0.032491  1
  Ho  Ho2  1  0.692187  0.724416  0.416981  1
  Ho  Ho3  1  0.307712  0.275222  0.582622  1
  Ho  Ho4  1  0.803539  0.120297  0.316490  1
  Ho  Ho5  1  0.803539  0.487049  0.683242  1
  Ho  Ho6  1  0.196310  0.879822  0.683686  1
  Ho  Ho7  1  0.196310  0.512624  0.316488  1
  Ho  Ho8  1  0.598858  0.781410  0.817448  1
  Ho  Ho9  1  0.963989  0.781516  0.182475  1
  Ho  Ho10  1  0.036365  0.218608  0.817756  1
  Er  Er11  1  0.401201  0.219156  0.182046  1
  Ga  Ga12  1  0.499866  0.999958  0.499909  1
  Co  Co13  1  0.873482  0.499763  0.373718  1
  Co  Co14  1  0.126137  0.499968  0.626169  1
  Co  Co15  1  0.000479  0.112981  0.113060  1
  Co  Co16  1  0.000479  0.887419  0.887498  1
  Ru  Ru17  1  0.499646  0.499494  0.000152  1
