# generated using pymatgen
data_PuBr35
_symmetry_space_group_name_H-M   'P 1'
_cell_length_a   15.98197694
_cell_length_b   11.40028128
_cell_length_c   10.79188300
_cell_angle_alpha   88.81408278
_cell_angle_beta   66.02770512
_cell_angle_gamma   92.31545406
_symmetry_Int_Tables_number   1
_chemical_formula_structural   PuBr35
_chemical_formula_sum   'Pu1 Br35'
_cell_volume   1793.71352310
_cell_formula_units_Z   1
loop_
 _symmetry_equiv_pos_site_id
 _symmetry_equiv_pos_as_xyz
  1  'x, y, z'
loop_
 _atom_site_type_symbol
 _atom_site_label
 _atom_site_symmetry_multiplicity
 _atom_site_fract_x
 _atom_site_fract_y
 _atom_site_fract_z
 _atom_site_occupancy
  Pu  Pu0  1  0.245143  0.445183  0.429329  1
  Br  Br1  1  0.524631  0.267468  0.526352  1
  Br  Br2  1  0.753083  0.584700  0.575747  1
  Br  Br3  1  0.472553  0.693592  0.756837  1
  Br  Br4  1  0.053801  0.888902  0.846629  1
  Br  Br5  1  0.886049  0.159805  0.027663  1
  Br  Br6  1  0.648910  0.319793  0.287000  1
  Br  Br7  1  0.619577  0.337641  0.837335  1
  Br  Br8  1  0.333659  0.778556  0.734060  1
  Br  Br9  1  0.329903  0.574038  0.183038  1
  Br  Br10  1  0.654005  0.135544  0.813289  1
  Br  Br11  1  0.903715  0.548636  0.384936  1
  Br  Br12  1  0.057712  0.947487  0.616846  1
  Br  Br13  1  0.892972  0.120196  0.262005  1
  Br  Br14  1  0.879886  0.207098  0.805122  1
  Br  Br15  1  0.648371  0.045901  0.204709  1
  Br  Br16  1  0.029740  0.827234  0.091544  1
  Br  Br17  1  0.366702  0.996701  0.747844  1
  Br  Br18  1  0.893740  0.331438  0.328582  1
  Br  Br19  1  0.876214  0.923479  0.700646  1
  Br  Br20  1  0.886412  0.650958  0.812607  1
  Br  Br21  1  0.305939  0.008237  0.296614  1
  Br  Br22  1  0.359710  0.287529  0.288454  1
  Br  Br23  1  0.606645  0.611426  0.795305  1
  Br  Br24  1  0.122238  0.369523  0.339621  1
  Br  Br25  1  0.707566  0.903184  0.795695  1
  Br  Br26  1  0.864216  0.442193  0.817666  1
  Br  Br27  1  0.487502  0.026816  0.251238  1
  Br  Br28  1  0.170407  0.301463  0.647306  1
  Br  Br29  1  0.680839  0.769375  0.268137  1
  Br  Br30  1  0.854885  0.799590  0.183475  1
  Br  Br31  1  0.401233  0.216105  0.760730  1
  Br  Br32  1  0.370510  0.524359  0.512372  1
  Br  Br33  1  0.660378  0.543129  0.271045  1
  Br  Br34  1  0.138482  0.613348  0.557065  1
  Br  Br35  1  0.312669  0.799375  0.243159  1
