# generated using pymatgen
data_Tm4Be3(BRu2)5
_symmetry_space_group_name_H-M   'P 1'
_cell_length_a   3.11063500
_cell_length_b   8.76269596
_cell_length_c   10.27172209
_cell_angle_alpha   90.35040239
_cell_angle_beta   90.00000000
_cell_angle_gamma   90.00000000
_symmetry_Int_Tables_number   1
_chemical_formula_structural   Tm4Be3(BRu2)5
_chemical_formula_sum   'Tm4 Be3 B5 Ru10'
_cell_volume   279.97672953
_cell_formula_units_Z   1
loop_
 _symmetry_equiv_pos_site_id
 _symmetry_equiv_pos_as_xyz
  1  'x, y, z'
loop_
 _atom_site_type_symbol
 _atom_site_label
 _atom_site_symmetry_multiplicity
 _atom_site_fract_x
 _atom_site_fract_y
 _atom_site_fract_z
 _atom_site_occupancy
  Tm  Tm0  1  0.500000  0.842426  0.183261  1
  Tm  Tm1  1  0.500000  0.159701  0.815958  1
  Tm  Tm2  1  0.500000  0.659820  0.680812  1
  Tm  Tm3  1  0.500000  0.343135  0.317616  1
  Be  Be4  1  0.500000  0.963621  0.593960  1
  Be  Be5  1  0.500000  0.037810  0.406825  1
  Be  Be6  1  0.500000  0.845323  0.902339  1
  B  B7  1  0.500000  0.145975  0.098626  1
  B  B8  1  0.500000  0.653377  0.403140  1
  B  B9  1  0.500000  0.347764  0.596120  1
  B  B10  1  0.500000  0.465052  0.911667  1
  B  B11  1  0.500000  0.532249  0.089527  1
  Ru  Ru12  1  0.000000  0.644950  0.960297  1
  Ru  Ru13  1  0.000000  0.340472  0.045495  1
  Ru  Ru14  1  0.000000  0.832703  0.447611  1
  Ru  Ru15  1  0.000000  0.169526  0.548737  1
  Ru  Ru16  1  0.000000  0.008377  0.001490  1
  Ru  Ru17  1  0.000000  0.408399  0.760910  1
  Ru  Ru18  1  0.000000  0.592684  0.239188  1
  Ru  Ru19  1  0.000000  0.500962  0.499871  1
  Ru  Ru20  1  0.000000  0.904022  0.743983  1
  Ru  Ru21  1  0.000000  0.101654  0.252564  1
