# generated using pymatgen
data_AcGa3CoNi
_symmetry_space_group_name_H-M   'P 1'
_cell_length_a   6.43224161
_cell_length_b   6.43224123
_cell_length_c   5.28193500
_cell_angle_alpha   90.00000000
_cell_angle_beta   90.00000000
_cell_angle_gamma   104.76620676
_symmetry_Int_Tables_number   1
_chemical_formula_structural   AcGa3CoNi
_chemical_formula_sum   'Ac2 Ga6 Co2 Ni2'
_cell_volume   211.31604294
_cell_formula_units_Z   2
loop_
 _symmetry_equiv_pos_site_id
 _symmetry_equiv_pos_as_xyz
  1  'x, y, z'
loop_
 _atom_site_type_symbol
 _atom_site_label
 _atom_site_symmetry_multiplicity
 _atom_site_fract_x
 _atom_site_fract_y
 _atom_site_fract_z
 _atom_site_occupancy
  Ac  Ac0  1  0.342626  0.342626  0.250000  1
  Ac  Ac1  1  0.657374  0.657374  0.750000  1
  Ga  Ga2  1  0.915397  0.525409  0.248086  1
  Ga  Ga3  1  0.084603  0.474591  0.748086  1
  Ga  Ga4  1  0.063826  0.063826  0.750000  1
  Ga  Ga5  1  0.936174  0.936174  0.250000  1
  Ga  Ga6  1  0.474591  0.084603  0.751914  1
  Ga  Ga7  1  0.525409  0.915397  0.251914  1
  Co  Co8  1  0.799630  0.200370  0.000000  1
  Co  Co9  1  0.200370  0.799630  0.500000  1
  Ni  Ni10  1  0.203432  0.796568  0.000000  1
  Ni  Ni11  1  0.796568  0.203432  0.500000  1
