# generated using pymatgen
data_La4HgB4Rh9
_symmetry_space_group_name_H-M   'P 1'
_cell_length_a   5.56213600
_cell_length_b   5.56213729
_cell_length_c   21.08521700
_cell_angle_alpha   90.00000000
_cell_angle_beta   90.00000000
_cell_angle_gamma   119.99268933
_symmetry_Int_Tables_number   1
_chemical_formula_structural   La4HgB4Rh9
_chemical_formula_sum   'La8 Hg2 B8 Rh18'
_cell_volume   564.96819877
_cell_formula_units_Z   2
loop_
 _symmetry_equiv_pos_site_id
 _symmetry_equiv_pos_as_xyz
  1  'x, y, z'
loop_
 _atom_site_type_symbol
 _atom_site_label
 _atom_site_symmetry_multiplicity
 _atom_site_fract_x
 _atom_site_fract_y
 _atom_site_fract_z
 _atom_site_occupancy
  La  La0  1  0.666647  0.333353  0.525273  1
  La  La1  1  0.333353  0.666647  0.474727  1
  La  La2  1  0.333353  0.666647  0.025273  1
  La  La3  1  0.666647  0.333353  0.974727  1
  La  La4  1  0.666620  0.333380  0.675393  1
  La  La5  1  0.333380  0.666620  0.324607  1
  La  La6  1  0.333380  0.666620  0.175393  1
  La  La7  1  0.666620  0.333380  0.824607  1
  Hg  Hg8  1  0.000000  0.000000  0.500000  1
  Hg  Hg9  1  0.000000  0.000000  0.000000  1
  B  B10  1  0.999934  0.000066  0.676242  1
  B  B11  1  0.000066  0.999934  0.323758  1
  B  B12  1  0.000066  0.999934  0.176242  1
  B  B13  1  0.999934  0.000066  0.823758  1
  B  B14  1  0.666675  0.333325  0.324248  1
  B  B15  1  0.333325  0.666675  0.675752  1
  B  B16  1  0.333325  0.666675  0.824248  1
  B  B17  1  0.666675  0.333325  0.175752  1
  Rh  Rh18  1  0.166504  0.333021  0.750000  1
  Rh  Rh19  1  0.166474  0.833526  0.750000  1
  Rh  Rh20  1  0.666979  0.833496  0.750000  1
  Rh  Rh21  1  0.833496  0.666979  0.250000  1
  Rh  Rh22  1  0.833526  0.166474  0.250000  1
  Rh  Rh23  1  0.333021  0.166504  0.250000  1
  Rh  Rh24  1  0.167310  0.334107  0.609567  1
  Rh  Rh25  1  0.166933  0.833067  0.609616  1
  Rh  Rh26  1  0.665893  0.832690  0.609567  1
  Rh  Rh27  1  0.832690  0.665893  0.390433  1
  Rh  Rh28  1  0.833067  0.166933  0.390384  1
  Rh  Rh29  1  0.334107  0.167310  0.390433  1
  Rh  Rh30  1  0.832690  0.665893  0.109567  1
  Rh  Rh31  1  0.833067  0.166933  0.109616  1
  Rh  Rh32  1  0.334107  0.167310  0.109567  1
  Rh  Rh33  1  0.167310  0.334107  0.890433  1
  Rh  Rh34  1  0.166933  0.833067  0.890384  1
  Rh  Rh35  1  0.665893  0.832690  0.890433  1
