# generated using pymatgen
data_TbDy3Sn4Sb2Rh7
_symmetry_space_group_name_H-M   'P 1'
_cell_length_a   7.61770666
_cell_length_b   7.61443948
_cell_length_c   7.61443798
_cell_angle_alpha   109.32162983
_cell_angle_beta   109.55732300
_cell_angle_gamma   109.55732658
_symmetry_Int_Tables_number   1
_chemical_formula_structural   TbDy3Sn4Sb2Rh7
_chemical_formula_sum   'Tb1 Dy3 Sn4 Sb2 Rh7'
_cell_volume   339.90302295
_cell_formula_units_Z   1
loop_
 _symmetry_equiv_pos_site_id
 _symmetry_equiv_pos_as_xyz
  1  'x, y, z'
loop_
 _atom_site_type_symbol
 _atom_site_label
 _atom_site_symmetry_multiplicity
 _atom_site_fract_x
 _atom_site_fract_y
 _atom_site_fract_z
 _atom_site_occupancy
  Tb  Tb0  1  0.492268  0.493727  0.493727  1
  Dy  Dy1  1  0.492220  0.998485  0.998485  1
  Dy  Dy2  1  0.997676  0.498845  0.998845  1
  Dy  Dy3  1  0.997676  0.998845  0.498845  1
  Sn  Sn4  1  0.994260  0.314339  0.314339  1
  Sn  Sn5  1  0.687226  0.997465  0.690063  1
  Sn  Sn6  1  0.687226  0.690063  0.997465  1
  Sn  Sn7  1  0.994853  0.680197  0.680197  1
  Sb  Sb8  1  0.319313  0.997443  0.321580  1
  Sb  Sb9  1  0.319313  0.321580  0.997443  1
  Rh  Rh10  1  0.015041  0.007502  0.007502  1
  Rh  Rh11  1  0.502465  0.751397  0.251084  1
  Rh  Rh12  1  0.748592  0.501336  0.246982  1
  Rh  Rh13  1  0.250407  0.749335  0.501374  1
  Rh  Rh14  1  0.250407  0.501374  0.749335  1
  Rh  Rh15  1  0.502465  0.251084  0.751397  1
  Rh  Rh16  1  0.748592  0.246982  0.501336  1
