# generated using pymatgen
data_Er5Tm4Lu7(CdPt)4
_symmetry_space_group_name_H-M   'P 1'
_cell_length_a   9.54736189
_cell_length_b   9.53572381
_cell_length_c   9.53572321
_cell_angle_alpha   59.97772600
_cell_angle_beta   59.95961978
_cell_angle_gamma   59.95961736
_symmetry_Int_Tables_number   1
_chemical_formula_structural   Er5Tm4Lu7(CdPt)4
_chemical_formula_sum   'Er5 Tm4 Lu7 Cd4 Pt4'
_cell_volume   613.39081423
_cell_formula_units_Z   1
loop_
 _symmetry_equiv_pos_site_id
 _symmetry_equiv_pos_as_xyz
  1  'x, y, z'
loop_
 _atom_site_type_symbol
 _atom_site_label
 _atom_site_symmetry_multiplicity
 _atom_site_fract_x
 _atom_site_fract_y
 _atom_site_fract_z
 _atom_site_occupancy
  Er  Er0  1  0.562746  0.937254  0.937254  1
  Er  Er1  1  0.564948  0.935076  0.563910  1
  Er  Er2  1  0.936066  0.563910  0.935076  1
  Er  Er3  1  0.564948  0.563910  0.935076  1
  Er  Er4  1  0.936066  0.935076  0.563910  1
  Tm  Tm5  1  0.350665  0.352992  0.352992  1
  Tm  Tm6  1  0.352776  0.355500  0.938948  1
  Tm  Tm7  1  0.352776  0.938948  0.355500  1
  Tm  Tm8  1  0.943353  0.352992  0.352992  1
  Lu  Lu9  1  0.810292  0.189708  0.189708  1
  Lu  Lu10  1  0.188336  0.811664  0.811664  1
  Lu  Lu11  1  0.188666  0.810972  0.189445  1
  Lu  Lu12  1  0.810917  0.189445  0.810972  1
  Lu  Lu13  1  0.188666  0.189445  0.810972  1
  Lu  Lu14  1  0.810917  0.810972  0.189445  1
  Lu  Lu15  1  0.935507  0.564493  0.564493  1
  Cd  Cd16  1  0.583545  0.581447  0.581447  1
  Cd  Cd17  1  0.582193  0.581208  0.254409  1
  Cd  Cd18  1  0.582193  0.254409  0.581208  1
  Cd  Cd19  1  0.253563  0.581447  0.581447  1
  Pt  Pt20  1  0.144125  0.142630  0.142630  1
  Pt  Pt21  1  0.143063  0.142090  0.571783  1
  Pt  Pt22  1  0.143063  0.571783  0.142090  1
  Pt  Pt23  1  0.570613  0.142630  0.142630  1
