# generated using pymatgen
data_Dy7(HoIn4)5
_symmetry_space_group_name_H-M   'P 1'
_cell_length_a   6.50455925
_cell_length_b   10.42302704
_cell_length_c   12.27305206
_cell_angle_alpha   90.05455027
_cell_angle_beta   89.98905292
_cell_angle_gamma   90.00011027
_symmetry_Int_Tables_number   1
_chemical_formula_structural   Dy7(HoIn4)5
_chemical_formula_sum   'Dy7 Ho5 In20'
_cell_volume   832.07813536
_cell_formula_units_Z   1
loop_
 _symmetry_equiv_pos_site_id
 _symmetry_equiv_pos_as_xyz
  1  'x, y, z'
loop_
 _atom_site_type_symbol
 _atom_site_label
 _atom_site_symmetry_multiplicity
 _atom_site_fract_x
 _atom_site_fract_y
 _atom_site_fract_z
 _atom_site_occupancy
  Dy  Dy0  1  0.609693  0.006506  0.642122  1
  Dy  Dy1  1  0.109723  0.993367  0.857993  1
  Dy  Dy2  1  0.390350  0.506611  0.358023  1
  Dy  Dy3  1  0.109590  0.506569  0.858325  1
  Dy  Dy4  1  0.390319  0.993402  0.357802  1
  Dy  Dy5  1  0.890134  0.006679  0.142157  1
  Dy  Dy6  1  0.609738  0.493405  0.642012  1
  Ho  Ho7  1  0.349650  0.750162  0.056104  1
  Ho  Ho8  1  0.149688  0.750038  0.556051  1
  Ho  Ho9  1  0.649888  0.250134  0.943947  1
  Ho  Ho10  1  0.850063  0.249797  0.443934  1
  Ho  Ho11  1  0.890712  0.493365  0.141585  1
  In  In12  1  0.616067  0.749818  0.504956  1
  In  In13  1  0.883413  0.749534  0.005609  1
  In  In14  1  0.383834  0.250032  0.494937  1
  In  In15  1  0.115817  0.250130  0.995118  1
  In  In16  1  0.651021  0.749388  0.245599  1
  In  In17  1  0.849279  0.749898  0.745945  1
  In  In18  1  0.349198  0.250074  0.754192  1
  In  In19  1  0.150681  0.250465  0.254062  1
  In  In20  1  0.125404  0.749840  0.284609  1
  In  In21  1  0.374666  0.749876  0.784649  1
  In  In22  1  0.874582  0.250102  0.715343  1
  In  In23  1  0.626381  0.250732  0.215083  1
  In  In24  1  0.875566  0.543648  0.400760  1
  In  In25  1  0.624885  0.956043  0.901517  1
  In  In26  1  0.124732  0.043962  0.598603  1
  In  In27  1  0.375279  0.456302  0.098796  1
  In  In28  1  0.124553  0.456171  0.598651  1
  In  In29  1  0.375268  0.044101  0.098669  1
  In  In30  1  0.875210  0.955985  0.401340  1
  In  In31  1  0.624619  0.543861  0.901509  1
