# generated using pymatgen
data_Sr2NbRhO6
_symmetry_space_group_name_H-M   'P 1'
_cell_length_a   5.68368824
_cell_length_b   5.67751600
_cell_length_c   8.07108332
_cell_angle_alpha   90.00000000
_cell_angle_beta   90.03270626
_cell_angle_gamma   90.00000000
_symmetry_Int_Tables_number   1
_chemical_formula_structural   Sr2NbRhO6
_chemical_formula_sum   'Sr4 Nb2 Rh2 O12'
_cell_volume   260.44760891
_cell_formula_units_Z   2
loop_
 _symmetry_equiv_pos_site_id
 _symmetry_equiv_pos_as_xyz
  1  'x, y, z'
loop_
 _atom_site_type_symbol
 _atom_site_label
 _atom_site_symmetry_multiplicity
 _atom_site_fract_x
 _atom_site_fract_y
 _atom_site_fract_z
 _atom_site_occupancy
  Sr  Sr0  1  0.000753  0.982710  0.750347  1
  Sr  Sr1  1  0.499247  0.482710  0.749653  1
  Sr  Sr2  1  0.500753  0.517290  0.250347  1
  Sr  Sr3  1  0.999247  0.017290  0.249653  1
  Nb  Nb4  1  0.000000  0.500000  0.500000  1
  Nb  Nb5  1  0.500000  0.000000  0.000000  1
  Rh  Rh6  1  0.500000  0.000000  0.500000  1
  Rh  Rh7  1  0.000000  0.500000  0.000000  1
  O  O8  1  0.721123  0.284438  0.479538  1
  O  O9  1  0.778877  0.784438  0.020462  1
  O  O10  1  0.215359  0.220981  0.521080  1
  O  O11  1  0.284641  0.720981  0.978920  1
  O  O12  1  0.278877  0.715562  0.520462  1
  O  O13  1  0.221123  0.215562  0.979538  1
  O  O14  1  0.784641  0.779019  0.478920  1
  O  O15  1  0.715359  0.279019  0.021080  1
  O  O16  1  0.041265  0.494429  0.252677  1
  O  O17  1  0.458735  0.994429  0.247323  1
  O  O18  1  0.541265  0.005571  0.752677  1
  O  O19  1  0.958735  0.505571  0.747323  1
