# generated using pymatgen
data_Sr4TbEu3Hg8
_symmetry_space_group_name_H-M   'P 1'
_cell_length_a   7.92573700
_cell_length_b   7.90748800
_cell_length_c   7.83514800
_cell_angle_alpha   90.00000000
_cell_angle_beta   90.00067953
_cell_angle_gamma   90.00000000
_symmetry_Int_Tables_number   1
_chemical_formula_structural   Sr4TbEu3Hg8
_chemical_formula_sum   'Sr4 Tb1 Eu3 Hg8'
_cell_volume   491.04964672
_cell_formula_units_Z   1
loop_
 _symmetry_equiv_pos_site_id
 _symmetry_equiv_pos_as_xyz
  1  'x, y, z'
loop_
 _atom_site_type_symbol
 _atom_site_label
 _atom_site_symmetry_multiplicity
 _atom_site_fract_x
 _atom_site_fract_y
 _atom_site_fract_z
 _atom_site_occupancy
  Sr  Sr0  1  0.749455  0.249999  0.000045  1
  Sr  Sr1  1  0.249470  0.750001  0.499958  1
  Sr  Sr2  1  0.750533  0.249999  0.500038  1
  Sr  Sr3  1  0.250558  0.749999  0.999954  1
  Tb  Tb4  1  0.250225  0.250001  0.999999  1
  Eu  Eu5  1  0.749590  0.749999  0.000006  1
  Eu  Eu6  1  0.750414  0.750001  0.499994  1
  Eu  Eu7  1  0.249598  0.250003  0.500006  1
  Hg  Hg8  1  0.003277  0.496838  0.245855  1
  Hg  Hg9  1  0.003277  0.003166  0.245854  1
  Hg  Hg10  1  0.496929  0.003192  0.247633  1
  Hg  Hg11  1  0.496929  0.496807  0.247631  1
  Hg  Hg12  1  0.496762  0.496890  0.752381  1
  Hg  Hg13  1  0.496761  0.003110  0.752379  1
  Hg  Hg14  1  0.003110  0.003223  0.754133  1
  Hg  Hg15  1  0.003110  0.496777  0.754134  1
