# generated using pymatgen
data_CaPr2(NdIr)2
_symmetry_space_group_name_H-M   'P 1'
_cell_length_a   8.92084055
_cell_length_b   8.92084067
_cell_length_c   7.44326913
_cell_angle_alpha   83.40849167
_cell_angle_beta   83.40848907
_cell_angle_gamma   44.11804037
_symmetry_Int_Tables_number   1
_chemical_formula_structural   CaPr2(NdIr)2
_chemical_formula_sum   'Ca2 Pr4 Nd4 Ir4'
_cell_volume   409.17983024
_cell_formula_units_Z   2
loop_
 _symmetry_equiv_pos_site_id
 _symmetry_equiv_pos_as_xyz
  1  'x, y, z'
loop_
 _atom_site_type_symbol
 _atom_site_label
 _atom_site_symmetry_multiplicity
 _atom_site_fract_x
 _atom_site_fract_y
 _atom_site_fract_z
 _atom_site_occupancy
  Ca  Ca0  1  0.017211  0.799076  0.917604  1
  Ca  Ca1  1  0.200924  0.982789  0.582396  1
  Pr  Pr2  1  0.982118  0.202256  0.084545  1
  Pr  Pr3  1  0.797744  0.017882  0.415455  1
  Pr  Pr4  1  0.351493  0.212765  0.817742  1
  Pr  Pr5  1  0.787235  0.648507  0.682258  1
  Nd  Nd6  1  0.653136  0.786932  0.182939  1
  Nd  Nd7  1  0.213068  0.346864  0.317061  1
  Nd  Nd8  1  0.562649  0.437351  0.750000  1
  Nd  Nd9  1  0.430002  0.569998  0.250000  1
  Ir  Ir10  1  0.180276  0.588896  0.569537  1
  Ir  Ir11  1  0.411104  0.819724  0.930463  1
  Ir  Ir12  1  0.816917  0.403875  0.423888  1
  Ir  Ir13  1  0.596125  0.183083  0.076112  1
