# generated using pymatgen
data_Y2Lu3P12Ru17Pt2
_symmetry_space_group_name_H-M   'P 1'
_cell_length_a   12.61061705
_cell_length_b   12.51444220
_cell_length_c   3.97309800
_cell_angle_alpha   90.00000000
_cell_angle_beta   90.00000000
_cell_angle_gamma   120.24388897
_symmetry_Int_Tables_number   1
_chemical_formula_structural   Y2Lu3P12Ru17Pt2
_chemical_formula_sum   'Y2 Lu3 P12 Ru17 Pt2'
_cell_volume   541.67048576
_cell_formula_units_Z   1
loop_
 _symmetry_equiv_pos_site_id
 _symmetry_equiv_pos_as_xyz
  1  'x, y, z'
loop_
 _atom_site_type_symbol
 _atom_site_label
 _atom_site_symmetry_multiplicity
 _atom_site_fract_x
 _atom_site_fract_y
 _atom_site_fract_z
 _atom_site_occupancy
  Y  Y0  1  0.818587  0.817203  0.500000  1
  Y  Y1  1  0.183558  0.000042  0.500000  1
  Lu  Lu2  1  0.001236  0.182350  0.500000  1
  Lu  Lu3  1  0.664214  0.327220  0.000000  1
  Lu  Lu4  1  0.336948  0.672703  0.000000  1
  P  P5  1  0.997968  0.812786  0.000000  1
  P  P6  1  0.184827  0.187512  0.000000  1
  P  P7  1  0.818476  0.000578  0.000000  1
  P  P8  1  0.692768  0.170471  0.500000  1
  P  P9  1  0.816251  0.515432  0.500000  1
  P  P10  1  0.478328  0.299509  0.500000  1
  P  P11  1  0.178987  0.700402  0.500000  1
  P  P12  1  0.522516  0.829700  0.500000  1
  P  P13  1  0.300781  0.484471  0.500000  1
  P  P14  1  0.000384  0.364587  0.000000  1
  P  P15  1  0.635120  0.634770  0.000000  1
  P  P16  1  0.373153  0.999983  0.000000  1
  Ru  Ru17  1  0.555180  0.000038  0.000000  1
  Ru  Ru18  1  0.997557  0.709417  0.500000  1
  Ru  Ru19  1  0.287416  0.290343  0.500000  1
  Ru  Ru20  1  0.719081  0.000513  0.500000  1
  Ru  Ru21  1  0.809507  0.185209  0.000000  1
  Ru  Ru22  1  0.812650  0.617314  0.000000  1
  Ru  Ru23  1  0.377026  0.193366  0.000000  1
  Ru  Ru24  1  0.183782  0.806680  0.000000  1
  Ru  Ru25  1  0.623294  0.815057  0.000000  1
  Ru  Ru26  1  0.194177  0.381621  0.000000  1
  Ru  Ru27  1  0.869451  0.365035  0.500000  1
  Ru  Ru28  1  0.628965  0.504996  0.500000  1
  Ru  Ru29  1  0.492736  0.124788  0.500000  1
  Ru  Ru30  1  0.367992  0.875199  0.500000  1
  Ru  Ru31  1  0.504271  0.634821  0.500000  1
  Ru  Ru32  1  0.123936  0.494729  0.500000  1
  Ru  Ru33  1  0.002395  0.001366  0.000000  1
  Pt  Pt34  1  0.998178  0.549680  0.000000  1
  Pt  Pt35  1  0.448304  0.450110  0.000000  1
