# generated using pymatgen
data_Sr3CaPdO6
_symmetry_space_group_name_H-M   'P 1'
_cell_length_a   6.86937260
_cell_length_b   6.86937317
_cell_length_c   6.86937205
_cell_angle_alpha   91.37576664
_cell_angle_beta   91.37576765
_cell_angle_gamma   91.37576702
_symmetry_Int_Tables_number   1
_chemical_formula_structural   Sr3CaPdO6
_chemical_formula_sum   'Sr6 Ca2 Pd2 O12'
_cell_volume   323.86897921
_cell_formula_units_Z   2
loop_
 _symmetry_equiv_pos_site_id
 _symmetry_equiv_pos_as_xyz
  1  'x, y, z'
loop_
 _atom_site_type_symbol
 _atom_site_label
 _atom_site_symmetry_multiplicity
 _atom_site_fract_x
 _atom_site_fract_y
 _atom_site_fract_z
 _atom_site_occupancy
  Sr  Sr0  1  0.250000  0.618194  0.881806  1
  Sr  Sr1  1  0.881806  0.250000  0.618194  1
  Sr  Sr2  1  0.618194  0.881806  0.250000  1
  Sr  Sr3  1  0.750000  0.381806  0.118194  1
  Sr  Sr4  1  0.118194  0.750000  0.381806  1
  Sr  Sr5  1  0.381806  0.118194  0.750000  1
  Ca  Ca6  1  0.750000  0.750000  0.750000  1
  Ca  Ca7  1  0.250000  0.250000  0.250000  1
  Pd  Pd8  1  0.500000  0.500000  0.500000  1
  Pd  Pd9  1  0.000000  0.000000  0.000000  1
  O  O10  1  0.079552  0.287948  0.951333  1
  O  O11  1  0.951333  0.079552  0.287948  1
  O  O12  1  0.287948  0.951333  0.079552  1
  O  O13  1  0.420448  0.548667  0.212052  1
  O  O14  1  0.212052  0.420448  0.548667  1
  O  O15  1  0.548667  0.212052  0.420448  1
  O  O16  1  0.920448  0.712052  0.048667  1
  O  O17  1  0.048667  0.920448  0.712052  1
  O  O18  1  0.712052  0.048667  0.920448  1
  O  O19  1  0.579552  0.451333  0.787948  1
  O  O20  1  0.451333  0.787948  0.579552  1
  O  O21  1  0.787948  0.579552  0.451333  1
