# generated using pymatgen
data_TmZrMnOs3
_symmetry_space_group_name_H-M   'P 1'
_cell_length_a   5.16421085
_cell_length_b   5.29474429
_cell_length_c   8.68814000
_cell_angle_alpha   90.00000000
_cell_angle_beta   90.00000000
_cell_angle_gamma   120.83974492
_symmetry_Int_Tables_number   1
_chemical_formula_structural   TmZrMnOs3
_chemical_formula_sum   'Tm2 Zr2 Mn2 Os6'
_cell_volume   203.97123492
_cell_formula_units_Z   2
loop_
 _symmetry_equiv_pos_site_id
 _symmetry_equiv_pos_as_xyz
  1  'x, y, z'
loop_
 _atom_site_type_symbol
 _atom_site_label
 _atom_site_symmetry_multiplicity
 _atom_site_fract_x
 _atom_site_fract_y
 _atom_site_fract_z
 _atom_site_occupancy
  Tm  Tm0  1  0.337173  0.668587  0.063951  1
  Tm  Tm1  1  0.662827  0.331413  0.563951  1
  Zr  Zr2  1  0.661710  0.330855  0.934521  1
  Zr  Zr3  1  0.338290  0.669145  0.434521  1
  Mn  Mn4  1  0.669724  0.834862  0.750052  1
  Mn  Mn5  1  0.330276  0.165138  0.250052  1
  Os  Os6  1  0.000787  0.000394  0.500842  1
  Os  Os7  1  0.999213  0.999606  0.000842  1
  Os  Os8  1  0.170523  0.346761  0.750317  1
  Os  Os9  1  0.829477  0.176239  0.250317  1
  Os  Os10  1  0.829477  0.653239  0.250317  1
  Os  Os11  1  0.170523  0.823761  0.750317  1
