# generated using pymatgen
data_SrEu3Cr8O16
_symmetry_space_group_name_H-M   'P 1'
_cell_length_a   5.23961300
_cell_length_b   6.04850200
_cell_length_c   11.60006700
_cell_angle_alpha   90.00000155
_cell_angle_beta   89.99986168
_cell_angle_gamma   89.99981709
_symmetry_Int_Tables_number   1
_chemical_formula_structural   SrEu3Cr8O16
_chemical_formula_sum   'Sr1 Eu3 Cr8 O16'
_cell_volume   367.62711599
_cell_formula_units_Z   1
loop_
 _symmetry_equiv_pos_site_id
 _symmetry_equiv_pos_as_xyz
  1  'x, y, z'
loop_
 _atom_site_type_symbol
 _atom_site_label
 _atom_site_symmetry_multiplicity
 _atom_site_fract_x
 _atom_site_fract_y
 _atom_site_fract_z
 _atom_site_occupancy
  Sr  Sr0  1  0.455507  0.750002  0.750000  1
  Eu  Eu1  1  0.858570  0.249998  0.749999  1
  Eu  Eu2  1  0.141322  0.749987  0.250000  1
  Eu  Eu3  1  0.543279  0.249990  0.250003  1
  Cr  Cr4  1  0.505225  0.750002  0.008610  1
  Cr  Cr5  1  0.494813  0.250005  0.991762  1
  Cr  Cr6  1  0.999744  0.499775  0.499479  1
  Cr  Cr7  1  0.999736  0.000219  0.499477  1
  Cr  Cr8  1  0.505231  0.750005  0.491388  1
  Cr  Cr9  1  0.494809  0.249999  0.508251  1
  Cr  Cr10  1  0.999764  0.000243  0.000514  1
  Cr  Cr11  1  0.999758  0.499757  0.000515  1
  O  O12  1  0.840272  0.750000  0.406563  1
  O  O13  1  0.840283  0.750005  0.093431  1
  O  O14  1  0.159597  0.249997  0.593175  1
  O  O15  1  0.159610  0.250004  0.906819  1
  O  O16  1  0.174223  0.750000  0.583873  1
  O  O17  1  0.174232  0.750001  0.916125  1
  O  O18  1  0.823613  0.249997  0.413735  1
  O  O19  1  0.823620  0.250002  0.086265  1
  O  O20  1  0.666562  0.501435  0.595871  1
  O  O21  1  0.666558  0.998575  0.904132  1
  O  O22  1  0.335140  0.003391  0.402902  1
  O  O23  1  0.335134  0.496610  0.097101  1
  O  O24  1  0.335142  0.496611  0.402903  1
  O  O25  1  0.335136  0.003393  0.097100  1
  O  O26  1  0.666562  0.998565  0.595871  1
  O  O27  1  0.666558  0.501432  0.904133  1
