# generated using pymatgen
data_Tb2LuHf(Al3Ir)6
_symmetry_space_group_name_H-M   'P 1'
_cell_length_a   7.53564605
_cell_length_b   7.52945745
_cell_length_c   9.39999100
_cell_angle_alpha   90.00000000
_cell_angle_beta   90.00000000
_cell_angle_gamma   119.56292261
_symmetry_Int_Tables_number   1
_chemical_formula_structural   Tb2LuHf(Al3Ir)6
_chemical_formula_sum   'Tb2 Lu1 Hf1 Al18 Ir6'
_cell_volume   463.91477073
_cell_formula_units_Z   1
loop_
 _symmetry_equiv_pos_site_id
 _symmetry_equiv_pos_as_xyz
  1  'x, y, z'
loop_
 _atom_site_type_symbol
 _atom_site_label
 _atom_site_symmetry_multiplicity
 _atom_site_fract_x
 _atom_site_fract_y
 _atom_site_fract_z
 _atom_site_occupancy
  Tb  Tb0  1  0.005331  0.327150  0.750000  1
  Tb  Tb1  1  0.328685  0.006277  0.750000  1
  Lu  Lu2  1  0.672299  0.995980  0.250000  1
  Hf  Hf3  1  0.997641  0.673751  0.250000  1
  Al  Al4  1  0.125724  0.123713  0.250000  1
  Al  Al5  1  0.869941  0.869062  0.750000  1
  Al  Al6  1  0.999773  0.337529  0.080678  1
  Al  Al7  1  0.998884  0.664737  0.929593  1
  Al  Al8  1  0.998884  0.664737  0.570407  1
  Al  Al9  1  0.333535  0.998419  0.419203  1
  Al  Al10  1  0.999773  0.337529  0.419322  1
  Al  Al11  1  0.664390  0.997999  0.572913  1
  Al  Al12  1  0.664390  0.997999  0.927087  1
  Al  Al13  1  0.333535  0.998419  0.080797  1
  Al  Al14  1  0.333734  0.333917  0.549574  1
  Al  Al15  1  0.668754  0.667230  0.441429  1
  Al  Al16  1  0.668754  0.667230  0.058571  1
  Al  Al17  1  0.333734  0.333917  0.950426  1
  Al  Al18  1  0.337046  0.550378  0.250000  1
  Al  Al19  1  0.660640  0.452244  0.750000  1
  Al  Al20  1  0.555366  0.343959  0.250000  1
  Al  Al21  1  0.451012  0.659638  0.750000  1
  Ir  Ir22  1  0.673134  0.328372  0.001792  1
  Ir  Ir23  1  0.327606  0.672851  0.002565  1
  Ir  Ir24  1  0.327606  0.672851  0.497435  1
  Ir  Ir25  1  0.673134  0.328372  0.498208  1
  Ir  Ir26  1  0.998347  0.997872  0.002519  1
  Ir  Ir27  1  0.998347  0.997872  0.497481  1
