# generated using pymatgen
data_CaYb12Dy(HoSb6)2
_symmetry_space_group_name_H-M   'P 1'
_cell_length_a   9.40867166
_cell_length_b   9.40888433
_cell_length_c   9.40746875
_cell_angle_alpha   90.16178822
_cell_angle_beta   90.29204514
_cell_angle_gamma   89.66996550
_symmetry_Int_Tables_number   1
_chemical_formula_structural   CaYb12Dy(HoSb6)2
_chemical_formula_sum   'Ca1 Yb12 Dy1 Ho2 Sb12'
_cell_volume   832.76925716
_cell_formula_units_Z   1
loop_
 _symmetry_equiv_pos_site_id
 _symmetry_equiv_pos_as_xyz
  1  'x, y, z'
loop_
 _atom_site_type_symbol
 _atom_site_label
 _atom_site_symmetry_multiplicity
 _atom_site_fract_x
 _atom_site_fract_y
 _atom_site_fract_z
 _atom_site_occupancy
  Ca  Ca0  1  0.073144  0.573089  0.926912  1
  Yb  Yb1  1  0.824937  0.324961  0.175073  1
  Yb  Yb2  1  0.931097  0.927452  0.930656  1
  Yb  Yb3  1  0.826909  0.673780  0.325818  1
  Yb  Yb4  1  0.176662  0.822499  0.322587  1
  Yb  Yb5  1  0.173866  0.174292  0.173124  1
  Yb  Yb6  1  0.325166  0.825134  0.674864  1
  Yb  Yb7  1  0.069307  0.430971  0.572577  1
  Yb  Yb8  1  0.322461  0.177442  0.823361  1
  Yb  Yb9  1  0.674249  0.326890  0.826102  1
  Yb  Yb10  1  0.677359  0.676629  0.677504  1
  Yb  Yb11  1  0.569105  0.069173  0.430947  1
  Yb  Yb12  1  0.427368  0.569195  0.068964  1
  Dy  Dy13  1  0.572061  0.927423  0.070238  1
  Ho  Ho14  1  0.929774  0.071920  0.572549  1
  Ho  Ho15  1  0.427458  0.429786  0.428034  1
  Sb  Sb16  1  0.745785  0.368848  0.500057  1
  Sb  Sb17  1  0.869000  0.000083  0.254409  1
  Sb  Sb18  1  0.998944  0.758103  0.625561  1
  Sb  Sb19  1  0.245467  0.129303  0.499068  1
  Sb  Sb20  1  0.131416  0.498007  0.251878  1
  Sb  Sb21  1  0.998066  0.248104  0.868569  1
  Sb  Sb22  1  0.257454  0.874243  0.000900  1
  Sb  Sb23  1  0.374420  0.499059  0.742008  1
  Sb  Sb24  1  0.499864  0.246304  0.131356  1
  Sb  Sb25  1  0.748316  0.631171  0.001914  1
  Sb  Sb26  1  0.629442  0.000920  0.754147  1
  Sb  Sb27  1  0.500901  0.745218  0.370826  1
