# generated using pymatgen
data_Dy2MnCr3Co8P7
_symmetry_space_group_name_H-M   'P 1'
_cell_length_a   9.00981320
_cell_length_b   8.98624351
_cell_length_c   3.63134200
_cell_angle_alpha   90.00000000
_cell_angle_beta   90.00000000
_cell_angle_gamma   119.91287301
_symmetry_Int_Tables_number   1
_chemical_formula_structural   Dy2MnCr3Co8P7
_chemical_formula_sum   'Dy2 Mn1 Cr3 Co8 P7'
_cell_volume   254.84280334
_cell_formula_units_Z   1
loop_
 _symmetry_equiv_pos_site_id
 _symmetry_equiv_pos_as_xyz
  1  'x, y, z'
loop_
 _atom_site_type_symbol
 _atom_site_label
 _atom_site_symmetry_multiplicity
 _atom_site_fract_x
 _atom_site_fract_y
 _atom_site_fract_z
 _atom_site_occupancy
  Dy  Dy0  1  0.666085  0.332308  0.000000  1
  Dy  Dy1  1  0.333349  0.667728  0.500000  1
  Mn  Mn2  1  0.845407  0.120096  0.000000  1
  Cr  Cr3  1  0.120459  0.903114  0.500000  1
  Cr  Cr4  1  0.099318  0.217736  0.500000  1
  Cr  Cr5  1  0.784776  0.881605  0.500000  1
  Co  Co6  1  0.369583  0.939086  0.000000  1
  Co  Co7  1  0.061987  0.432589  0.000000  1
  Co  Co8  1  0.569302  0.628438  0.000000  1
  Co  Co9  1  0.879805  0.722173  0.000000  1
  Co  Co10  1  0.276877  0.157038  0.000000  1
  Co  Co11  1  0.949473  0.565504  0.500000  1
  Co  Co12  1  0.434741  0.385411  0.500000  1
  Co  Co13  1  0.612853  0.049543  0.500000  1
  P  P14  1  0.112656  0.704188  0.000000  1
  P  P15  1  0.298613  0.410883  0.000000  1
  P  P16  1  0.591571  0.888894  0.000000  1
  P  P17  1  0.709570  0.595523  0.500000  1
  P  P18  1  0.400580  0.110457  0.500000  1
  P  P19  1  0.881911  0.288775  0.500000  1
  P  P20  1  0.001083  0.998916  0.000000  1
