# generated using pymatgen
data_Dy10ZnSiPb6
_symmetry_space_group_name_H-M   'P 1'
_cell_length_a   9.24338805
_cell_length_b   9.24339017
_cell_length_c   6.69155612
_cell_angle_alpha   90.00865098
_cell_angle_beta   90.00827158
_cell_angle_gamma   119.98011378
_symmetry_Int_Tables_number   1
_chemical_formula_structural   Dy10ZnSiPb6
_chemical_formula_sum   'Dy10 Zn1 Si1 Pb6'
_cell_volume   495.23029073
_cell_formula_units_Z   1
loop_
 _symmetry_equiv_pos_site_id
 _symmetry_equiv_pos_as_xyz
  1  'x, y, z'
loop_
 _atom_site_type_symbol
 _atom_site_label
 _atom_site_symmetry_multiplicity
 _atom_site_fract_x
 _atom_site_fract_y
 _atom_site_fract_z
 _atom_site_occupancy
  Dy  Dy0  1  0.254071  0.999918  0.234215  1
  Dy  Dy1  1  0.745929  0.000082  0.765785  1
  Dy  Dy2  1  0.999918  0.254071  0.234216  1
  Dy  Dy3  1  0.000082  0.745929  0.765784  1
  Dy  Dy4  1  0.745875  0.745875  0.234223  1
  Dy  Dy5  1  0.254125  0.254125  0.765777  1
  Dy  Dy6  1  0.333392  0.666606  0.000000  1
  Dy  Dy7  1  0.666608  0.333394  0.000000  1
  Dy  Dy8  1  0.666753  0.333247  0.500000  1
  Dy  Dy9  1  0.333247  0.666753  0.500000  1
  Zn  Zn10  1  0.000000  0.000000  0.500000  1
  Si  Si11  1  0.000000  0.000000  0.000000  1
  Pb  Pb12  1  0.608483  0.999985  0.249304  1
  Pb  Pb13  1  0.391517  0.000015  0.750696  1
  Pb  Pb14  1  0.999985  0.608483  0.249304  1
  Pb  Pb15  1  0.000015  0.391517  0.750696  1
  Pb  Pb16  1  0.391594  0.391592  0.249367  1
  Pb  Pb17  1  0.608406  0.608408  0.750633  1
