# generated using pymatgen
data_Pr3BMoO9
_symmetry_space_group_name_H-M   'P 1'
_cell_length_a   8.81708900
_cell_length_b   8.81709093
_cell_length_c   5.61291700
_cell_angle_alpha   90.00000000
_cell_angle_beta   90.00000000
_cell_angle_gamma   119.99999652
_symmetry_Int_Tables_number   1
_chemical_formula_structural   Pr3BMoO9
_chemical_formula_sum   'Pr6 B2 Mo2 O18'
_cell_volume   377.89383893
_cell_formula_units_Z   2
loop_
 _symmetry_equiv_pos_site_id
 _symmetry_equiv_pos_as_xyz
  1  'x, y, z'
loop_
 _atom_site_type_symbol
 _atom_site_label
 _atom_site_symmetry_multiplicity
 _atom_site_fract_x
 _atom_site_fract_y
 _atom_site_fract_z
 _atom_site_occupancy
  Pr  Pr0  1  0.360134  0.085176  0.203076  1
  Pr  Pr1  1  0.914825  0.274957  0.203076  1
  Pr  Pr2  1  0.725044  0.639867  0.203076  1
  Pr  Pr3  1  0.274957  0.360134  0.703075  1
  Pr  Pr4  1  0.085176  0.725044  0.703075  1
  Pr  Pr5  1  0.639867  0.914825  0.703075  1
  B  B6  1  0.000000  0.000000  0.364827  1
  B  B7  1  0.000000  0.000000  0.864826  1
  Mo  Mo8  1  0.333335  0.666667  0.243121  1
  Mo  Mo9  1  0.666665  0.333332  0.743122  1
  O  O10  1  0.196582  0.473112  0.037673  1
  O  O11  1  0.276528  0.803416  0.037673  1
  O  O12  1  0.526887  0.723472  0.037675  1
  O  O13  1  0.128838  0.174975  0.356591  1
  O  O14  1  0.046137  0.871163  0.356591  1
  O  O15  1  0.825025  0.953863  0.356591  1
  O  O16  1  0.139213  0.516401  0.469745  1
  O  O17  1  0.483598  0.622812  0.469745  1
  O  O18  1  0.377187  0.860787  0.469745  1
  O  O19  1  0.803416  0.526888  0.537672  1
  O  O20  1  0.723471  0.196585  0.537674  1
  O  O21  1  0.473112  0.276529  0.537674  1
  O  O22  1  0.174976  0.046138  0.856592  1
  O  O23  1  0.953862  0.128838  0.856592  1
  O  O24  1  0.871163  0.825024  0.856592  1
  O  O25  1  0.622813  0.139214  0.969744  1
  O  O26  1  0.516402  0.377187  0.969744  1
  O  O27  1  0.860787  0.483599  0.969745  1
