# generated using pymatgen
data_Ca8TbPaIr4
_symmetry_space_group_name_H-M   'P 1'
_cell_length_a   6.70180836
_cell_length_b   7.37248543
_cell_length_c   8.77402841
_cell_angle_alpha   97.41291765
_cell_angle_beta   112.45214045
_cell_angle_gamma   89.99999549
_symmetry_Int_Tables_number   1
_chemical_formula_structural   Ca8TbPaIr4
_chemical_formula_sum   'Ca8 Tb1 Pa1 Ir4'
_cell_volume   396.73156179
_cell_formula_units_Z   1
loop_
 _symmetry_equiv_pos_site_id
 _symmetry_equiv_pos_as_xyz
  1  'x, y, z'
loop_
 _atom_site_type_symbol
 _atom_site_label
 _atom_site_symmetry_multiplicity
 _atom_site_fract_x
 _atom_site_fract_y
 _atom_site_fract_z
 _atom_site_occupancy
  Ca  Ca0  1  0.980060  0.921651  0.176604  1
  Ca  Ca1  1  0.803454  0.578349  0.823396  1
  Ca  Ca2  1  0.022494  0.082007  0.823896  1
  Ca  Ca3  1  0.198599  0.417993  0.176104  1
  Ca  Ca4  1  0.637446  0.815470  0.439230  1
  Ca  Ca5  1  0.198216  0.684530  0.560770  1
  Ca  Ca6  1  0.363814  0.183795  0.570105  1
  Ca  Ca7  1  0.793710  0.316205  0.429895  1
  Tb  Tb8  1  0.569061  0.250000  0.000000  1
  Pa  Pa9  1  0.439221  0.750000  0.000000  1
  Ir  Ir10  1  0.787837  0.582650  0.199797  1
  Ir  Ir11  1  0.588040  0.917350  0.800203  1
  Ir  Ir12  1  0.213733  0.449929  0.809419  1
  Ir  Ir13  1  0.404314  0.050071  0.190581  1
