# generated using pymatgen
data_Ho5Er11In4(NiRh)2
_symmetry_space_group_name_H-M   'P 1'
_cell_length_a   9.55249965
_cell_length_b   9.54852887
_cell_length_c   9.55346663
_cell_angle_alpha   59.99140963
_cell_angle_beta   59.98239246
_cell_angle_gamma   59.99031085
_symmetry_Int_Tables_number   1
_chemical_formula_structural   Ho5Er11In4(NiRh)2
_chemical_formula_sum   'Ho5 Er11 In4 Ni2 Rh2'
_cell_volume   616.00135816
_cell_formula_units_Z   1
loop_
 _symmetry_equiv_pos_site_id
 _symmetry_equiv_pos_as_xyz
  1  'x, y, z'
loop_
 _atom_site_type_symbol
 _atom_site_label
 _atom_site_symmetry_multiplicity
 _atom_site_fract_x
 _atom_site_fract_y
 _atom_site_fract_z
 _atom_site_occupancy
  Ho  Ho0  1  0.186559  0.191655  0.811100  1
  Ho  Ho1  1  0.439832  0.060154  0.060900  1
  Ho  Ho2  1  0.435875  0.062713  0.437469  1
  Ho  Ho3  1  0.063199  0.438379  0.063048  1
  Ho  Ho4  1  0.653282  0.048168  0.645877  1
  Er  Er5  1  0.189456  0.810111  0.810719  1
  Er  Er6  1  0.063036  0.061891  0.438490  1
  Er  Er7  1  0.810851  0.188832  0.188888  1
  Er  Er8  1  0.810399  0.810848  0.191772  1
  Er  Er9  1  0.652720  0.646158  0.048575  1
  Er  Er10  1  0.653831  0.651282  0.651310  1
  Er  Er11  1  0.063485  0.436617  0.436135  1
  Er  Er12  1  0.043223  0.651896  0.651285  1
  Er  Er13  1  0.810054  0.191619  0.811103  1
  Er  Er14  1  0.436959  0.438993  0.061713  1
  Er  Er15  1  0.187102  0.810360  0.192142  1
  In  In16  1  0.417481  0.745986  0.418195  1
  In  In17  1  0.418481  0.418630  0.745879  1
  In  In18  1  0.750430  0.417607  0.417165  1
  In  In19  1  0.415000  0.418483  0.416159  1
  Ni  Ni20  1  0.855809  0.425740  0.860082  1
  Ni  Ni21  1  0.859187  0.859065  0.423698  1
  Rh  Rh22  1  0.426096  0.856657  0.859530  1
  Rh  Rh23  1  0.857655  0.858157  0.858769  1
