# generated using pymatgen
data_Dy2Tm2B12MoRh
_symmetry_space_group_name_H-M   'P 1'
_cell_length_a   3.65172400
_cell_length_b   9.15075269
_cell_length_c   11.56334404
_cell_angle_alpha   90.39673509
_cell_angle_beta   90.00000000
_cell_angle_gamma   90.00000000
_symmetry_Int_Tables_number   1
_chemical_formula_structural   Dy2Tm2B12MoRh
_chemical_formula_sum   'Dy4 Tm4 B24 Mo2 Rh2'
_cell_volume   386.39170974
_cell_formula_units_Z   2
loop_
 _symmetry_equiv_pos_site_id
 _symmetry_equiv_pos_as_xyz
  1  'x, y, z'
loop_
 _atom_site_type_symbol
 _atom_site_label
 _atom_site_symmetry_multiplicity
 _atom_site_fract_x
 _atom_site_fract_y
 _atom_site_fract_z
 _atom_site_occupancy
  Dy  Dy0  1  0.500000  0.319300  0.412343  1
  Dy  Dy1  1  0.500000  0.680700  0.587657  1
  Dy  Dy2  1  0.500000  0.175355  0.916665  1
  Dy  Dy3  1  0.500000  0.824645  0.083335  1
  Tm  Tm4  1  0.500000  0.443464  0.127086  1
  Tm  Tm5  1  0.500000  0.556536  0.872914  1
  Tm  Tm6  1  0.500000  0.054768  0.628161  1
  Tm  Tm7  1  0.500000  0.945232  0.371839  1
  B  B8  1  0.000000  0.104791  0.472486  1
  B  B9  1  0.000000  0.895209  0.527514  1
  B  B10  1  0.000000  0.396916  0.970932  1
  B  B11  1  0.000000  0.603084  0.029068  1
  B  B12  1  0.000000  0.132030  0.317815  1
  B  B13  1  0.000000  0.867970  0.682185  1
  B  B14  1  0.000000  0.368936  0.815975  1
  B  B15  1  0.000000  0.631064  0.184025  1
  B  B16  1  0.000000  0.052235  0.066359  1
  B  B17  1  0.000000  0.947765  0.933641  1
  B  B18  1  0.000000  0.445568  0.565972  1
  B  B19  1  0.000000  0.554432  0.434028  1
  B  B20  1  0.000000  0.483698  0.287966  1
  B  B21  1  0.000000  0.516302  0.712034  1
  B  B22  1  0.000000  0.020144  0.785887  1
  B  B23  1  0.000000  0.979856  0.214113  1
  B  B24  1  0.000000  0.251162  0.080018  1
  B  B25  1  0.000000  0.748838  0.919982  1
  B  B26  1  0.000000  0.249707  0.579756  1
  B  B27  1  0.000000  0.750293  0.420244  1
  B  B28  1  0.000000  0.295961  0.236554  1
  B  B29  1  0.000000  0.704039  0.763446  1
  B  B30  1  0.000000  0.208712  0.734286  1
  B  B31  1  0.000000  0.791288  0.265714  1
  Mo  Mo32  1  0.500000  0.139856  0.181665  1
  Mo  Mo33  1  0.500000  0.860144  0.818335  1
  Rh  Rh34  1  0.500000  0.361247  0.678692  1
  Rh  Rh35  1  0.500000  0.638753  0.321308  1
