# generated using pymatgen
data_Sc22HgOs7
_symmetry_space_group_name_H-M   'P 1'
_cell_length_a   9.54737727
_cell_length_b   9.54737748
_cell_length_c   9.52194700
_cell_angle_alpha   60.08806898
_cell_angle_beta   60.08806825
_cell_angle_gamma   59.58641862
_symmetry_Int_Tables_number   1
_chemical_formula_structural   Sc22HgOs7
_chemical_formula_sum   'Sc22 Hg1 Os7'
_cell_volume   612.59908540
_cell_formula_units_Z   1
loop_
 _symmetry_equiv_pos_site_id
 _symmetry_equiv_pos_as_xyz
  1  'x, y, z'
loop_
 _atom_site_type_symbol
 _atom_site_label
 _atom_site_symmetry_multiplicity
 _atom_site_fract_x
 _atom_site_fract_y
 _atom_site_fract_z
 _atom_site_occupancy
  Sc  Sc0  1  0.844489  0.844489  0.842976  1
  Sc  Sc1  1  0.529109  0.139921  0.165484  1
  Sc  Sc2  1  0.155511  0.155511  0.531954  1
  Sc  Sc3  1  0.139921  0.529109  0.165484  1
  Sc  Sc4  1  0.844489  0.844489  0.468046  1
  Sc  Sc5  1  0.860079  0.470891  0.834516  1
  Sc  Sc6  1  0.470891  0.860079  0.834516  1
  Sc  Sc7  1  0.155511  0.155511  0.157024  1
  Sc  Sc8  1  0.196275  0.803725  0.198052  1
  Sc  Sc9  1  0.196275  0.803725  0.801948  1
  Sc  Sc10  1  0.803725  0.196275  0.198052  1
  Sc  Sc11  1  0.803421  0.803421  0.196579  1
  Sc  Sc12  1  0.196579  0.196579  0.803421  1
  Sc  Sc13  1  0.803725  0.196275  0.801948  1
  Sc  Sc14  1  0.376273  0.376273  0.398486  1
  Sc  Sc15  1  0.150372  0.622118  0.613755  1
  Sc  Sc16  1  0.622118  0.150372  0.613755  1
  Sc  Sc17  1  0.623727  0.623727  0.151032  1
  Sc  Sc18  1  0.377882  0.849628  0.386245  1
  Sc  Sc19  1  0.376273  0.376273  0.848968  1
  Sc  Sc20  1  0.849628  0.377882  0.386245  1
  Sc  Sc21  1  0.623727  0.623727  0.601514  1
  Hg  Hg22  1  0.500000  0.500000  0.000000  1
  Os  Os23  1  0.000000  0.000000  0.500000  1
  Os  Os24  1  0.500000  0.000000  0.500000  1
  Os  Os25  1  0.000000  0.500000  0.500000  1
  Os  Os26  1  0.500000  0.000000  0.000000  1
  Os  Os27  1  0.000000  0.500000  0.000000  1
  Os  Os28  1  0.500000  0.500000  0.500000  1
  Os  Os29  1  0.000000  0.000000  0.000000  1
