# generated using pymatgen
data_Ti12GeSe3
_symmetry_space_group_name_H-M   'P 1'
_cell_length_a   7.64105087
_cell_length_b   7.63336905
_cell_length_c   7.65345075
_cell_angle_alpha   96.59808766
_cell_angle_beta   96.29329407
_cell_angle_gamma   141.03958127
_symmetry_Int_Tables_number   1
_chemical_formula_structural   Ti12GeSe3
_chemical_formula_sum   'Ti12 Ge1 Se3'
_cell_volume   264.30701517
_cell_formula_units_Z   1
loop_
 _symmetry_equiv_pos_site_id
 _symmetry_equiv_pos_as_xyz
  1  'x, y, z'
loop_
 _atom_site_type_symbol
 _atom_site_label
 _atom_site_symmetry_multiplicity
 _atom_site_fract_x
 _atom_site_fract_y
 _atom_site_fract_z
 _atom_site_occupancy
  Ti  Ti0  1  0.318298  0.296123  0.187555  1
  Ti  Ti1  1  0.108758  0.132967  0.814060  1
  Ti  Ti2  1  0.868466  0.679975  0.978508  1
  Ti  Ti3  1  0.703132  0.890329  0.021499  1
  Ti  Ti4  1  0.001592  0.338201  0.379184  1
  Ti  Ti5  1  0.952054  0.618446  0.617459  1
  Ti  Ti6  1  0.381877  0.002125  0.337578  1
  Ti  Ti7  1  0.662196  0.042053  0.667047  1
  Ti  Ti8  1  0.975479  0.943076  0.400131  1
  Ti  Ti9  1  0.542185  0.572438  0.597137  1
  Ti  Ti10  1  0.424826  0.025290  0.967355  1
  Ti  Ti11  1  0.062654  0.460675  0.032908  1
  Ge  Ge12  1  0.230682  0.555611  0.742285  1
  Se  Se13  1  0.513044  0.767122  0.325749  1
  Se  Se14  1  0.441291  0.186646  0.677183  1
  Se  Se15  1  0.813466  0.488923  0.254363  1
