# generated using pymatgen
data_Ta9Mn(SiB2)2
_symmetry_space_group_name_H-M   'P 1'
_cell_length_a   6.13690022
_cell_length_b   6.13690095
_cell_length_c   7.24536168
_cell_angle_alpha   115.05610317
_cell_angle_beta   115.05610217
_cell_angle_gamma   89.99999745
_symmetry_Int_Tables_number   1
_chemical_formula_structural   Ta9Mn(SiB2)2
_chemical_formula_sum   'Ta9 Mn1 Si2 B4'
_cell_volume   218.51648024
_cell_formula_units_Z   1
loop_
 _symmetry_equiv_pos_site_id
 _symmetry_equiv_pos_as_xyz
  1  'x, y, z'
loop_
 _atom_site_type_symbol
 _atom_site_label
 _atom_site_symmetry_multiplicity
 _atom_site_fract_x
 _atom_site_fract_y
 _atom_site_fract_z
 _atom_site_occupancy
  Ta  Ta0  1  0.000000  0.000000  0.000000  1
  Ta  Ta1  1  0.036204  0.524527  0.723842  1
  Ta  Ta2  1  0.687639  0.199316  0.723842  1
  Ta  Ta3  1  0.199316  0.036204  0.723842  1
  Ta  Ta4  1  0.524527  0.687639  0.723842  1
  Ta  Ta5  1  0.963796  0.475473  0.276158  1
  Ta  Ta6  1  0.312361  0.800684  0.276158  1
  Ta  Ta7  1  0.800684  0.963796  0.276158  1
  Ta  Ta8  1  0.475473  0.312361  0.276158  1
  Mn  Mn9  1  0.500000  0.500000  0.000000  1
  Si  Si10  1  0.242647  0.242647  0.485293  1
  Si  Si11  1  0.757353  0.757353  0.514707  1
  B  B12  1  0.381826  0.877842  0.000000  1
  B  B13  1  0.618174  0.122158  0.000000  1
  B  B14  1  0.122158  0.381826  0.000000  1
  B  B15  1  0.877842  0.618174  0.000000  1
