# generated using pymatgen
data_Sr8Si13Hg3
_symmetry_space_group_name_H-M   'P 1'
_cell_length_a   11.93094731
_cell_length_b   10.31331292
_cell_length_c   8.43133699
_cell_angle_alpha   78.26944481
_cell_angle_beta   57.74640159
_cell_angle_gamma   44.40809076
_symmetry_Int_Tables_number   1
_chemical_formula_structural   Sr8Si13Hg3
_chemical_formula_sum   'Sr8 Si13 Hg3'
_cell_volume   585.54498152
_cell_formula_units_Z   1
loop_
 _symmetry_equiv_pos_site_id
 _symmetry_equiv_pos_as_xyz
  1  'x, y, z'
loop_
 _atom_site_type_symbol
 _atom_site_label
 _atom_site_symmetry_multiplicity
 _atom_site_fract_x
 _atom_site_fract_y
 _atom_site_fract_z
 _atom_site_occupancy
  Sr  Sr0  1  0.862716  0.880803  0.134290  1
  Sr  Sr1  1  0.134585  0.120867  0.862764  1
  Sr  Sr2  1  0.373836  0.368973  0.135052  1
  Sr  Sr3  1  0.134406  0.124468  0.373986  1
  Sr  Sr4  1  0.619080  0.633148  0.379002  1
  Sr  Sr5  1  0.377621  0.369750  0.619463  1
  Sr  Sr6  1  0.628257  0.628199  0.869723  1
  Sr  Sr7  1  0.870609  0.872434  0.627907  1
  Si  Si8  1  0.413752  0.087583  0.417259  1
  Si  Si9  1  0.654528  0.335915  0.186597  1
  Si  Si10  1  0.825987  0.186317  0.334043  1
  Si  Si11  1  0.185420  0.823670  0.655303  1
  Si  Si12  1  0.333157  0.650910  0.826345  1
  Si  Si13  1  0.582775  0.913579  0.582987  1
  Si  Si14  1  0.908179  0.590974  0.907839  1
  Si  Si15  1  0.659868  0.341883  0.659048  1
  Si  Si16  1  0.341816  0.659843  0.338399  1
  Si  Si17  1  0.914700  0.596413  0.428137  1
  Si  Si18  1  0.079938  0.411618  0.586994  1
  Si  Si19  1  0.428616  0.065220  0.912675  1
  Si  Si20  1  0.587387  0.918565  0.081184  1
  Hg  Hg21  1  0.163820  0.832853  0.168482  1
  Hg  Hg22  1  0.835264  0.168141  0.831017  1
  Hg  Hg23  1  0.083683  0.417876  0.081504  1
