# generated using pymatgen
data_Sc6NiB4Ir8Rh
_symmetry_space_group_name_H-M   'P 1'
_cell_length_a   3.11166700
_cell_length_b   9.49173284
_cell_length_c   9.49173319
_cell_angle_alpha   89.13281090
_cell_angle_beta   90.00000000
_cell_angle_gamma   90.00000000
_symmetry_Int_Tables_number   1
_chemical_formula_structural   Sc6NiB4Ir8Rh
_chemical_formula_sum   'Sc6 Ni1 B4 Ir8 Rh1'
_cell_volume   280.30729218
_cell_formula_units_Z   1
loop_
 _symmetry_equiv_pos_site_id
 _symmetry_equiv_pos_as_xyz
  1  'x, y, z'
loop_
 _atom_site_type_symbol
 _atom_site_label
 _atom_site_symmetry_multiplicity
 _atom_site_fract_x
 _atom_site_fract_y
 _atom_site_fract_z
 _atom_site_occupancy
  Sc  Sc0  1  0.000000  0.175903  0.675903  1
  Sc  Sc1  1  0.000000  0.824097  0.324097  1
  Sc  Sc2  1  0.000000  0.321628  0.178372  1
  Sc  Sc3  1  0.000000  0.678372  0.821628  1
  Sc  Sc4  1  0.000000  0.000000  0.000000  1
  Sc  Sc5  1  0.000000  0.500000  0.500000  1
  Ni  Ni6  1  0.500000  0.000000  0.500000  1
  B  B7  1  0.000000  0.620119  0.120119  1
  B  B8  1  0.000000  0.379881  0.879881  1
  B  B9  1  0.000000  0.888092  0.611908  1
  B  B10  1  0.000000  0.111908  0.388092  1
  Ir  Ir11  1  0.500000  0.064892  0.229909  1
  Ir  Ir12  1  0.500000  0.935108  0.770091  1
  Ir  Ir13  1  0.500000  0.777158  0.068806  1
  Ir  Ir14  1  0.500000  0.431194  0.722842  1
  Ir  Ir15  1  0.500000  0.222842  0.931194  1
  Ir  Ir16  1  0.500000  0.568806  0.277158  1
  Ir  Ir17  1  0.500000  0.729909  0.564892  1
  Ir  Ir18  1  0.500000  0.270091  0.435108  1
  Rh  Rh19  1  0.500000  0.500000  0.000000  1
