# generated using pymatgen
data_Zr8Ti3Si16Mo9
_symmetry_space_group_name_H-M   'P 1'
_cell_length_a   6.76262849
_cell_length_b   6.76262876
_cell_length_c   12.53349337
_cell_angle_alpha   89.89643194
_cell_angle_beta   90.10356775
_cell_angle_gamma   89.76682146
_symmetry_Int_Tables_number   1
_chemical_formula_structural   Zr8Ti3Si16Mo9
_chemical_formula_sum   'Zr8 Ti3 Si16 Mo9'
_cell_volume   573.18945329
_cell_formula_units_Z   1
loop_
 _symmetry_equiv_pos_site_id
 _symmetry_equiv_pos_as_xyz
  1  'x, y, z'
loop_
 _atom_site_type_symbol
 _atom_site_label
 _atom_site_symmetry_multiplicity
 _atom_site_fract_x
 _atom_site_fract_y
 _atom_site_fract_z
 _atom_site_occupancy
  Zr  Zr0  1  0.338870  0.997171  0.467770  1
  Zr  Zr1  1  0.502664  0.837091  0.718273  1
  Zr  Zr2  1  0.493514  0.163076  0.217277  1
  Zr  Zr3  1  0.837091  0.502664  0.281727  1
  Zr  Zr4  1  0.163076  0.493514  0.782723  1
  Zr  Zr5  1  0.661247  0.003769  0.966488  1
  Zr  Zr6  1  0.997171  0.338870  0.532230  1
  Zr  Zr7  1  0.003769  0.661247  0.033512  1
  Ti  Ti8  1  0.166885  0.834371  0.248022  1
  Ti  Ti9  1  0.834371  0.166885  0.751978  1
  Ti  Ti10  1  0.667194  0.667194  0.500000  1
  Si  Si11  1  0.208237  0.128177  0.677326  1
  Si  Si12  1  0.375927  0.701439  0.929472  1
  Si  Si13  1  0.628653  0.292250  0.427909  1
  Si  Si14  1  0.701439  0.375927  0.070528  1
  Si  Si15  1  0.292250  0.628653  0.572091  1
  Si  Si16  1  0.791676  0.872389  0.178758  1
  Si  Si17  1  0.128177  0.208237  0.322674  1
  Si  Si18  1  0.872389  0.791676  0.821242  1
  Si  Si19  1  0.285824  0.966324  0.060279  1
  Si  Si20  1  0.538976  0.795876  0.314113  1
  Si  Si21  1  0.459606  0.207645  0.815129  1
  Si  Si22  1  0.795876  0.538976  0.685887  1
  Si  Si23  1  0.207645  0.459606  0.184871  1
  Si  Si24  1  0.705363  0.040778  0.564501  1
  Si  Si25  1  0.966324  0.285824  0.939721  1
  Si  Si26  1  0.040778  0.705363  0.435499  1
  Mo  Mo27  1  0.330926  0.330926  0.000000  1
  Mo  Mo28  1  0.162955  0.993866  0.866895  1
  Mo  Mo29  1  0.495535  0.669838  0.125227  1
  Mo  Mo30  1  0.504310  0.341980  0.622706  1
  Mo  Mo31  1  0.669838  0.495535  0.874773  1
  Mo  Mo32  1  0.341980  0.504310  0.377294  1
  Mo  Mo33  1  0.840725  0.994875  0.374986  1
  Mo  Mo34  1  0.993866  0.162955  0.133105  1
  Mo  Mo35  1  0.994875  0.840725  0.625014  1
