# generated using pymatgen
data_MnAlRhS4
_symmetry_space_group_name_H-M   'P 1'
_cell_length_a   7.12587564
_cell_length_b   7.12587454
_cell_length_c   7.12587483
_cell_angle_alpha   120.31697602
_cell_angle_beta   119.17899975
_cell_angle_gamma   90.43985457
_symmetry_Int_Tables_number   1
_chemical_formula_structural   MnAlRhS4
_chemical_formula_sum   'Mn2 Al2 Rh2 S8'
_cell_volume   256.79341043
_cell_formula_units_Z   2
loop_
 _symmetry_equiv_pos_site_id
 _symmetry_equiv_pos_as_xyz
  1  'x, y, z'
loop_
 _atom_site_type_symbol
 _atom_site_label
 _atom_site_symmetry_multiplicity
 _atom_site_fract_x
 _atom_site_fract_y
 _atom_site_fract_z
 _atom_site_occupancy
  Mn  Mn0  1  0.376609  0.126609  0.250000  1
  Mn  Mn1  1  0.623391  0.873391  0.750000  1
  Al  Al2  1  0.000000  0.500000  0.000000  1
  Al  Al3  1  0.000000  0.000000  0.500000  1
  Rh  Rh4  1  0.500000  0.500000  0.000000  1
  Rh  Rh5  1  0.000000  0.500000  0.500000  1
  S  S6  1  0.761448  0.734042  0.472594  1
  S  S7  1  0.761448  0.288853  0.027406  1
  S  S8  1  0.217538  0.738842  0.478697  1
  S  S9  1  0.760144  0.738842  0.021303  1
  S  S10  1  0.238552  0.265958  0.527406  1
  S  S11  1  0.238552  0.711147  0.972594  1
  S  S12  1  0.782462  0.261158  0.521303  1
  S  S13  1  0.239856  0.261158  0.978697  1
