# generated using pymatgen
data_Dy2Mn3Cr3P7Ir6
_symmetry_space_group_name_H-M   'P 1'
_cell_length_a   9.40122000
_cell_length_b   9.40121933
_cell_length_c   3.81989000
_cell_angle_alpha   90.00000000
_cell_angle_beta   90.00000000
_cell_angle_gamma   120.00000938
_symmetry_Int_Tables_number   1
_chemical_formula_structural   Dy2Mn3Cr3P7Ir6
_chemical_formula_sum   'Dy2 Mn3 Cr3 P7 Ir6'
_cell_volume   292.38147210
_cell_formula_units_Z   1
loop_
 _symmetry_equiv_pos_site_id
 _symmetry_equiv_pos_as_xyz
  1  'x, y, z'
loop_
 _atom_site_type_symbol
 _atom_site_label
 _atom_site_symmetry_multiplicity
 _atom_site_fract_x
 _atom_site_fract_y
 _atom_site_fract_z
 _atom_site_occupancy
  Dy  Dy0  1  0.666667  0.333333  0.000000  1
  Dy  Dy1  1  0.333333  0.666667  0.500000  1
  Mn  Mn2  1  0.887797  0.730292  0.000000  1
  Mn  Mn3  1  0.269708  0.157506  0.000000  1
  Mn  Mn4  1  0.842495  0.112203  0.000000  1
  Cr  Cr5  1  0.112530  0.903738  0.500000  1
  Cr  Cr6  1  0.096262  0.208792  0.500000  1
  Cr  Cr7  1  0.791208  0.887470  0.500000  1
  P  P8  1  0.109492  0.702697  0.000000  1
  P  P9  1  0.297303  0.406796  0.000000  1
  P  P10  1  0.593204  0.890508  0.000000  1
  P  P11  1  0.724314  0.606991  0.500000  1
  P  P12  1  0.393009  0.117323  0.500000  1
  P  P13  1  0.882677  0.275686  0.500000  1
  P  P14  1  0.000000  0.000000  0.000000  1
  Ir  Ir15  1  0.362137  0.934676  0.000000  1
  Ir  Ir16  1  0.065324  0.427461  0.000000  1
  Ir  Ir17  1  0.572539  0.637863  0.000000  1
  Ir  Ir18  1  0.943934  0.557126  0.500000  1
  Ir  Ir19  1  0.442874  0.386808  0.500000  1
  Ir  Ir20  1  0.613192  0.056066  0.500000  1
