# generated using pymatgen
data_Ce3Nd3(SiPt5)2
_symmetry_space_group_name_H-M   'P 1'
_cell_length_a   8.36544881
_cell_length_b   8.37964561
_cell_length_c   8.37964625
_cell_angle_alpha   127.45900097
_cell_angle_beta   126.30926267
_cell_angle_gamma   78.48221773
_symmetry_Int_Tables_number   1
_chemical_formula_structural   Ce3Nd3(SiPt5)2
_chemical_formula_sum   'Ce3 Nd3 Si2 Pt10'
_cell_volume   363.72746274
_cell_formula_units_Z   1
loop_
 _symmetry_equiv_pos_site_id
 _symmetry_equiv_pos_as_xyz
  1  'x, y, z'
loop_
 _atom_site_type_symbol
 _atom_site_label
 _atom_site_symmetry_multiplicity
 _atom_site_fract_x
 _atom_site_fract_y
 _atom_site_fract_z
 _atom_site_occupancy
  Ce  Ce0  1  0.383079  0.748569  0.634509  1
  Ce  Ce1  1  0.227427  0.951133  0.276293  1
  Ce  Ce2  1  0.772959  0.050875  0.722083  1
  Nd  Nd3  1  0.825688  0.548094  0.277594  1
  Nd  Nd4  1  0.614190  0.251592  0.362598  1
  Nd  Nd5  1  0.171277  0.449366  0.721911  1
  Si  Si6  1  0.210882  0.250504  0.960379  1
  Si  Si7  1  0.782371  0.749422  0.032949  1
  Pt  Pt8  1  0.173628  0.906546  0.865036  1
  Pt  Pt9  1  0.831157  0.092143  0.131127  1
  Pt  Pt10  1  0.452174  0.180570  0.850766  1
  Pt  Pt11  1  0.545202  0.400709  0.734674  1
  Pt  Pt12  1  0.831157  0.700030  0.739014  1
  Pt  Pt13  1  0.452174  0.601407  0.271603  1
  Pt  Pt14  1  0.545202  0.810529  0.144493  1
  Pt  Pt15  1  0.173628  0.308592  0.267082  1
  Pt  Pt16  1  0.003903  0.992350  0.496334  1
  Pt  Pt17  1  0.003903  0.507569  0.011554  1
