# generated using pymatgen
data_Np3Sc(GeIr)4
_symmetry_space_group_name_H-M   'P 1'
_cell_length_a   4.34876900
_cell_length_b   6.71448104
_cell_length_c   7.57104918
_cell_angle_alpha   90.68882987
_cell_angle_beta   90.00000000
_cell_angle_gamma   90.00000000
_symmetry_Int_Tables_number   1
_chemical_formula_structural   Np3Sc(GeIr)4
_chemical_formula_sum   'Np3 Sc1 Ge4 Ir4'
_cell_volume   221.05659285
_cell_formula_units_Z   1
loop_
 _symmetry_equiv_pos_site_id
 _symmetry_equiv_pos_as_xyz
  1  'x, y, z'
loop_
 _atom_site_type_symbol
 _atom_site_label
 _atom_site_symmetry_multiplicity
 _atom_site_fract_x
 _atom_site_fract_y
 _atom_site_fract_z
 _atom_site_occupancy
  Np  Np0  1  0.250000  0.988744  0.295163  1
  Np  Np1  1  0.250000  0.491132  0.199175  1
  Np  Np2  1  0.750000  0.012628  0.707633  1
  Sc  Sc3  1  0.750000  0.511223  0.797240  1
  Ge  Ge4  1  0.250000  0.329929  0.589496  1
  Ge  Ge5  1  0.250000  0.809003  0.912468  1
  Ge  Ge6  1  0.750000  0.675847  0.421117  1
  Ge  Ge7  1  0.750000  0.185290  0.080561  1
  Ir  Ir8  1  0.250000  0.227557  0.913672  1
  Ir  Ir9  1  0.250000  0.723617  0.585568  1
  Ir  Ir10  1  0.750000  0.766668  0.088922  1
  Ir  Ir11  1  0.750000  0.278362  0.408984  1
