# generated using pymatgen
data_Pr3In3PtAu2
_symmetry_space_group_name_H-M   'P 1'
_cell_length_a   7.91805400
_cell_length_b   7.91805371
_cell_length_c   4.10652700
_cell_angle_alpha   90.00000000
_cell_angle_beta   90.00000000
_cell_angle_gamma   120.00000957
_symmetry_Int_Tables_number   1
_chemical_formula_structural   Pr3In3PtAu2
_chemical_formula_sum   'Pr3 In3 Pt1 Au2'
_cell_volume   222.96781350
_cell_formula_units_Z   1
loop_
 _symmetry_equiv_pos_site_id
 _symmetry_equiv_pos_as_xyz
  1  'x, y, z'
loop_
 _atom_site_type_symbol
 _atom_site_label
 _atom_site_symmetry_multiplicity
 _atom_site_fract_x
 _atom_site_fract_y
 _atom_site_fract_z
 _atom_site_occupancy
  Pr  Pr0  1  0.593239  0.009817  0.000000  1
  Pr  Pr1  1  0.990183  0.583422  0.000000  1
  Pr  Pr2  1  0.416578  0.406761  0.000000  1
  In  In3  1  0.256785  0.002340  0.500000  1
  In  In4  1  0.997660  0.254445  0.500000  1
  In  In5  1  0.745555  0.743215  0.500000  1
  Pt  Pt6  1  0.666667  0.333333  0.500000  1
  Au  Au7  1  0.333333  0.666667  0.500000  1
  Au  Au8  1  0.000000  0.000000  0.000000  1
