# generated using pymatgen
data_Sc12Co4BiOs
_symmetry_space_group_name_H-M   'P 1'
_cell_length_a   7.75178668
_cell_length_b   7.75190064
_cell_length_c   7.75178659
_cell_angle_alpha   111.35530843
_cell_angle_beta   110.68821317
_cell_angle_gamma   106.41291706
_symmetry_Int_Tables_number   1
_chemical_formula_structural   Sc12Co4BiOs
_chemical_formula_sum   'Sc12 Co4 Bi1 Os1'
_cell_volume   357.81193983
_cell_formula_units_Z   1
loop_
 _symmetry_equiv_pos_site_id
 _symmetry_equiv_pos_as_xyz
  1  'x, y, z'
loop_
 _atom_site_type_symbol
 _atom_site_label
 _atom_site_symmetry_multiplicity
 _atom_site_fract_x
 _atom_site_fract_y
 _atom_site_fract_z
 _atom_site_occupancy
  Sc  Sc0  1  0.422862  0.221763  0.201105  1
  Sc  Sc1  1  0.577138  0.778237  0.798895  1
  Sc  Sc2  1  0.020657  0.221763  0.798901  1
  Sc  Sc3  1  0.979343  0.778237  0.201099  1
  Sc  Sc4  1  0.310473  0.615623  0.305150  1
  Sc  Sc5  1  0.689527  0.384377  0.694850  1
  Sc  Sc6  1  0.310483  0.005324  0.694840  1
  Sc  Sc7  1  0.689517  0.994676  0.305160  1
  Sc  Sc8  1  0.181469  0.272213  0.453680  1
  Sc  Sc9  1  0.818531  0.727786  0.546320  1
  Sc  Sc10  1  0.181465  0.727786  0.909256  1
  Sc  Sc11  1  0.818535  0.272213  0.090744  1
  Co  Co12  1  0.365135  0.000000  0.365135  1
  Co  Co13  1  0.634865  0.000000  0.634865  1
  Co  Co14  1  0.117362  0.617377  0.500015  1
  Co  Co15  1  0.882638  0.382623  0.499985  1
  Bi  Bi16  1  0.500000  0.500000  0.000000  1
  Os  Os17  1  0.000000  0.000000  0.000000  1
