# generated using pymatgen
data_Lu2Mn4SiPC2
_symmetry_space_group_name_H-M   'P 1'
_cell_length_a   5.54908176
_cell_length_b   5.54908263
_cell_length_c   6.90446300
_cell_angle_alpha   90.00000000
_cell_angle_beta   90.00000000
_cell_angle_gamma   142.21087745
_symmetry_Int_Tables_number   1
_chemical_formula_structural   Lu2Mn4SiPC2
_chemical_formula_sum   'Lu2 Mn4 Si1 P1 C2'
_cell_volume   130.27483365
_cell_formula_units_Z   1
loop_
 _symmetry_equiv_pos_site_id
 _symmetry_equiv_pos_as_xyz
  1  'x, y, z'
loop_
 _atom_site_type_symbol
 _atom_site_label
 _atom_site_symmetry_multiplicity
 _atom_site_fract_x
 _atom_site_fract_y
 _atom_site_fract_z
 _atom_site_occupancy
  Lu  Lu0  1  0.542244  0.457756  0.250000  1
  Lu  Lu1  1  0.458392  0.541608  0.750000  1
  Mn  Mn2  1  0.831284  0.168716  0.063031  1
  Mn  Mn3  1  0.168942  0.831058  0.946643  1
  Mn  Mn4  1  0.168942  0.831058  0.553357  1
  Mn  Mn5  1  0.831284  0.168716  0.436969  1
  Si  Si6  1  0.736254  0.263746  0.750000  1
  P  P7  1  0.264026  0.735974  0.250000  1
  C  C8  1  0.999316  0.000684  0.000062  1
  C  C9  1  0.999316  0.000684  0.499938  1
