# generated using pymatgen
data_Pr2Er2Al13Ga5Ir6
_symmetry_space_group_name_H-M   'P 1'
_cell_length_a   7.56252059
_cell_length_b   7.56252041
_cell_length_c   9.65184000
_cell_angle_alpha   90.00000000
_cell_angle_beta   90.00000000
_cell_angle_gamma   119.64921793
_symmetry_Int_Tables_number   1
_chemical_formula_structural   Pr2Er2Al13Ga5Ir6
_chemical_formula_sum   'Pr2 Er2 Al13 Ga5 Ir6'
_cell_volume   479.73141063
_cell_formula_units_Z   1
loop_
 _symmetry_equiv_pos_site_id
 _symmetry_equiv_pos_as_xyz
  1  'x, y, z'
loop_
 _atom_site_type_symbol
 _atom_site_label
 _atom_site_symmetry_multiplicity
 _atom_site_fract_x
 _atom_site_fract_y
 _atom_site_fract_z
 _atom_site_occupancy
  Pr  Pr0  1  0.003783  0.330857  0.250000  1
  Pr  Pr1  1  0.330857  0.003783  0.250000  1
  Er  Er2  1  0.997630  0.667473  0.750000  1
  Er  Er3  1  0.667473  0.997630  0.750000  1
  Al  Al4  1  0.124221  0.124221  0.750000  1
  Al  Al5  1  0.000606  0.334024  0.576882  1
  Al  Al6  1  0.996367  0.665879  0.434185  1
  Al  Al7  1  0.996367  0.665879  0.065815  1
  Al  Al8  1  0.334024  0.000606  0.923118  1
  Al  Al9  1  0.000606  0.334024  0.923118  1
  Al  Al10  1  0.665879  0.996367  0.065815  1
  Al  Al11  1  0.665879  0.996367  0.434185  1
  Al  Al12  1  0.334024  0.000606  0.576882  1
  Al  Al13  1  0.335496  0.335496  0.044938  1
  Al  Al14  1  0.667259  0.667259  0.939939  1
  Al  Al15  1  0.667259  0.667259  0.560061  1
  Al  Al16  1  0.335496  0.335496  0.455062  1
  Ga  Ga17  1  0.868033  0.868033  0.250000  1
  Ga  Ga18  1  0.339647  0.547331  0.750000  1
  Ga  Ga19  1  0.661808  0.457034  0.250000  1
  Ga  Ga20  1  0.547331  0.339647  0.750000  1
  Ga  Ga21  1  0.457034  0.661808  0.250000  1
  Ir  Ir22  1  0.672376  0.329707  0.502601  1
  Ir  Ir23  1  0.329707  0.672376  0.502601  1
  Ir  Ir24  1  0.329707  0.672376  0.997399  1
  Ir  Ir25  1  0.672376  0.329707  0.997399  1
  Ir  Ir26  1  0.999376  0.999376  0.505537  1
  Ir  Ir27  1  0.999376  0.999376  0.994463  1
