# generated using pymatgen
data_Ti2AlCo(BiO5)2
_symmetry_space_group_name_H-M   'P 1'
_cell_length_a   5.81968600
_cell_length_b   7.62520400
_cell_length_c   8.54386200
_cell_angle_alpha   90.00000000
_cell_angle_beta   90.00000000
_cell_angle_gamma   90.00000000
_symmetry_Int_Tables_number   1
_chemical_formula_structural   Ti2AlCo(BiO5)2
_chemical_formula_sum   'Ti4 Al2 Co2 Bi4 O20'
_cell_volume   379.14492317
_cell_formula_units_Z   2
loop_
 _symmetry_equiv_pos_site_id
 _symmetry_equiv_pos_as_xyz
  1  'x, y, z'
loop_
 _atom_site_type_symbol
 _atom_site_label
 _atom_site_symmetry_multiplicity
 _atom_site_fract_x
 _atom_site_fract_y
 _atom_site_fract_z
 _atom_site_occupancy
  Ti  Ti0  1  0.500460  0.874304  0.144068  1
  Ti  Ti1  1  0.500460  0.125696  0.855932  1
  Ti  Ti2  1  0.499540  0.374304  0.355932  1
  Ti  Ti3  1  0.499540  0.625696  0.644068  1
  Al  Al4  1  0.251380  0.500000  0.000000  1
  Al  Al5  1  0.748620  0.000000  0.500000  1
  Co  Co6  1  0.750345  0.500000  0.000000  1
  Co  Co7  1  0.249655  0.000000  0.500000  1
  Bi  Bi8  1  0.997941  0.659484  0.334204  1
  Bi  Bi9  1  0.997941  0.340516  0.665796  1
  Bi  Bi10  1  0.002059  0.159484  0.165796  1
  Bi  Bi11  1  0.002059  0.840516  0.834204  1
  O  O12  1  0.001621  0.652260  0.055896  1
  O  O13  1  0.001621  0.347740  0.944104  1
  O  O14  1  0.998379  0.152260  0.444104  1
  O  O15  1  0.998379  0.847740  0.555896  1
  O  O16  1  0.289479  0.500000  0.500000  1
  O  O17  1  0.710521  0.000000  0.000000  1
  O  O18  1  0.710010  0.500000  0.500000  1
  O  O19  1  0.289990  0.000000  0.000000  1
  O  O20  1  0.496229  0.649830  0.074213  1
  O  O21  1  0.496229  0.350170  0.925787  1
  O  O22  1  0.503771  0.149830  0.425787  1
  O  O23  1  0.503771  0.850170  0.574213  1
  O  O24  1  0.256628  0.887147  0.296903  1
  O  O25  1  0.256628  0.112853  0.703097  1
  O  O26  1  0.743372  0.387147  0.203097  1
  O  O27  1  0.743372  0.612853  0.796903  1
  O  O28  1  0.739341  0.112875  0.701798  1
  O  O29  1  0.739341  0.887125  0.298202  1
  O  O30  1  0.260659  0.612875  0.798202  1
  O  O31  1  0.260659  0.387125  0.201798  1
