# generated using pymatgen
data_AlGa2Ge(PPd6)2
_symmetry_space_group_name_H-M   'P 1'
_cell_length_a   3.42632200
_cell_length_b   6.75354021
_cell_length_c   11.64458614
_cell_angle_alpha   90.00901016
_cell_angle_beta   90.00000000
_cell_angle_gamma   90.00000000
_symmetry_Int_Tables_number   1
_chemical_formula_structural   AlGa2Ge(PPd6)2
_chemical_formula_sum   'Al1 Ga2 Ge1 P2 Pd12'
_cell_volume   269.45343062
_cell_formula_units_Z   1
loop_
 _symmetry_equiv_pos_site_id
 _symmetry_equiv_pos_as_xyz
  1  'x, y, z'
loop_
 _atom_site_type_symbol
 _atom_site_label
 _atom_site_symmetry_multiplicity
 _atom_site_fract_x
 _atom_site_fract_y
 _atom_site_fract_z
 _atom_site_occupancy
  Al  Al0  1  0.000000  0.000690  0.332071  1
  Ga  Ga1  1  0.000000  0.500785  0.166386  1
  Ga  Ga2  1  0.000000  0.499264  0.835119  1
  Ge  Ge3  1  0.000000  0.999297  0.666502  1
  P  P4  1  0.500000  0.001240  0.001059  1
  P  P5  1  0.500000  0.498769  0.499162  1
  Pd  Pd6  1  0.000000  0.748276  0.000544  1
  Pd  Pd7  1  0.000000  0.243010  0.500398  1
  Pd  Pd8  1  0.000000  0.628997  0.627010  1
  Pd  Pd9  1  0.000000  0.126986  0.127072  1
  Pd  Pd10  1  0.000000  0.123966  0.871388  1
  Pd  Pd11  1  0.000000  0.628102  0.373389  1
  Pd  Pd12  1  0.500000  0.897205  0.497762  1
  Pd  Pd13  1  0.500000  0.396624  0.999485  1
  Pd  Pd14  1  0.500000  0.800530  0.800694  1
  Pd  Pd15  1  0.500000  0.298987  0.302113  1
  Pd  Pd16  1  0.500000  0.302579  0.698678  1
  Pd  Pd17  1  0.500000  0.804892  0.201168  1
