# generated using pymatgen
data_Sr5Si3H
_symmetry_space_group_name_H-M   'P 1'
_cell_length_a   9.71059982
_cell_length_b   9.71059904
_cell_length_c   9.71059991
_cell_angle_alpha   130.78628823
_cell_angle_beta   130.78628118
_cell_angle_gamma   72.15284926
_symmetry_Int_Tables_number   1
_chemical_formula_structural   Sr5Si3H
_chemical_formula_sum   'Sr10 Si6 H2'
_cell_volume   513.25605922
_cell_formula_units_Z   2
loop_
 _symmetry_equiv_pos_site_id
 _symmetry_equiv_pos_as_xyz
  1  'x, y, z'
loop_
 _atom_site_type_symbol
 _atom_site_label
 _atom_site_symmetry_multiplicity
 _atom_site_fract_x
 _atom_site_fract_y
 _atom_site_fract_z
 _atom_site_occupancy
  Sr  Sr0  1  0.500000  0.500000  0.000000  1
  Sr  Sr1  1  0.000000  0.000000  0.000000  1
  Sr  Sr2  1  0.520411  0.020411  0.840415  1
  Sr  Sr3  1  0.179996  0.679996  0.159585  1
  Sr  Sr4  1  0.020411  0.179996  0.500000  1
  Sr  Sr5  1  0.679996  0.520411  0.500000  1
  Sr  Sr6  1  0.479589  0.979589  0.159585  1
  Sr  Sr7  1  0.820004  0.320004  0.840415  1
  Sr  Sr8  1  0.979589  0.820004  0.500000  1
  Sr  Sr9  1  0.320004  0.479589  0.500000  1
  Si  Si10  1  0.250000  0.250000  0.000000  1
  Si  Si11  1  0.750000  0.750000  0.000000  1
  Si  Si12  1  0.894776  0.394776  0.289554  1
  Si  Si13  1  0.105224  0.605224  0.710446  1
  Si  Si14  1  0.394776  0.105224  0.500000  1
  Si  Si15  1  0.605224  0.894776  0.500000  1
  H  H16  1  0.250000  0.750000  0.500000  1
  H  H17  1  0.750000  0.250000  0.500000  1
