# generated using pymatgen
data_LaNd(Si7Ir3)2
_symmetry_space_group_name_H-M   'P 1'
_cell_length_a   8.08527083
_cell_length_b   8.08527086
_cell_length_c   8.08527100
_cell_angle_alpha   56.51654440
_cell_angle_beta   56.51654425
_cell_angle_gamma   56.51654314
_symmetry_Int_Tables_number   1
_chemical_formula_structural   LaNd(Si7Ir3)2
_chemical_formula_sum   'La1 Nd1 Si14 Ir6'
_cell_volume   343.64997051
_cell_formula_units_Z   1
loop_
 _symmetry_equiv_pos_site_id
 _symmetry_equiv_pos_as_xyz
  1  'x, y, z'
loop_
 _atom_site_type_symbol
 _atom_site_label
 _atom_site_symmetry_multiplicity
 _atom_site_fract_x
 _atom_site_fract_y
 _atom_site_fract_z
 _atom_site_occupancy
  La  La0  1  0.500000  0.500000  0.500000  1
  Nd  Nd1  1  0.000000  0.000000  0.000000  1
  Si  Si2  1  0.750498  0.750498  0.750498  1
  Si  Si3  1  0.249502  0.249502  0.249502  1
  Si  Si4  1  0.850883  0.063423  0.673000  1
  Si  Si5  1  0.673000  0.850883  0.063423  1
  Si  Si6  1  0.063423  0.673000  0.850883  1
  Si  Si7  1  0.649366  0.827675  0.436830  1
  Si  Si8  1  0.436830  0.649366  0.827675  1
  Si  Si9  1  0.827675  0.436830  0.649366  1
  Si  Si10  1  0.172325  0.563170  0.350634  1
  Si  Si11  1  0.563170  0.350634  0.172325  1
  Si  Si12  1  0.350634  0.172325  0.563170  1
  Si  Si13  1  0.936577  0.327000  0.149117  1
  Si  Si14  1  0.327000  0.149117  0.936577  1
  Si  Si15  1  0.149117  0.936577  0.327000  1
  Ir  Ir16  1  0.067242  0.431962  0.750575  1
  Ir  Ir17  1  0.249425  0.932758  0.568038  1
  Ir  Ir18  1  0.568038  0.249425  0.932758  1
  Ir  Ir19  1  0.932758  0.568038  0.249425  1
  Ir  Ir20  1  0.431962  0.750575  0.067242  1
  Ir  Ir21  1  0.750575  0.067242  0.431962  1
