# generated using pymatgen
data_Tb9Dy2In9Ni4
_symmetry_space_group_name_H-M   'P 1'
_cell_length_a   3.67011400
_cell_length_b   13.08526892
_cell_length_c   12.94374419
_cell_angle_alpha   112.12955619
_cell_angle_beta   90.00000000
_cell_angle_gamma   90.00000000
_symmetry_Int_Tables_number   1
_chemical_formula_structural   Tb9Dy2In9Ni4
_chemical_formula_sum   'Tb9 Dy2 In9 Ni4'
_cell_volume   575.82422937
_cell_formula_units_Z   1
loop_
 _symmetry_equiv_pos_site_id
 _symmetry_equiv_pos_as_xyz
  1  'x, y, z'
loop_
 _atom_site_type_symbol
 _atom_site_label
 _atom_site_symmetry_multiplicity
 _atom_site_fract_x
 _atom_site_fract_y
 _atom_site_fract_z
 _atom_site_occupancy
  Tb  Tb0  1  0.000000  0.582121  0.919026  1
  Tb  Tb1  1  0.000000  0.417879  0.080974  1
  Tb  Tb2  1  0.000000  0.160107  0.841027  1
  Tb  Tb3  1  0.000000  0.839893  0.158973  1
  Tb  Tb4  1  0.000000  0.373574  0.625189  1
  Tb  Tb5  1  0.000000  0.626426  0.374811  1
  Tb  Tb6  1  0.000000  0.688216  0.687741  1
  Tb  Tb7  1  0.000000  0.311784  0.312259  1
  Tb  Tb8  1  0.000000  0.000000  0.000000  1
  Dy  Dy9  1  0.000000  0.920182  0.581121  1
  Dy  Dy10  1  0.000000  0.079818  0.418879  1
  In  In11  1  0.500000  0.158709  0.632253  1
  In  In12  1  0.500000  0.841291  0.367747  1
  In  In13  1  0.500000  0.632165  0.158080  1
  In  In14  1  0.500000  0.367835  0.841920  1
  In  In15  1  0.500000  0.922691  0.779563  1
  In  In16  1  0.500000  0.077309  0.220437  1
  In  In17  1  0.500000  0.780407  0.921855  1
  In  In18  1  0.500000  0.219593  0.078145  1
  In  In19  1  0.500000  0.500000  0.500000  1
  Ni  Ni20  1  0.500000  0.754349  0.549507  1
  Ni  Ni21  1  0.500000  0.245651  0.450493  1
  Ni  Ni22  1  0.500000  0.549551  0.750913  1
  Ni  Ni23  1  0.500000  0.450449  0.249087  1
