# generated using pymatgen
data_Y4Ho16CoBi8Ru3
_symmetry_space_group_name_H-M   'P 1'
_cell_length_a   7.96087422
_cell_length_b   8.97024200
_cell_length_c   12.42668413
_cell_angle_alpha   90.00000000
_cell_angle_beta   89.78215832
_cell_angle_gamma   90.00000000
_symmetry_Int_Tables_number   1
_chemical_formula_structural   Y4Ho16CoBi8Ru3
_chemical_formula_sum   'Y4 Ho16 Co1 Bi8 Ru3'
_cell_volume   887.39513271
_cell_formula_units_Z   1
loop_
 _symmetry_equiv_pos_site_id
 _symmetry_equiv_pos_as_xyz
  1  'x, y, z'
loop_
 _atom_site_type_symbol
 _atom_site_label
 _atom_site_symmetry_multiplicity
 _atom_site_fract_x
 _atom_site_fract_y
 _atom_site_fract_z
 _atom_site_occupancy
  Y  Y0  1  0.344740  0.750000  0.702368  1
  Y  Y1  1  0.155392  0.750000  0.206614  1
  Y  Y2  1  0.878641  0.750000  0.805947  1
  Y  Y3  1  0.617595  0.750000  0.311198  1
  Ho  Ho4  1  0.656733  0.250000  0.293556  1
  Ho  Ho5  1  0.843359  0.250000  0.792634  1
  Ho  Ho6  1  0.119515  0.250000  0.192647  1
  Ho  Ho7  1  0.379591  0.250000  0.692051  1
  Ho  Ho8  1  0.675590  0.543168  0.563738  1
  Ho  Ho9  1  0.325013  0.461618  0.437064  1
  Ho  Ho10  1  0.175701  0.457732  0.935878  1
  Ho  Ho11  1  0.325013  0.038382  0.437064  1
  Ho  Ho12  1  0.823958  0.542399  0.064376  1
  Ho  Ho13  1  0.675590  0.956832  0.563738  1
  Ho  Ho14  1  0.823958  0.957601  0.064376  1
  Ho  Ho15  1  0.175701  0.042268  0.935878  1
  Ho  Ho16  1  0.054506  0.750000  0.497036  1
  Ho  Ho17  1  0.946926  0.250000  0.503160  1
  Ho  Ho18  1  0.555137  0.250000  0.003436  1
  Ho  Ho19  1  0.445573  0.750000  0.995789  1
  Co  Co20  1  0.428903  0.750000  0.490895  1
  Bi  Bi21  1  0.570719  0.507948  0.827252  1
  Bi  Bi22  1  0.428980  0.491646  0.172760  1
  Bi  Bi23  1  0.071664  0.491335  0.671913  1
  Bi  Bi24  1  0.428980  0.008354  0.172760  1
  Bi  Bi25  1  0.928830  0.508198  0.328499  1
  Bi  Bi26  1  0.570719  0.992052  0.827252  1
  Bi  Bi27  1  0.928830  0.991802  0.328499  1
  Bi  Bi28  1  0.071664  0.008665  0.671913  1
  Ru  Ru29  1  0.074338  0.750000  0.989035  1
  Ru  Ru30  1  0.925491  0.250000  0.010519  1
  Ru  Ru31  1  0.572647  0.250000  0.510153  1
