# generated using pymatgen
data_Sr2GeS3F2
_symmetry_space_group_name_H-M   'P 1'
_cell_length_a   5.91489500
_cell_length_b   6.06728200
_cell_length_c   18.36376600
_cell_angle_alpha   90.00000000
_cell_angle_beta   90.00000000
_cell_angle_gamma   90.00000000
_symmetry_Int_Tables_number   1
_chemical_formula_structural   Sr2GeS3F2
_chemical_formula_sum   'Sr8 Ge4 S12 F8'
_cell_volume   659.02664003
_cell_formula_units_Z   4
loop_
 _symmetry_equiv_pos_site_id
 _symmetry_equiv_pos_as_xyz
  1  'x, y, z'
loop_
 _atom_site_type_symbol
 _atom_site_label
 _atom_site_symmetry_multiplicity
 _atom_site_fract_x
 _atom_site_fract_y
 _atom_site_fract_z
 _atom_site_occupancy
  Sr  Sr0  1  0.246779  0.496775  0.423469  1
  Sr  Sr1  1  0.746779  0.003225  0.076531  1
  Sr  Sr2  1  0.253221  0.996775  0.576531  1
  Sr  Sr3  1  0.753221  0.503225  0.923469  1
  Sr  Sr4  1  0.753221  0.503225  0.576531  1
  Sr  Sr5  1  0.253221  0.996775  0.923469  1
  Sr  Sr6  1  0.746779  0.003225  0.423469  1
  Sr  Sr7  1  0.246779  0.496775  0.076531  1
  Ge  Ge8  1  0.155559  0.591874  0.750000  1
  Ge  Ge9  1  0.655559  0.908126  0.750000  1
  Ge  Ge10  1  0.344441  0.091874  0.250000  1
  Ge  Ge11  1  0.844441  0.408126  0.250000  1
  S  S12  1  0.745536  0.516712  0.140635  1
  S  S13  1  0.766886  0.546468  0.750000  1
  S  S14  1  0.733114  0.046468  0.250000  1
  S  S15  1  0.233114  0.453532  0.250000  1
  S  S16  1  0.245536  0.983288  0.359365  1
  S  S17  1  0.754464  0.016712  0.859365  1
  S  S18  1  0.254464  0.483288  0.640635  1
  S  S19  1  0.254464  0.483288  0.859365  1
  S  S20  1  0.745536  0.516712  0.359365  1
  S  S21  1  0.245536  0.983288  0.140635  1
  S  S22  1  0.266886  0.953532  0.750000  1
  S  S23  1  0.754464  0.016712  0.640635  1
  F  F24  1  0.498909  0.252652  0.999198  1
  F  F25  1  0.998909  0.247348  0.500802  1
  F  F26  1  0.501091  0.747348  0.499198  1
  F  F27  1  0.498909  0.252652  0.500802  1
  F  F28  1  0.998909  0.247348  0.999198  1
  F  F29  1  0.001091  0.752652  0.499198  1
  F  F30  1  0.501091  0.747348  0.000802  1
  F  F31  1  0.001091  0.752652  0.000802  1
