# generated using pymatgen
data_CaTbTh2(Ga3Ir)6
_symmetry_space_group_name_H-M   'P 1'
_cell_length_a   7.64576452
_cell_length_b   7.67445125
_cell_length_c   9.53835400
_cell_angle_alpha   90.00000000
_cell_angle_beta   90.00000000
_cell_angle_gamma   119.79438463
_symmetry_Int_Tables_number   1
_chemical_formula_structural   CaTbTh2(Ga3Ir)6
_chemical_formula_sum   'Ca1 Tb1 Th2 Ga18 Ir6'
_cell_volume   485.70035040
_cell_formula_units_Z   1
loop_
 _symmetry_equiv_pos_site_id
 _symmetry_equiv_pos_as_xyz
  1  'x, y, z'
loop_
 _atom_site_type_symbol
 _atom_site_label
 _atom_site_symmetry_multiplicity
 _atom_site_fract_x
 _atom_site_fract_y
 _atom_site_fract_z
 _atom_site_occupancy
  Ca  Ca0  1  0.669438  0.995974  0.250000  1
  Tb  Tb1  1  0.330859  0.004091  0.750000  1
  Th  Th2  1  0.996674  0.668494  0.250000  1
  Th  Th3  1  0.002628  0.330855  0.750000  1
  Ga  Ga4  1  0.130711  0.129883  0.250000  1
  Ga  Ga5  1  0.868872  0.869521  0.750000  1
  Ga  Ga6  1  0.998937  0.327923  0.082147  1
  Ga  Ga7  1  0.000231  0.670970  0.917831  1
  Ga  Ga8  1  0.000231  0.670970  0.582169  1
  Ga  Ga9  1  0.341173  0.003621  0.422731  1
  Ga  Ga10  1  0.998937  0.327923  0.417853  1
  Ga  Ga11  1  0.659945  0.996528  0.576566  1
  Ga  Ga12  1  0.659945  0.996528  0.923434  1
  Ga  Ga13  1  0.341173  0.003621  0.077269  1
  Ga  Ga14  1  0.336190  0.332052  0.563690  1
  Ga  Ga15  1  0.663468  0.668706  0.437038  1
  Ga  Ga16  1  0.663468  0.668706  0.062962  1
  Ga  Ga17  1  0.336190  0.332052  0.936310  1
  Ga  Ga18  1  0.341851  0.545682  0.250000  1
  Ga  Ga19  1  0.657293  0.454112  0.750000  1
  Ga  Ga20  1  0.542781  0.337278  0.250000  1
  Ga  Ga21  1  0.457982  0.664161  0.750000  1
  Ir  Ir22  1  0.675283  0.332942  0.998801  1
  Ir  Ir23  1  0.323666  0.667238  0.998838  1
  Ir  Ir24  1  0.323666  0.667238  0.501162  1
  Ir  Ir25  1  0.675283  0.332942  0.501199  1
  Ir  Ir26  1  0.001563  0.999996  0.998725  1
  Ir  Ir27  1  0.001563  0.999996  0.501275  1
