# generated using pymatgen
data_NdTh7Re3WC8
_symmetry_space_group_name_H-M   'P 1'
_cell_length_a   5.36853200
_cell_length_b   6.71639945
_cell_length_c   10.17400985
_cell_angle_alpha   90.37146301
_cell_angle_beta   90.00000000
_cell_angle_gamma   90.00000000
_symmetry_Int_Tables_number   1
_chemical_formula_structural   NdTh7Re3WC8
_chemical_formula_sum   'Nd1 Th7 Re3 W1 C8'
_cell_volume   366.83865281
_cell_formula_units_Z   1
loop_
 _symmetry_equiv_pos_site_id
 _symmetry_equiv_pos_as_xyz
  1  'x, y, z'
loop_
 _atom_site_type_symbol
 _atom_site_label
 _atom_site_symmetry_multiplicity
 _atom_site_fract_x
 _atom_site_fract_y
 _atom_site_fract_z
 _atom_site_occupancy
  Nd  Nd0  1  0.750000  0.192010  0.949417  1
  Th  Th1  1  0.250000  0.473063  0.779105  1
  Th  Th2  1  0.750000  0.026345  0.276676  1
  Th  Th3  1  0.250000  0.973272  0.723731  1
  Th  Th4  1  0.750000  0.524841  0.221441  1
  Th  Th5  1  0.250000  0.811836  0.048999  1
  Th  Th6  1  0.750000  0.691746  0.549263  1
  Th  Th7  1  0.250000  0.310406  0.449883  1
  Re  Re8  1  0.250000  0.270956  0.138450  1
  Re  Re9  1  0.250000  0.772993  0.363180  1
  Re  Re10  1  0.750000  0.731224  0.863064  1
  W  W11  1  0.750000  0.227497  0.636642  1
  C  C12  1  0.250000  0.665858  0.551443  1
  C  C13  1  0.750000  0.822086  0.051784  1
  C  C14  1  0.250000  0.171506  0.952467  1
  C  C15  1  0.750000  0.333501  0.445050  1
  C  C16  1  0.250000  0.031412  0.256330  1
  C  C17  1  0.750000  0.470227  0.757032  1
  C  C18  1  0.250000  0.533649  0.243839  1
  C  C19  1  0.750000  0.965570  0.742203  1
