# generated using pymatgen
data_Pr8TmLuPb6
_symmetry_space_group_name_H-M   'P 1'
_cell_length_a   9.36269600
_cell_length_b   9.36269773
_cell_length_c   6.87338300
_cell_angle_alpha   90.00000000
_cell_angle_beta   90.00000000
_cell_angle_gamma   120.00000097
_symmetry_Int_Tables_number   1
_chemical_formula_structural   Pr8TmLuPb6
_chemical_formula_sum   'Pr8 Tm1 Lu1 Pb6'
_cell_volume   521.79882491
_cell_formula_units_Z   1
loop_
 _symmetry_equiv_pos_site_id
 _symmetry_equiv_pos_as_xyz
  1  'x, y, z'
loop_
 _atom_site_type_symbol
 _atom_site_label
 _atom_site_symmetry_multiplicity
 _atom_site_fract_x
 _atom_site_fract_y
 _atom_site_fract_z
 _atom_site_occupancy
  Pr  Pr0  1  0.333333  0.666667  0.500000  1
  Pr  Pr1  1  0.666667  0.333333  0.500000  1
  Pr  Pr2  1  0.759121  0.759187  0.752560  1
  Pr  Pr3  1  0.240813  0.999933  0.752560  1
  Pr  Pr4  1  0.000067  0.240879  0.752560  1
  Pr  Pr5  1  0.240813  0.240879  0.247440  1
  Pr  Pr6  1  0.759121  0.999933  0.247440  1
  Pr  Pr7  1  0.000067  0.759187  0.247440  1
  Tm  Tm8  1  0.666667  0.333333  0.000000  1
  Lu  Lu9  1  0.333333  0.666667  0.000000  1
  Pb  Pb10  1  0.396782  0.396960  0.759248  1
  Pb  Pb11  1  0.603040  0.999822  0.759248  1
  Pb  Pb12  1  0.000178  0.603218  0.759248  1
  Pb  Pb13  1  0.603040  0.603218  0.240752  1
  Pb  Pb14  1  0.396782  0.999822  0.240752  1
  Pb  Pb15  1  0.000178  0.396960  0.240752  1
