# generated using pymatgen
data_HfSc7(Si4Ru3)4
_symmetry_space_group_name_H-M   'P 1'
_cell_length_a   9.93517007
_cell_length_b   9.94239211
_cell_length_c   13.37997675
_cell_angle_alpha   53.85699573
_cell_angle_beta   53.82951151
_cell_angle_gamma   31.05358933
_symmetry_Int_Tables_number   1
_chemical_formula_structural   HfSc7(Si4Ru3)4
_chemical_formula_sum   'Hf1 Sc7 Si16 Ru12'
_cell_volume   538.99945126
_cell_formula_units_Z   1
loop_
 _symmetry_equiv_pos_site_id
 _symmetry_equiv_pos_as_xyz
  1  'x, y, z'
loop_
 _atom_site_type_symbol
 _atom_site_label
 _atom_site_symmetry_multiplicity
 _atom_site_fract_x
 _atom_site_fract_y
 _atom_site_fract_z
 _atom_site_occupancy
  Hf  Hf0  1  0.294416  0.038667  0.136403  1
  Sc  Sc1  1  0.295006  0.559594  0.644648  1
  Sc  Sc2  1  0.439314  0.706623  0.854895  1
  Sc  Sc3  1  0.705867  0.440392  0.354654  1
  Sc  Sc4  1  0.560614  0.292847  0.145624  1
  Sc  Sc5  1  0.037242  0.292627  0.638668  1
  Sc  Sc6  1  0.707631  0.962284  0.861066  1
  Sc  Sc7  1  0.962295  0.707321  0.361117  1
  Si  Si8  1  0.873135  0.126046  0.250671  1
  Si  Si9  1  0.127520  0.872740  0.749769  1
  Si  Si10  1  0.383373  0.616421  0.250159  1
  Si  Si11  1  0.616453  0.382820  0.750334  1
  Si  Si12  1  0.975118  0.253145  0.892564  1
  Si  Si13  1  0.747802  0.024722  0.606885  1
  Si  Si14  1  0.025544  0.746197  0.108011  1
  Si  Si15  1  0.252495  0.975517  0.392396  1
  Si  Si16  1  0.575353  0.082145  0.065807  1
  Si  Si17  1  0.919409  0.425179  0.433539  1
  Si  Si18  1  0.426608  0.918257  0.933326  1
  Si  Si19  1  0.080298  0.575097  0.567094  1
  Si  Si20  1  0.385566  0.143407  0.397538  1
  Si  Si21  1  0.853798  0.615525  0.103180  1
  Si  Si22  1  0.612899  0.858836  0.601352  1
  Si  Si23  1  0.144007  0.385343  0.897171  1
  Ru  Ru24  1  0.647713  0.830262  0.282042  1
  Ru  Ru25  1  0.168765  0.351039  0.217166  1
  Ru  Ru26  1  0.754720  0.486856  0.070521  1
  Ru  Ru27  1  0.829951  0.648340  0.782852  1
  Ru  Ru28  1  0.896415  0.141805  0.586038  1
  Ru  Ru29  1  0.857978  0.103846  0.913840  1
  Ru  Ru30  1  0.104705  0.857485  0.413546  1
  Ru  Ru31  1  0.143172  0.896574  0.086178  1
  Ru  Ru32  1  0.242763  0.511572  0.932338  1
  Ru  Ru33  1  0.492862  0.750671  0.568775  1
  Ru  Ru34  1  0.507052  0.249502  0.431844  1
  Ru  Ru35  1  0.352142  0.170297  0.717990  1
