# generated using pymatgen
data_Ca2Ti(AsPd)3
_symmetry_space_group_name_H-M   'P 1'
_cell_length_a   6.94440931
_cell_length_b   6.94441037
_cell_length_c   3.94537300
_cell_angle_alpha   90.00000000
_cell_angle_beta   90.00000000
_cell_angle_gamma   119.10393794
_symmetry_Int_Tables_number   1
_chemical_formula_structural   Ca2Ti(AsPd)3
_chemical_formula_sum   'Ca2 Ti1 As3 Pd3'
_cell_volume   166.24185469
_cell_formula_units_Z   1
loop_
 _symmetry_equiv_pos_site_id
 _symmetry_equiv_pos_as_xyz
  1  'x, y, z'
loop_
 _atom_site_type_symbol
 _atom_site_label
 _atom_site_symmetry_multiplicity
 _atom_site_fract_x
 _atom_site_fract_y
 _atom_site_fract_z
 _atom_site_occupancy
  Ca  Ca0  1  0.586573  0.994230  0.000000  1
  Ca  Ca1  1  0.994230  0.586573  0.000000  1
  Ti  Ti2  1  0.404456  0.404456  0.000000  1
  As  As3  1  0.340812  0.636717  0.500000  1
  As  As4  1  0.636717  0.340812  0.500000  1
  As  As5  1  0.034674  0.034674  0.000000  1
  Pd  Pd6  1  0.250333  0.989422  0.500000  1
  Pd  Pd7  1  0.989422  0.250333  0.500000  1
  Pd  Pd8  1  0.762783  0.762783  0.500000  1
