# generated using pymatgen
data_TbZr8Mn(In7Co3)2
_symmetry_space_group_name_H-M   'P 1'
_cell_length_a   9.48390253
_cell_length_b   9.48402757
_cell_length_c   9.48395757
_cell_angle_alpha   60.12647686
_cell_angle_beta   60.12629840
_cell_angle_gamma   60.12948896
_symmetry_Int_Tables_number   1
_chemical_formula_structural   TbZr8Mn(In7Co3)2
_chemical_formula_sum   'Tb1 Zr8 Mn1 In14 Co6'
_cell_volume   604.93168952
_cell_formula_units_Z   1
loop_
 _symmetry_equiv_pos_site_id
 _symmetry_equiv_pos_as_xyz
  1  'x, y, z'
loop_
 _atom_site_type_symbol
 _atom_site_label
 _atom_site_symmetry_multiplicity
 _atom_site_fract_x
 _atom_site_fract_y
 _atom_site_fract_z
 _atom_site_occupancy
  Tb  Tb0  1  0.500000  0.500000  0.500000  1
  Zr  Zr1  1  0.120311  0.639868  0.120353  1
  Zr  Zr2  1  0.360129  0.879699  0.879656  1
  Zr  Zr3  1  0.879522  0.879521  0.879550  1
  Zr  Zr4  1  0.639871  0.120301  0.120344  1
  Zr  Zr5  1  0.879662  0.879656  0.360144  1
  Zr  Zr6  1  0.120478  0.120479  0.120450  1
  Zr  Zr7  1  0.879689  0.360132  0.879647  1
  Zr  Zr8  1  0.120338  0.120344  0.639856  1
  Mn  Mn9  1  0.000000  0.000000  0.000000  1
  In  In10  1  0.499979  0.844799  0.155233  1
  In  In11  1  0.500513  0.844196  0.500623  1
  In  In12  1  0.499487  0.155804  0.499377  1
  In  In13  1  0.500510  0.500620  0.844230  1
  In  In14  1  0.155794  0.499454  0.499459  1
  In  In15  1  0.844819  0.155180  0.499961  1
  In  In16  1  0.155181  0.844820  0.500039  1
  In  In17  1  0.500021  0.155201  0.844767  1
  In  In18  1  0.155206  0.500033  0.844798  1
  In  In19  1  0.499490  0.499380  0.155770  1
  In  In20  1  0.844206  0.500546  0.500541  1
  In  In21  1  0.844794  0.499967  0.155202  1
  In  In22  1  0.249949  0.249955  0.249944  1
  In  In23  1  0.750051  0.750045  0.750056  1
  Co  Co24  1  0.779234  0.779233  0.220401  1
  Co  Co25  1  0.220747  0.779612  0.220746  1
  Co  Co26  1  0.220409  0.779228  0.779235  1
  Co  Co27  1  0.220766  0.220767  0.779599  1
  Co  Co28  1  0.779253  0.220388  0.779254  1
  Co  Co29  1  0.779591  0.220772  0.220765  1
