# generated using pymatgen
data_Cs3Ta2PSe11
_symmetry_space_group_name_H-M   'P 1'
_cell_length_a   10.55094438
_cell_length_b   10.55094399
_cell_length_c   10.42674476
_cell_angle_alpha   85.35153846
_cell_angle_beta   85.35153773
_cell_angle_gamma   86.15411275
_symmetry_Int_Tables_number   1
_chemical_formula_structural   Cs3Ta2PSe11
_chemical_formula_sum   'Cs6 Ta4 P2 Se22'
_cell_volume   1150.96636150
_cell_formula_units_Z   2
loop_
 _symmetry_equiv_pos_site_id
 _symmetry_equiv_pos_as_xyz
  1  'x, y, z'
loop_
 _atom_site_type_symbol
 _atom_site_label
 _atom_site_symmetry_multiplicity
 _atom_site_fract_x
 _atom_site_fract_y
 _atom_site_fract_z
 _atom_site_occupancy
  Cs  Cs0  1  0.355210  0.201658  0.655829  1
  Cs  Cs1  1  0.201658  0.355210  0.155829  1
  Cs  Cs2  1  0.954886  0.817058  0.397270  1
  Cs  Cs3  1  0.817058  0.954886  0.897270  1
  Cs  Cs4  1  0.555075  0.711375  0.566968  1
  Cs  Cs5  1  0.711375  0.555075  0.066968  1
  Ta  Ta6  1  0.458379  0.922305  0.167955  1
  Ta  Ta7  1  0.208030  0.804846  0.983624  1
  Ta  Ta8  1  0.922305  0.458379  0.667955  1
  Ta  Ta9  1  0.804846  0.208030  0.483624  1
  P  P10  1  0.591377  0.250886  0.233882  1
  P  P11  1  0.250886  0.591377  0.733882  1
  Se  Se12  1  0.443821  0.111047  0.322775  1
  Se  Se13  1  0.138447  0.042533  0.924582  1
  Se  Se14  1  0.372639  0.609798  0.909609  1
  Se  Se15  1  0.890173  0.465863  0.418576  1
  Se  Se16  1  0.798084  0.170861  0.236901  1
  Se  Se17  1  0.491587  0.100863  0.985700  1
  Se  Se18  1  0.609798  0.372639  0.409609  1
  Se  Se19  1  0.170861  0.798084  0.736901  1
  Se  Se20  1  0.663978  0.842254  0.223590  1
  Se  Se21  1  0.027059  0.693529  0.064070  1
  Se  Se22  1  0.693529  0.027059  0.564070  1
  Se  Se23  1  0.100863  0.491587  0.485700  1
  Se  Se24  1  0.699232  0.348029  0.681290  1
  Se  Se25  1  0.465863  0.890173  0.918576  1
  Se  Se26  1  0.189796  0.985731  0.142783  1
  Se  Se27  1  0.985731  0.189796  0.642783  1
  Se  Se28  1  0.842254  0.663978  0.723590  1
  Se  Se29  1  0.828530  0.309257  0.862054  1
  Se  Se30  1  0.309257  0.828530  0.362054  1
  Se  Se31  1  0.042533  0.138447  0.424582  1
  Se  Se32  1  0.348029  0.699232  0.181290  1
  Se  Se33  1  0.111047  0.443821  0.822775  1
