# generated using pymatgen
data_Ta2Nb2SiB2W
_symmetry_space_group_name_H-M   'P 1'
_cell_length_a   7.28066516
_cell_length_b   7.27771537
_cell_length_c   7.27653911
_cell_angle_alpha   129.60014186
_cell_angle_beta   129.60825545
_cell_angle_gamma   74.03641865
_symmetry_Int_Tables_number   1
_chemical_formula_structural   Ta2Nb2SiB2W
_chemical_formula_sum   'Ta4 Nb4 Si2 B4 W2'
_cell_volume   223.20143700
_cell_formula_units_Z   2
loop_
 _symmetry_equiv_pos_site_id
 _symmetry_equiv_pos_as_xyz
  1  'x, y, z'
loop_
 _atom_site_type_symbol
 _atom_site_label
 _atom_site_symmetry_multiplicity
 _atom_site_fract_x
 _atom_site_fract_y
 _atom_site_fract_z
 _atom_site_occupancy
  Ta  Ta0  1  0.806120  0.306445  0.835698  1
  Ta  Ta1  1  0.193781  0.693513  0.164527  1
  Ta  Ta2  1  0.470466  0.970684  0.164006  1
  Ta  Ta3  1  0.306306  0.470717  0.499860  1
  Nb  Nb4  1  0.028858  0.193064  0.500285  1
  Nb  Nb5  1  0.529130  0.028966  0.836054  1
  Nb  Nb6  1  0.693246  0.528924  0.500231  1
  Nb  Nb7  1  0.970841  0.806833  0.499792  1
  Si  Si8  1  0.249783  0.250151  0.000372  1
  Si  Si9  1  0.749875  0.749526  0.999609  1
  B  B10  1  0.120231  0.619255  0.738845  1
  B  B11  1  0.882574  0.381658  0.262985  1
  B  B12  1  0.616987  0.882838  0.499108  1
  B  B13  1  0.382058  0.118115  0.499033  1
  W  W14  1  0.999787  0.999670  0.999712  1
  W  W15  1  0.499955  0.499643  0.999884  1
