# generated using pymatgen
data_Pr2Er3Nb3(Co4P3)4
_symmetry_space_group_name_H-M   'P 1'
_cell_length_a   12.27836500
_cell_length_b   12.27836388
_cell_length_c   3.72326200
_cell_angle_alpha   90.00000000
_cell_angle_beta   90.00000000
_cell_angle_gamma   120.00000033
_symmetry_Int_Tables_number   1
_chemical_formula_structural   Pr2Er3Nb3(Co4P3)4
_chemical_formula_sum   'Pr2 Er3 Nb3 Co16 P12'
_cell_volume   486.11079731
_cell_formula_units_Z   1
loop_
 _symmetry_equiv_pos_site_id
 _symmetry_equiv_pos_as_xyz
  1  'x, y, z'
loop_
 _atom_site_type_symbol
 _atom_site_label
 _atom_site_symmetry_multiplicity
 _atom_site_fract_x
 _atom_site_fract_y
 _atom_site_fract_z
 _atom_site_occupancy
  Pr  Pr0  1  0.333333  0.666667  0.000000  1
  Pr  Pr1  1  0.666667  0.333333  0.000000  1
  Er  Er2  1  0.816207  0.000000  0.500000  1
  Er  Er3  1  0.000000  0.816207  0.500000  1
  Er  Er4  1  0.183793  0.183793  0.500000  1
  Nb  Nb5  1  0.444090  0.000000  0.000000  1
  Nb  Nb6  1  0.000000  0.444090  0.000000  1
  Nb  Nb7  1  0.555910  0.555910  0.000000  1
  Co  Co8  1  0.275944  0.000000  0.500000  1
  Co  Co9  1  0.000000  0.275944  0.500000  1
  Co  Co10  1  0.724056  0.724056  0.500000  1
  Co  Co11  1  0.630101  0.805493  0.000000  1
  Co  Co12  1  0.194507  0.824608  0.000000  1
  Co  Co13  1  0.175392  0.369899  0.000000  1
  Co  Co14  1  0.369899  0.175392  0.000000  1
  Co  Co15  1  0.805493  0.630101  0.000000  1
  Co  Co16  1  0.824608  0.194507  0.000000  1
  Co  Co17  1  0.523467  0.876286  0.500000  1
  Co  Co18  1  0.123714  0.647181  0.500000  1
  Co  Co19  1  0.352819  0.476533  0.500000  1
  Co  Co20  1  0.476533  0.352819  0.500000  1
  Co  Co21  1  0.876286  0.523467  0.500000  1
  Co  Co22  1  0.647181  0.123714  0.500000  1
  Co  Co23  1  0.000000  0.000000  0.000000  1
  P  P24  1  0.176226  0.000000  0.000000  1
  P  P25  1  0.000000  0.176226  0.000000  1
  P  P26  1  0.823774  0.823774  0.000000  1
  P  P27  1  0.526711  0.691310  0.500000  1
  P  P28  1  0.308690  0.835400  0.500000  1
  P  P29  1  0.164600  0.473289  0.500000  1
  P  P30  1  0.473289  0.164600  0.500000  1
  P  P31  1  0.691310  0.526711  0.500000  1
  P  P32  1  0.835400  0.308690  0.500000  1
  P  P33  1  0.644098  0.000000  0.000000  1
  P  P34  1  0.000000  0.644098  0.000000  1
  P  P35  1  0.355902  0.355902  0.000000  1
