# generated using pymatgen
data_La8Tb12Si15Se
_symmetry_space_group_name_H-M   'P 1'
_cell_length_a   7.88540265
_cell_length_b   7.82742207
_cell_length_c   14.61299917
_cell_angle_alpha   90.36051696
_cell_angle_beta   89.09765787
_cell_angle_gamma   90.24623416
_symmetry_Int_Tables_number   1
_chemical_formula_structural   La8Tb12Si15Se
_chemical_formula_sum   'La8 Tb12 Si15 Se1'
_cell_volume   901.81135617
_cell_formula_units_Z   1
loop_
 _symmetry_equiv_pos_site_id
 _symmetry_equiv_pos_as_xyz
  1  'x, y, z'
loop_
 _atom_site_type_symbol
 _atom_site_label
 _atom_site_symmetry_multiplicity
 _atom_site_fract_x
 _atom_site_fract_y
 _atom_site_fract_z
 _atom_site_occupancy
  La  La0  1  0.993316  0.635565  0.044563  1
  La  La1  1  0.012695  0.363445  0.542556  1
  La  La2  1  0.638438  0.991344  0.956100  1
  La  La3  1  0.141397  0.510771  0.791649  1
  La  La4  1  0.849794  0.484199  0.287249  1
  La  La5  1  0.506153  0.137374  0.206149  1
  La  La6  1  0.498843  0.865349  0.710431  1
  La  La7  1  0.361698  0.005072  0.457308  1
  Tb  Tb8  1  0.357940  0.494022  0.380411  1
  Tb  Tb9  1  0.854302  0.014334  0.370607  1
  Tb  Tb10  1  0.989288  0.137784  0.125513  1
  Tb  Tb11  1  0.018751  0.860181  0.621291  1
  Tb  Tb12  1  0.640635  0.510773  0.876204  1
  Tb  Tb13  1  0.497643  0.355875  0.627253  1
  Tb  Tb14  1  0.508454  0.638365  0.123671  1
  Tb  Tb15  1  0.137347  0.990799  0.874970  1
  Tb  Tb16  1  0.671661  0.685897  0.501782  1
  Tb  Tb17  1  0.820956  0.185106  0.749455  1
  Tb  Tb18  1  0.181900  0.815811  0.245794  1
  Tb  Tb19  1  0.316391  0.315710  0.000480  1
  Si  Si20  1  0.932182  0.286896  0.939032  1
  Si  Si21  1  0.717714  0.066072  0.560174  1
  Si  Si22  1  0.210991  0.434765  0.190877  1
  Si  Si23  1  0.797456  0.567731  0.687873  1
  Si  Si24  1  0.433698  0.215269  0.813126  1
  Si  Si25  1  0.560366  0.787934  0.311782  1
  Si  Si26  1  0.288553  0.933572  0.060725  1
  Si  Si27  1  0.849468  0.796785  0.804488  1
  Si  Si28  1  0.153989  0.202902  0.310541  1
  Si  Si29  1  0.796092  0.844063  0.190920  1
  Si  Si30  1  0.319337  0.649089  0.575664  1
  Si  Si31  1  0.703273  0.344750  0.058024  1
  Si  Si32  1  0.655584  0.300488  0.442581  1
  Si  Si33  1  0.345580  0.704214  0.942778  1
  Si  Si34  1  0.201695  0.155083  0.692041  1
  Se  Se35  1  0.036422  0.712611  0.425939  1
