# generated using pymatgen
data_ZrPaRh3
_symmetry_space_group_name_H-M   'P 1'
_cell_length_a   5.49087300
_cell_length_b   7.64121300
_cell_length_c   8.71464300
_cell_angle_alpha   90.00000000
_cell_angle_beta   90.00000000
_cell_angle_gamma   90.00000000
_symmetry_Int_Tables_number   1
_chemical_formula_structural   ZrPaRh3
_chemical_formula_sum   'Zr4 Pa4 Rh12'
_cell_volume   365.63966762
_cell_formula_units_Z   4
loop_
 _symmetry_equiv_pos_site_id
 _symmetry_equiv_pos_as_xyz
  1  'x, y, z'
loop_
 _atom_site_type_symbol
 _atom_site_label
 _atom_site_symmetry_multiplicity
 _atom_site_fract_x
 _atom_site_fract_y
 _atom_site_fract_z
 _atom_site_occupancy
  Zr  Zr0  1  0.750000  0.941951  0.410645  1
  Zr  Zr1  1  0.750000  0.441951  0.089355  1
  Zr  Zr2  1  0.250000  0.058049  0.589355  1
  Zr  Zr3  1  0.250000  0.558049  0.910645  1
  Pa  Pa4  1  0.750000  0.892695  0.856822  1
  Pa  Pa5  1  0.750000  0.392695  0.643178  1
  Pa  Pa6  1  0.250000  0.107305  0.143178  1
  Pa  Pa7  1  0.250000  0.607305  0.356822  1
  Rh  Rh8  1  0.750000  0.587567  0.373429  1
  Rh  Rh9  1  0.750000  0.087567  0.126571  1
  Rh  Rh10  1  0.250000  0.412433  0.626571  1
  Rh  Rh11  1  0.250000  0.912433  0.873429  1
  Rh  Rh12  1  0.996950  0.261014  0.372992  1
  Rh  Rh13  1  0.503050  0.761014  0.127008  1
  Rh  Rh14  1  0.496950  0.738986  0.627008  1
  Rh  Rh15  1  0.003050  0.238986  0.872992  1
  Rh  Rh16  1  0.003050  0.738986  0.627008  1
  Rh  Rh17  1  0.496950  0.238986  0.872992  1
  Rh  Rh18  1  0.503050  0.261014  0.372992  1
  Rh  Rh19  1  0.996950  0.761014  0.127008  1
