# generated using pymatgen
data_Mn3Si3(NiW2)2
_symmetry_space_group_name_H-M   'P 1'
_cell_length_a   4.76262037
_cell_length_b   4.76262139
_cell_length_c   7.71019900
_cell_angle_alpha   90.00000000
_cell_angle_beta   90.00000000
_cell_angle_gamma   119.85937331
_symmetry_Int_Tables_number   1
_chemical_formula_structural   Mn3Si3(NiW2)2
_chemical_formula_sum   'Mn3 Si3 Ni2 W4'
_cell_volume   151.67077856
_cell_formula_units_Z   1
loop_
 _symmetry_equiv_pos_site_id
 _symmetry_equiv_pos_as_xyz
  1  'x, y, z'
loop_
 _atom_site_type_symbol
 _atom_site_label
 _atom_site_symmetry_multiplicity
 _atom_site_fract_x
 _atom_site_fract_y
 _atom_site_fract_z
 _atom_site_occupancy
  Mn  Mn0  1  0.825237  0.174763  0.000000  1
  Mn  Mn1  1  0.337764  0.172157  0.000000  1
  Mn  Mn2  1  0.827843  0.662236  0.000000  1
  Si  Si3  1  0.989726  0.010274  0.249220  1
  Si  Si4  1  0.989726  0.010274  0.750780  1
  Si  Si5  1  0.187137  0.812863  0.500000  1
  Ni  Ni6  1  0.675591  0.824189  0.500000  1
  Ni  Ni7  1  0.175811  0.324409  0.500000  1
  W  W8  1  0.330348  0.669652  0.816936  1
  W  W9  1  0.665247  0.334753  0.689470  1
  W  W10  1  0.665247  0.334753  0.310530  1
  W  W11  1  0.330348  0.669652  0.183064  1
