# generated using pymatgen
data_Li4Ni9As6PW
_symmetry_space_group_name_H-M   'P 1'
_cell_length_a   9.43645125
_cell_length_b   9.43179621
_cell_length_c   3.70950900
_cell_angle_alpha   90.00000000
_cell_angle_beta   90.00000000
_cell_angle_gamma   120.33768498
_symmetry_Int_Tables_number   1
_chemical_formula_structural   Li4Ni9As6PW
_chemical_formula_sum   'Li4 Ni9 As6 P1 W1'
_cell_volume   284.94582609
_cell_formula_units_Z   1
loop_
 _symmetry_equiv_pos_site_id
 _symmetry_equiv_pos_as_xyz
  1  'x, y, z'
loop_
 _atom_site_type_symbol
 _atom_site_label
 _atom_site_symmetry_multiplicity
 _atom_site_fract_x
 _atom_site_fract_y
 _atom_site_fract_z
 _atom_site_occupancy
  Li  Li0  1  0.440007  0.209715  0.500000  1
  Li  Li1  1  0.790148  0.232553  0.500000  1
  Li  Li2  1  0.348978  0.664433  0.000000  1
  Li  Li3  1  0.998794  0.007104  0.500000  1
  Ni  Ni4  1  0.289410  0.390367  0.500000  1
  Ni  Ni5  1  0.616382  0.886629  0.500000  1
  Ni  Ni6  1  0.096749  0.720474  0.500000  1
  Ni  Ni7  1  0.501660  0.458334  0.000000  1
  Ni  Ni8  1  0.546219  0.043286  0.000000  1
  Ni  Ni9  1  0.953447  0.500594  0.000000  1
  Ni  Ni10  1  0.711692  0.757261  0.000000  1
  Ni  Ni11  1  0.237314  0.959707  0.000000  1
  Ni  Ni12  1  0.043849  0.283459  0.000000  1
  As  As13  1  0.961138  0.761181  0.000000  1
  As  As14  1  0.241842  0.209889  0.000000  1
  As  As15  1  0.791402  0.034702  0.000000  1
  As  As16  1  0.666599  0.331564  0.000000  1
  As  As17  1  0.374028  0.907921  0.500000  1
  As  As18  1  0.091422  0.468172  0.500000  1
  P  P19  1  0.542621  0.621042  0.500000  1
  W  W20  1  0.756300  0.551612  0.500000  1
