# generated using pymatgen
data_Y20Cd6RePt
_symmetry_space_group_name_H-M   'P 1'
_cell_length_a   9.65464500
_cell_length_b   9.65464539
_cell_length_c   9.92444600
_cell_angle_alpha   90.00000000
_cell_angle_beta   90.00000000
_cell_angle_gamma   120.00000208
_symmetry_Int_Tables_number   1
_chemical_formula_structural   Y20Cd6RePt
_chemical_formula_sum   'Y20 Cd6 Re1 Pt1'
_cell_volume   801.14205894
_cell_formula_units_Z   1
loop_
 _symmetry_equiv_pos_site_id
 _symmetry_equiv_pos_as_xyz
  1  'x, y, z'
loop_
 _atom_site_type_symbol
 _atom_site_label
 _atom_site_symmetry_multiplicity
 _atom_site_fract_x
 _atom_site_fract_y
 _atom_site_fract_z
 _atom_site_occupancy
  Y  Y0  1  0.000000  0.000000  0.498854  1
  Y  Y1  1  0.000000  0.000000  0.001146  1
  Y  Y2  1  0.208777  0.791223  0.443208  1
  Y  Y3  1  0.208777  0.417556  0.443208  1
  Y  Y4  1  0.582444  0.791223  0.443208  1
  Y  Y5  1  0.790356  0.209644  0.558593  1
  Y  Y6  1  0.790356  0.580711  0.558593  1
  Y  Y7  1  0.419289  0.209644  0.558593  1
  Y  Y8  1  0.790356  0.209644  0.941407  1
  Y  Y9  1  0.790356  0.580711  0.941407  1
  Y  Y10  1  0.419289  0.209644  0.941407  1
  Y  Y11  1  0.208777  0.791223  0.056792  1
  Y  Y12  1  0.208777  0.417556  0.056792  1
  Y  Y13  1  0.582444  0.791223  0.056792  1
  Y  Y14  1  0.541812  0.458188  0.250000  1
  Y  Y15  1  0.541812  0.083625  0.250000  1
  Y  Y16  1  0.916375  0.458188  0.250000  1
  Y  Y17  1  0.461406  0.538594  0.750000  1
  Y  Y18  1  0.461406  0.922811  0.750000  1
  Y  Y19  1  0.077189  0.538594  0.750000  1
  Cd  Cd20  1  0.885769  0.114231  0.250000  1
  Cd  Cd21  1  0.885769  0.771537  0.250000  1
  Cd  Cd22  1  0.228463  0.114231  0.250000  1
  Cd  Cd23  1  0.114289  0.885711  0.750000  1
  Cd  Cd24  1  0.114289  0.228578  0.750000  1
  Cd  Cd25  1  0.771422  0.885711  0.750000  1
  Re  Re26  1  0.666667  0.333333  0.750000  1
  Pt  Pt27  1  0.333333  0.666667  0.250000  1
