# generated using pymatgen
data_Cs(IrSe2)4
_symmetry_space_group_name_H-M   'P 1'
_cell_length_a   3.83852364
_cell_length_b   8.50633870
_cell_length_c   9.53375361
_cell_angle_alpha   80.86269823
_cell_angle_beta   78.38627872
_cell_angle_gamma   76.96023818
_symmetry_Int_Tables_number   1
_chemical_formula_structural   Cs(IrSe2)4
_chemical_formula_sum   'Cs1 Ir4 Se8'
_cell_volume   294.95400821
_cell_formula_units_Z   1
loop_
 _symmetry_equiv_pos_site_id
 _symmetry_equiv_pos_as_xyz
  1  'x, y, z'
loop_
 _atom_site_type_symbol
 _atom_site_label
 _atom_site_symmetry_multiplicity
 _atom_site_fract_x
 _atom_site_fract_y
 _atom_site_fract_z
 _atom_site_occupancy
  Cs  Cs0  1  0.499656  0.000226  0.000460  1
  Ir  Ir1  1  0.634810  0.196708  0.533672  1
  Ir  Ir2  1  0.840604  0.498938  0.819852  1
  Ir  Ir3  1  0.159666  0.500465  0.180203  1
  Ir  Ir4  1  0.365153  0.803580  0.466112  1
  Se  Se5  1  0.456640  0.329855  0.756867  1
  Se  Se6  1  0.543565  0.669914  0.242955  1
  Se  Se7  1  0.894302  0.639524  0.571872  1
  Se  Se8  1  0.105497  0.360832  0.428173  1
  Se  Se9  1  0.215707  0.646621  0.921964  1
  Se  Se10  1  0.784467  0.352990  0.078077  1
  Se  Se11  1  0.828414  0.985136  0.358036  1
  Se  Se12  1  0.171518  0.015211  0.641753  1
