# generated using pymatgen
data_Pr8Gd9Tm3Si16
_symmetry_space_group_name_H-M   'P 1'
_cell_length_a   7.49517800
_cell_length_b   7.79431628
_cell_length_c   14.82088400
_cell_angle_alpha   90.00000000
_cell_angle_beta   90.00000000
_cell_angle_gamma   89.96714852
_symmetry_Int_Tables_number   1
_chemical_formula_structural   Pr8Gd9Tm3Si16
_chemical_formula_sum   'Pr8 Gd9 Tm3 Si16'
_cell_volume   865.83275768
_cell_formula_units_Z   1
loop_
 _symmetry_equiv_pos_site_id
 _symmetry_equiv_pos_as_xyz
  1  'x, y, z'
loop_
 _atom_site_type_symbol
 _atom_site_label
 _atom_site_symmetry_multiplicity
 _atom_site_fract_x
 _atom_site_fract_y
 _atom_site_fract_z
 _atom_site_occupancy
  Pr  Pr0  1  0.975594  0.819800  0.097689  1
  Pr  Pr1  1  0.475890  0.679781  0.402697  1
  Pr  Pr2  1  0.523991  0.319219  0.902519  1
  Pr  Pr3  1  0.025554  0.180062  0.597178  1
  Pr  Pr4  1  0.025554  0.180062  0.902822  1
  Pr  Pr5  1  0.523991  0.319219  0.597481  1
  Pr  Pr6  1  0.475890  0.679781  0.097303  1
  Pr  Pr7  1  0.975594  0.819800  0.402311  1
  Gd  Gd8  1  0.352490  0.008793  0.750000  1
  Gd  Gd9  1  0.681187  0.821323  0.877331  1
  Gd  Gd10  1  0.181648  0.679633  0.622379  1
  Gd  Gd11  1  0.817583  0.321462  0.123029  1
  Gd  Gd12  1  0.317349  0.178426  0.376684  1
  Gd  Gd13  1  0.317349  0.178426  0.123316  1
  Gd  Gd14  1  0.817583  0.321462  0.376971  1
  Gd  Gd15  1  0.181648  0.679633  0.877621  1
  Gd  Gd16  1  0.681187  0.821323  0.622669  1
  Tm  Tm17  1  0.649274  0.990021  0.250000  1
  Tm  Tm18  1  0.148969  0.509416  0.250000  1
  Tm  Tm19  1  0.851598  0.491047  0.750000  1
  Si  Si20  1  0.766178  0.623257  0.250000  1
  Si  Si21  1  0.266490  0.876235  0.250000  1
  Si  Si22  1  0.739971  0.124426  0.750000  1
  Si  Si23  1  0.234364  0.381460  0.750000  1
  Si  Si24  1  0.022945  0.106034  0.250000  1
  Si  Si25  1  0.522735  0.393993  0.250000  1
  Si  Si26  1  0.476169  0.603370  0.750000  1
  Si  Si27  1  0.972838  0.894212  0.750000  1
  Si  Si28  1  0.857199  0.528835  0.958966  1
  Si  Si29  1  0.357299  0.970140  0.539066  1
  Si  Si30  1  0.642206  0.029448  0.041165  1
  Si  Si31  1  0.142491  0.470739  0.459452  1
  Si  Si32  1  0.142491  0.470739  0.040548  1
  Si  Si33  1  0.642206  0.029448  0.458835  1
  Si  Si34  1  0.357299  0.970140  0.960934  1
  Si  Si35  1  0.857199  0.528835  0.541034  1
