# generated using pymatgen
data_MnCuBiO5
_symmetry_space_group_name_H-M   'P 1'
_cell_length_a   5.74732500
_cell_length_b   7.78993413
_cell_length_c   8.53556213
_cell_angle_alpha   90.02031626
_cell_angle_beta   90.00001994
_cell_angle_gamma   90.00002942
_symmetry_Int_Tables_number   1
_chemical_formula_structural   MnCuBiO5
_chemical_formula_sum   'Mn4 Cu4 Bi4 O20'
_cell_volume   382.14804497
_cell_formula_units_Z   4
loop_
 _symmetry_equiv_pos_site_id
 _symmetry_equiv_pos_as_xyz
  1  'x, y, z'
loop_
 _atom_site_type_symbol
 _atom_site_label
 _atom_site_symmetry_multiplicity
 _atom_site_fract_x
 _atom_site_fract_y
 _atom_site_fract_z
 _atom_site_occupancy
  Mn  Mn0  1  0.262354  0.500000  0.499999  1
  Mn  Mn1  1  0.737788  0.000000  0.000000  1
  Mn  Mn2  1  0.737533  0.500000  0.500001  1
  Mn  Mn3  1  0.262386  0.000000  0.000000  1
  Cu  Cu4  1  0.499794  0.577663  0.153093  1
  Cu  Cu5  1  0.499794  0.422335  0.846908  1
  Cu  Cu6  1  0.500230  0.077514  0.346965  1
  Cu  Cu7  1  0.500230  0.922487  0.653035  1
  Bi  Bi8  1  0.000012  0.839210  0.332152  1
  Bi  Bi9  1  0.000013  0.160790  0.667848  1
  Bi  Bi10  1  0.999932  0.339172  0.167855  1
  Bi  Bi11  1  0.999933  0.660829  0.832145  1
  O  O12  1  0.000081  0.844961  0.056491  1
  O  O13  1  0.000082  0.155039  0.943510  1
  O  O14  1  0.999954  0.344990  0.443485  1
  O  O15  1  0.999955  0.655010  0.556516  1
  O  O16  1  0.500092  0.857651  0.071130  1
  O  O17  1  0.500091  0.142348  0.928871  1
  O  O18  1  0.499954  0.357612  0.428888  1
  O  O19  1  0.499953  0.642388  0.571112  1
  O  O20  1  0.249311  0.607738  0.293983  1
  O  O21  1  0.249312  0.392262  0.706016  1
  O  O22  1  0.750688  0.107679  0.206096  1
  O  O23  1  0.750687  0.892321  0.793904  1
  O  O24  1  0.750430  0.392262  0.706065  1
  O  O25  1  0.750429  0.607738  0.293935  1
  O  O26  1  0.249556  0.892294  0.793883  1
  O  O27  1  0.249556  0.107706  0.206117  1
  O  O28  1  0.286539  0.499999  0.000000  1
  O  O29  1  0.713557  0.000000  0.500000  1
  O  O30  1  0.712978  0.499999  0.000000  1
  O  O31  1  0.286797  0.000001  0.500000  1
