# generated using pymatgen
data_Tb2Co3Si5P2Ru9
_symmetry_space_group_name_H-M   'P 1'
_cell_length_a   9.44405477
_cell_length_b   9.44067918
_cell_length_c   3.84244300
_cell_angle_alpha   90.00000000
_cell_angle_beta   90.00000000
_cell_angle_gamma   120.40496063
_symmetry_Int_Tables_number   1
_chemical_formula_structural   Tb2Co3Si5P2Ru9
_chemical_formula_sum   'Tb2 Co3 Si5 P2 Ru9'
_cell_volume   295.46979751
_cell_formula_units_Z   1
loop_
 _symmetry_equiv_pos_site_id
 _symmetry_equiv_pos_as_xyz
  1  'x, y, z'
loop_
 _atom_site_type_symbol
 _atom_site_label
 _atom_site_symmetry_multiplicity
 _atom_site_fract_x
 _atom_site_fract_y
 _atom_site_fract_z
 _atom_site_occupancy
  Tb  Tb0  1  0.001302  0.998518  0.000000  1
  Tb  Tb1  1  0.332376  0.664895  0.500000  1
  Co  Co2  1  0.818400  0.606240  0.000000  1
  Co  Co3  1  0.395216  0.218986  0.000000  1
  Co  Co4  1  0.781622  0.175782  0.000000  1
  Si  Si5  1  0.776289  0.727647  0.500000  1
  Si  Si6  1  0.275364  0.052203  0.500000  1
  Si  Si7  1  0.947841  0.222134  0.500000  1
  Si  Si8  1  0.668451  0.333806  0.000000  1
  Si  Si9  1  0.071078  0.629920  0.000000  1
  P  P10  1  0.365314  0.438344  0.000000  1
  P  P11  1  0.559972  0.924683  0.000000  1
  Ru  Ru12  1  0.091847  0.388691  0.000000  1
  Ru  Ru13  1  0.602003  0.694611  0.000000  1
  Ru  Ru14  1  0.308991  0.910924  0.000000  1
  Ru  Ru15  1  0.050562  0.772073  0.500000  1
  Ru  Ru16  1  0.235514  0.285610  0.500000  1
  Ru  Ru17  1  0.712001  0.947739  0.500000  1
  Ru  Ru18  1  0.873613  0.431258  0.500000  1
  Ru  Ru19  1  0.573513  0.442773  0.500000  1
  Ru  Ru20  1  0.558735  0.133161  0.500000  1
