# generated using pymatgen
data_YbErU2(FeB4)4
_symmetry_space_group_name_H-M   'P 1'
_cell_length_a   3.35737900
_cell_length_b   5.87478919
_cell_length_c   11.36026137
_cell_angle_alpha   89.99984997
_cell_angle_beta   90.00000000
_cell_angle_gamma   90.00000000
_symmetry_Int_Tables_number   1
_chemical_formula_structural   YbErU2(FeB4)4
_chemical_formula_sum   'Yb1 Er1 U2 Fe4 B16'
_cell_volume   224.06858917
_cell_formula_units_Z   1
loop_
 _symmetry_equiv_pos_site_id
 _symmetry_equiv_pos_as_xyz
  1  'x, y, z'
loop_
 _atom_site_type_symbol
 _atom_site_label
 _atom_site_symmetry_multiplicity
 _atom_site_fract_x
 _atom_site_fract_y
 _atom_site_fract_z
 _atom_site_occupancy
  Yb  Yb0  1  0.000000  0.373776  0.148645  1
  Er  Er1  1  0.000000  0.626168  0.851787  1
  U  U2  1  0.000000  0.126143  0.651160  1
  U  U3  1  0.000000  0.873423  0.347987  1
  Fe  Fe4  1  0.000000  0.131877  0.908348  1
  Fe  Fe5  1  0.000000  0.868052  0.090317  1
  Fe  Fe6  1  0.000000  0.635143  0.589429  1
  Fe  Fe7  1  0.000000  0.365156  0.411223  1
  B  B8  1  0.500000  0.360829  0.967983  1
  B  B9  1  0.500000  0.639086  0.032197  1
  B  B10  1  0.500000  0.864003  0.533845  1
  B  B11  1  0.500000  0.135586  0.465957  1
  B  B12  1  0.500000  0.476147  0.691151  1
  B  B13  1  0.500000  0.523921  0.309698  1
  B  B14  1  0.500000  0.974812  0.809983  1
  B  B15  1  0.500000  0.024067  0.189521  1
  B  B16  1  0.500000  0.282698  0.815725  1
  B  B17  1  0.500000  0.718352  0.184029  1
  B  B18  1  0.500000  0.783091  0.685439  1
  B  B19  1  0.500000  0.217186  0.315227  1
  B  B20  1  0.500000  0.387078  0.546370  1
  B  B21  1  0.500000  0.612510  0.453614  1
  B  B22  1  0.500000  0.887637  0.955087  1
  B  B23  1  0.500000  0.113259  0.045278  1
