# generated using pymatgen
data_LuPaVB6
_symmetry_space_group_name_H-M   'P 1'
_cell_length_a   3.59976000
_cell_length_b   9.14120500
_cell_length_c   11.51929200
_cell_angle_alpha   90.00000000
_cell_angle_beta   90.00000000
_cell_angle_gamma   90.00000000
_symmetry_Int_Tables_number   1
_chemical_formula_structural   LuPaVB6
_chemical_formula_sum   'Lu4 Pa4 V4 B24'
_cell_volume   379.05548261
_cell_formula_units_Z   4
loop_
 _symmetry_equiv_pos_site_id
 _symmetry_equiv_pos_as_xyz
  1  'x, y, z'
loop_
 _atom_site_type_symbol
 _atom_site_label
 _atom_site_symmetry_multiplicity
 _atom_site_fract_x
 _atom_site_fract_y
 _atom_site_fract_z
 _atom_site_occupancy
  Lu  Lu0  1  0.000000  0.944349  0.372181  1
  Lu  Lu1  1  0.000000  0.055651  0.627819  1
  Lu  Lu2  1  0.000000  0.444349  0.127819  1
  Lu  Lu3  1  0.000000  0.555651  0.872181  1
  Pa  Pa4  1  0.000000  0.322333  0.414088  1
  Pa  Pa5  1  0.000000  0.677667  0.585912  1
  Pa  Pa6  1  0.000000  0.822333  0.085912  1
  Pa  Pa7  1  0.000000  0.177667  0.914088  1
  V  V8  1  0.000000  0.639926  0.320367  1
  V  V9  1  0.000000  0.360074  0.679633  1
  V  V10  1  0.000000  0.139926  0.179633  1
  V  V11  1  0.000000  0.860074  0.820367  1
  B  B12  1  0.500000  0.553074  0.433001  1
  B  B13  1  0.500000  0.446926  0.566999  1
  B  B14  1  0.500000  0.053074  0.066999  1
  B  B15  1  0.500000  0.946926  0.933001  1
  B  B16  1  0.500000  0.750387  0.419544  1
  B  B17  1  0.500000  0.249613  0.580456  1
  B  B18  1  0.500000  0.250387  0.080456  1
  B  B19  1  0.500000  0.749613  0.919544  1
  B  B20  1  0.500000  0.793869  0.264856  1
  B  B21  1  0.500000  0.206131  0.735144  1
  B  B22  1  0.500000  0.293869  0.235144  1
  B  B23  1  0.500000  0.706131  0.764856  1
  B  B24  1  0.500000  0.631705  0.184657  1
  B  B25  1  0.500000  0.368295  0.815343  1
  B  B26  1  0.500000  0.131705  0.315343  1
  B  B27  1  0.500000  0.868295  0.684657  1
  B  B28  1  0.500000  0.981598  0.213101  1
  B  B29  1  0.500000  0.018402  0.786899  1
  B  B30  1  0.500000  0.481598  0.286899  1
  B  B31  1  0.500000  0.518402  0.713101  1
  B  B32  1  0.500000  0.604727  0.028827  1
  B  B33  1  0.500000  0.395273  0.971173  1
  B  B34  1  0.500000  0.104727  0.471173  1
  B  B35  1  0.500000  0.895273  0.528827  1
