# generated using pymatgen
data_Tb11Pr8ScGa16
_symmetry_space_group_name_H-M   'P 1'
_cell_length_a   7.63483392
_cell_length_b   8.04255599
_cell_length_c   15.39622400
_cell_angle_alpha   90.00000000
_cell_angle_beta   90.00000000
_cell_angle_gamma   90.09952106
_symmetry_Int_Tables_number   1
_chemical_formula_structural   Tb11Pr8ScGa16
_chemical_formula_sum   'Tb11 Pr8 Sc1 Ga16'
_cell_volume   945.38183487
_cell_formula_units_Z   1
loop_
 _symmetry_equiv_pos_site_id
 _symmetry_equiv_pos_as_xyz
  1  'x, y, z'
loop_
 _atom_site_type_symbol
 _atom_site_label
 _atom_site_symmetry_multiplicity
 _atom_site_fract_x
 _atom_site_fract_y
 _atom_site_fract_z
 _atom_site_occupancy
  Tb  Tb0  1  0.325942  0.178090  0.623035  1
  Tb  Tb1  1  0.674856  0.824402  0.379073  1
  Tb  Tb2  1  0.662880  0.985618  0.750000  1
  Tb  Tb3  1  0.175089  0.675143  0.379545  1
  Tb  Tb4  1  0.826211  0.327738  0.875434  1
  Tb  Tb5  1  0.826211  0.327738  0.624566  1
  Tb  Tb6  1  0.834276  0.486429  0.250000  1
  Tb  Tb7  1  0.333987  0.013096  0.250000  1
  Tb  Tb8  1  0.325942  0.178090  0.876965  1
  Tb  Tb9  1  0.175089  0.675143  0.120455  1
  Tb  Tb10  1  0.674856  0.824402  0.120927  1
  Pr  Pr11  1  0.016174  0.179775  0.407895  1
  Pr  Pr12  1  0.516879  0.319382  0.406745  1
  Pr  Pr13  1  0.482052  0.678043  0.902711  1
  Pr  Pr14  1  0.482052  0.678043  0.597289  1
  Pr  Pr15  1  0.985955  0.816641  0.596067  1
  Pr  Pr16  1  0.985955  0.816641  0.903933  1
  Pr  Pr17  1  0.516879  0.319382  0.093255  1
  Pr  Pr18  1  0.016174  0.179775  0.092105  1
  Sc  Sc19  1  0.162121  0.506575  0.750000  1
  Ga  Ga20  1  0.270418  0.869828  0.750000  1
  Ga  Ga21  1  0.464806  0.611549  0.250000  1
  Ga  Ga22  1  0.034962  0.114942  0.750000  1
  Ga  Ga23  1  0.524439  0.398343  0.750000  1
  Ga  Ga24  1  0.155230  0.469705  0.542476  1
  Ga  Ga25  1  0.965046  0.888754  0.250000  1
  Ga  Ga26  1  0.725601  0.121080  0.250000  1
  Ga  Ga27  1  0.845459  0.531421  0.038449  1
  Ga  Ga28  1  0.345638  0.968131  0.038026  1
  Ga  Ga29  1  0.155230  0.469705  0.957524  1
  Ga  Ga30  1  0.655422  0.033827  0.540338  1
  Ga  Ga31  1  0.345638  0.968131  0.461974  1
  Ga  Ga32  1  0.845459  0.531421  0.461551  1
  Ga  Ga33  1  0.786767  0.620935  0.750000  1
  Ga  Ga34  1  0.224885  0.378257  0.250000  1
  Ga  Ga35  1  0.655422  0.033827  0.959662  1
