# generated using pymatgen
data_Pr11YSc8(GaO4)12
_symmetry_space_group_name_H-M   'P 1'
_cell_length_a   11.14559543
_cell_length_b   11.14559611
_cell_length_c   11.14061594
_cell_angle_alpha   109.43866998
_cell_angle_beta   109.43867358
_cell_angle_gamma   109.55441588
_symmetry_Int_Tables_number   1
_chemical_formula_structural   Pr11YSc8(GaO4)12
_chemical_formula_sum   'Pr11 Y1 Sc8 Ga12 O48'
_cell_volume   1065.11477118
_cell_formula_units_Z   1
loop_
 _symmetry_equiv_pos_site_id
 _symmetry_equiv_pos_as_xyz
  1  'x, y, z'
loop_
 _atom_site_type_symbol
 _atom_site_label
 _atom_site_symmetry_multiplicity
 _atom_site_fract_x
 _atom_site_fract_y
 _atom_site_fract_z
 _atom_site_occupancy
  Pr  Pr0  1  0.250064  0.375037  0.125052  1
  Pr  Pr1  1  0.750311  0.624926  0.876045  1
  Pr  Pr2  1  0.749985  0.125012  0.374948  1
  Pr  Pr3  1  0.124963  0.249936  0.374948  1
  Pr  Pr4  1  0.374988  0.750015  0.125052  1
  Pr  Pr5  1  0.248882  0.874266  0.623955  1
  Pr  Pr6  1  0.875074  0.749689  0.623955  1
  Pr  Pr7  1  0.625734  0.251118  0.876045  1
  Pr  Pr8  1  0.375000  0.125000  0.250000  1
  Pr  Pr9  1  0.625000  0.875000  0.750000  1
  Pr  Pr10  1  0.125000  0.375000  0.750000  1
  Y  Y11  1  0.875000  0.625000  0.250000  1
  Sc  Sc12  1  0.999681  0.999809  0.000112  1
  Sc  Sc13  1  0.499697  0.999569  0.499888  1
  Sc  Sc14  1  0.999588  0.500299  0.498202  1
  Sc  Sc15  1  0.500431  0.000303  0.000112  1
  Sc  Sc16  1  0.502097  0.501386  0.001798  1
  Sc  Sc17  1  0.500191  0.500319  0.499888  1
  Sc  Sc18  1  0.998614  0.997903  0.498202  1
  Sc  Sc19  1  0.999701  0.500412  0.001798  1
  Ga  Ga20  1  0.248131  0.624610  0.373920  1
  Ga  Ga21  1  0.750073  0.374961  0.625223  1
  Ga  Ga22  1  0.750690  0.874210  0.126080  1
  Ga  Ga23  1  0.375150  0.250263  0.625223  1
  Ga  Ga24  1  0.625790  0.749310  0.373920  1
  Ga  Ga25  1  0.249737  0.124850  0.874777  1
  Ga  Ga26  1  0.125039  0.749927  0.874777  1
  Ga  Ga27  1  0.875390  0.251869  0.126080  1
  Ga  Ga28  1  0.627048  0.377048  0.250000  1
  Ga  Ga29  1  0.375116  0.625116  0.750000  1
  Ga  Ga30  1  0.874884  0.124884  0.750000  1
  Ga  Ga31  1  0.122952  0.872952  0.250000  1
  O  O32  1  0.476863  0.378702  0.292217  1
  O  O33  1  0.524464  0.621914  0.707793  1
  O  O34  1  0.586485  0.184646  0.207783  1
  O  O35  1  0.914212  0.121367  0.597447  1
  O  O36  1  0.292075  0.476098  0.378016  1
  O  O37  1  0.315354  0.913515  0.292217  1
  O  O38  1  0.414121  0.816670  0.792207  1
  O  O39  1  0.078596  0.870085  0.398243  1
  O  O40  1  0.708151  0.524360  0.621605  1
  O  O41  1  0.683330  0.085879  0.707793  1
  O  O42  1  0.023921  0.316765  0.902553  1
  O  O43  1  0.207770  0.585570  0.183049  1
  O  O44  1  0.121298  0.023137  0.207783  1
  O  O45  1  0.971841  0.680353  0.101757  1
  O  O46  1  0.792494  0.414376  0.816783  1
  O  O47  1  0.878086  0.975536  0.792207  1
  O  O48  1  0.598082  0.914059  0.121984  1
  O  O49  1  0.183235  0.476079  0.597447  1
  O  O50  1  0.402756  0.086546  0.878395  1
  O  O51  1  0.819647  0.528159  0.398243  1
  O  O52  1  0.902521  0.024720  0.316951  1
  O  O53  1  0.378633  0.585788  0.902553  1
  O  O54  1  0.097593  0.975711  0.683217  1
  O  O55  1  0.629915  0.421404  0.101757  1
  O  O56  1  0.378085  0.292521  0.475460  1
  O  O57  1  0.585941  0.901918  0.378016  1
  O  O58  1  0.622635  0.707974  0.524118  1
  O  O59  1  0.413454  0.097244  0.621605  1
  O  O60  1  0.121559  0.597980  0.915101  1
  O  O61  1  0.023902  0.207925  0.121984  1
  O  O62  1  0.878135  0.405668  0.089584  1
  O  O63  1  0.975640  0.791849  0.878395  1
  O  O64  1  0.317060  0.902625  0.024540  1
  O  O65  1  0.914430  0.292230  0.316951  1
  O  O66  1  0.683856  0.098517  0.975882  1
  O  O67  1  0.085624  0.707506  0.683217  1
  O  O68  1  0.182880  0.206458  0.584899  1
  O  O69  1  0.475280  0.597479  0.183049  1
  O  O70  1  0.816084  0.788551  0.410416  1
  O  O71  1  0.524289  0.402407  0.816783  1
  O  O72  1  0.293542  0.317120  0.915101  1
  O  O73  1  0.711449  0.683916  0.089584  1
  O  O74  1  0.207479  0.121915  0.024540  1
  O  O75  1  0.792026  0.877365  0.975882  1
  O  O76  1  0.902020  0.378441  0.584899  1
  O  O77  1  0.094332  0.621865  0.410416  1
  O  O78  1  0.597375  0.182940  0.475460  1
  O  O79  1  0.401483  0.816144  0.524118  1
