# generated using pymatgen
data_Dy4CrFe(SbO7)2
_symmetry_space_group_name_H-M   'P 1'
_cell_length_a   7.27898058
_cell_length_b   7.34925522
_cell_length_c   7.30250741
_cell_angle_alpha   59.78801484
_cell_angle_beta   59.73139598
_cell_angle_gamma   59.68010693
_symmetry_Int_Tables_number   1
_chemical_formula_structural   Dy4CrFe(SbO7)2
_chemical_formula_sum   'Dy4 Cr1 Fe1 Sb2 O14'
_cell_volume   274.55566797
_cell_formula_units_Z   1
loop_
 _symmetry_equiv_pos_site_id
 _symmetry_equiv_pos_as_xyz
  1  'x, y, z'
loop_
 _atom_site_type_symbol
 _atom_site_label
 _atom_site_symmetry_multiplicity
 _atom_site_fract_x
 _atom_site_fract_y
 _atom_site_fract_z
 _atom_site_occupancy
  Dy  Dy0  1  0.125000  0.625000  0.125000  1
  Dy  Dy1  1  0.125000  0.125000  0.625000  1
  Dy  Dy2  1  0.625000  0.125000  0.125000  1
  Dy  Dy3  1  0.125000  0.125000  0.125000  1
  Cr  Cr4  1  0.125000  0.625000  0.625000  1
  Fe  Fe5  1  0.625000  0.625000  0.125000  1
  Sb  Sb6  1  0.625000  0.625000  0.625000  1
  Sb  Sb7  1  0.625000  0.125000  0.625000  1
  O  O8  1  0.293222  0.714355  0.703918  1
  O  O9  1  0.545389  0.964244  0.955029  1
  O  O10  1  0.707460  0.293588  0.705364  1
  O  O11  1  0.293222  0.288505  0.703918  1
  O  O12  1  0.704611  0.714663  0.294971  1
  O  O13  1  0.998079  0.002342  0.997236  1
  O  O14  1  0.285451  0.714953  0.284642  1
  O  O15  1  0.964549  0.535047  0.965358  1
  O  O16  1  0.956778  0.961495  0.546082  1
  O  O17  1  0.545389  0.535337  0.955029  1
  O  O18  1  0.251921  0.247658  0.252764  1
  O  O19  1  0.542540  0.956412  0.544636  1
  O  O20  1  0.704611  0.285756  0.294971  1
  O  O21  1  0.956778  0.535645  0.546082  1
