# generated using pymatgen
data_Er8Ga12Ni3Ir
_symmetry_space_group_name_H-M   'P 1'
_cell_length_a   6.98290100
_cell_length_b   8.74002949
_cell_length_c   8.74003000
_cell_angle_alpha   119.99999435
_cell_angle_beta   90.00000000
_cell_angle_gamma   90.00000000
_symmetry_Int_Tables_number   1
_chemical_formula_structural   Er8Ga12Ni3Ir
_chemical_formula_sum   'Er8 Ga12 Ni3 Ir1'
_cell_volume   461.94722514
_cell_formula_units_Z   1
loop_
 _symmetry_equiv_pos_site_id
 _symmetry_equiv_pos_as_xyz
  1  'x, y, z'
loop_
 _atom_site_type_symbol
 _atom_site_label
 _atom_site_symmetry_multiplicity
 _atom_site_fract_x
 _atom_site_fract_y
 _atom_site_fract_z
 _atom_site_occupancy
  Er  Er0  1  0.754990  0.000000  0.000000  1
  Er  Er1  1  0.252540  0.000000  0.000000  1
  Er  Er2  1  0.748870  0.478933  0.521067  1
  Er  Er3  1  0.252191  0.525111  0.474889  1
  Er  Er4  1  0.748870  0.042134  0.521067  1
  Er  Er5  1  0.252191  0.949778  0.474889  1
  Er  Er6  1  0.748870  0.478933  0.957866  1
  Er  Er7  1  0.252191  0.525111  0.050222  1
  Ga  Ga8  1  0.955358  0.828619  0.171381  1
  Ga  Ga9  1  0.046011  0.171480  0.828520  1
  Ga  Ga10  1  0.955358  0.342764  0.171381  1
  Ga  Ga11  1  0.452809  0.172060  0.827940  1
  Ga  Ga12  1  0.046011  0.657039  0.828520  1
  Ga  Ga13  1  0.546928  0.833601  0.166399  1
  Ga  Ga14  1  0.955358  0.828619  0.657236  1
  Ga  Ga15  1  0.452809  0.655879  0.827940  1
  Ga  Ga16  1  0.046011  0.171480  0.342961  1
  Ga  Ga17  1  0.546928  0.332800  0.166399  1
  Ga  Ga18  1  0.452809  0.172060  0.344121  1
  Ga  Ga19  1  0.546928  0.833601  0.667200  1
  Ni  Ni20  1  0.961527  0.666667  0.333333  1
  Ni  Ni21  1  0.026044  0.333333  0.666667  1
  Ni  Ni22  1  0.473395  0.333333  0.666667  1
  Ir  Ir23  1  0.525003  0.666667  0.333333  1
