# generated using pymatgen
data_Tb3Y5Ti7Ge16Mo5
_symmetry_space_group_name_H-M   'P 1'
_cell_length_a   6.94841687
_cell_length_b   7.11060415
_cell_length_c   13.41942401
_cell_angle_alpha   89.93925718
_cell_angle_beta   89.94863127
_cell_angle_gamma   90.03922178
_symmetry_Int_Tables_number   1
_chemical_formula_structural   Tb3Y5Ti7Ge16Mo5
_chemical_formula_sum   'Tb3 Y5 Ti7 Ge16 Mo5'
_cell_volume   663.01861664
_cell_formula_units_Z   1
loop_
 _symmetry_equiv_pos_site_id
 _symmetry_equiv_pos_as_xyz
  1  'x, y, z'
loop_
 _atom_site_type_symbol
 _atom_site_label
 _atom_site_symmetry_multiplicity
 _atom_site_fract_x
 _atom_site_fract_y
 _atom_site_fract_z
 _atom_site_occupancy
  Tb  Tb0  1  0.495974  0.673304  0.905790  1
  Tb  Tb1  1  0.502825  0.328347  0.403010  1
  Tb  Tb2  1  0.005735  0.169934  0.095700  1
  Y  Y3  1  0.003463  0.172037  0.404132  1
  Y  Y4  1  0.503887  0.325876  0.095857  1
  Y  Y5  1  0.496738  0.672176  0.596204  1
  Y  Y6  1  0.995840  0.827397  0.903758  1
  Y  Y7  1  0.996284  0.827201  0.596541  1
  Ti  Ti8  1  0.837935  0.670033  0.371097  1
  Ti  Ti9  1  0.662043  0.168216  0.627693  1
  Ti  Ti10  1  0.161977  0.331174  0.873452  1
  Ti  Ti11  1  0.162287  0.331629  0.627538  1
  Ti  Ti12  1  0.661643  0.167829  0.872578  1
  Ti  Ti13  1  0.841502  0.669478  0.127496  1
  Ti  Ti14  1  0.335645  0.831048  0.371756  1
  Ge  Ge15  1  0.329004  0.043783  0.544270  1
  Ge  Ge16  1  0.828582  0.456683  0.955923  1
  Ge  Ge17  1  0.668608  0.956632  0.044777  1
  Ge  Ge18  1  0.170669  0.544329  0.455705  1
  Ge  Ge19  1  0.172819  0.543289  0.044134  1
  Ge  Ge20  1  0.669573  0.956504  0.455395  1
  Ge  Ge21  1  0.829865  0.456006  0.544800  1
  Ge  Ge22  1  0.327466  0.044645  0.956547  1
  Ge  Ge23  1  0.807813  0.366682  0.249174  1
  Ge  Ge24  1  0.309149  0.132727  0.250444  1
  Ge  Ge25  1  0.692479  0.866192  0.750074  1
  Ge  Ge26  1  0.193746  0.633578  0.750368  1
  Ge  Ge27  1  0.037609  0.872336  0.250591  1
  Ge  Ge28  1  0.536267  0.629991  0.249082  1
  Ge  Ge29  1  0.462599  0.370517  0.750335  1
  Ge  Ge30  1  0.963290  0.129459  0.750164  1
  Mo  Mo31  1  0.335526  0.832329  0.127265  1
  Mo  Mo32  1  0.333813  0.009934  0.750209  1
  Mo  Mo33  1  0.666808  0.987084  0.249054  1
  Mo  Mo34  1  0.165312  0.513510  0.248846  1
  Mo  Mo35  1  0.835223  0.488110  0.750243  1
