# generated using pymatgen
data_Ta8BeFeTe8
_symmetry_space_group_name_H-M   'P 1'
_cell_length_a   4.86268000
_cell_length_b   10.86215100
_cell_length_c   19.12537600
_cell_angle_alpha   90.00000000
_cell_angle_beta   90.00000000
_cell_angle_gamma   90.00000000
_symmetry_Int_Tables_number   1
_chemical_formula_structural   Ta8BeFeTe8
_chemical_formula_sum   'Ta16 Be2 Fe2 Te16'
_cell_volume   1010.18637963
_cell_formula_units_Z   2
loop_
 _symmetry_equiv_pos_site_id
 _symmetry_equiv_pos_as_xyz
  1  'x, y, z'
loop_
 _atom_site_type_symbol
 _atom_site_label
 _atom_site_symmetry_multiplicity
 _atom_site_fract_x
 _atom_site_fract_y
 _atom_site_fract_z
 _atom_site_occupancy
  Ta  Ta0  1  0.494083  0.594873  0.604923  1
  Ta  Ta1  1  0.494083  0.405127  0.395077  1
  Ta  Ta2  1  0.505917  0.094873  0.895077  1
  Ta  Ta3  1  0.505917  0.905127  0.104923  1
  Ta  Ta4  1  0.006737  0.301594  0.463932  1
  Ta  Ta5  1  0.006737  0.698406  0.536068  1
  Ta  Ta6  1  0.993263  0.801594  0.036068  1
  Ta  Ta7  1  0.993263  0.198406  0.963932  1
  Ta  Ta8  1  0.493309  0.314649  0.554175  1
  Ta  Ta9  1  0.493309  0.685351  0.445825  1
  Ta  Ta10  1  0.506691  0.814649  0.945825  1
  Ta  Ta11  1  0.506691  0.185351  0.054175  1
  Ta  Ta12  1  0.005900  0.436361  0.612288  1
  Ta  Ta13  1  0.005900  0.563639  0.387712  1
  Ta  Ta14  1  0.994100  0.936361  0.887712  1
  Ta  Ta15  1  0.994100  0.063639  0.112288  1
  Be  Be16  1  0.250087  0.500000  0.500000  1
  Be  Be17  1  0.749913  0.000000  0.000000  1
  Fe  Fe18  1  0.750052  0.500000  0.500000  1
  Fe  Fe19  1  0.249948  0.000000  0.000000  1
  Te  Te20  1  0.993973  0.666319  0.683740  1
  Te  Te21  1  0.993973  0.333681  0.316260  1
  Te  Te22  1  0.006027  0.166319  0.816260  1
  Te  Te23  1  0.006027  0.833681  0.183740  1
  Te  Te24  1  0.505603  0.388679  0.697002  1
  Te  Te25  1  0.505603  0.611321  0.302998  1
  Te  Te26  1  0.494397  0.888679  0.802998  1
  Te  Te27  1  0.494397  0.111321  0.197002  1
  Te  Te28  1  0.506222  0.153124  0.436565  1
  Te  Te29  1  0.506222  0.846876  0.563435  1
  Te  Te30  1  0.493778  0.653124  0.063435  1
  Te  Te31  1  0.493778  0.346876  0.936565  1
  Te  Te32  1  0.006288  0.324495  0.094580  1
  Te  Te33  1  0.006288  0.675505  0.905420  1
  Te  Te34  1  0.993712  0.824495  0.405420  1
  Te  Te35  1  0.993712  0.175505  0.594580  1
