# generated using pymatgen
data_EuTiH5
_symmetry_space_group_name_H-M   'P 1'
_cell_length_a   11.97386700
_cell_length_b   5.09895700
_cell_length_c   4.50117100
_cell_angle_alpha   90.00000000
_cell_angle_beta   90.00000000
_cell_angle_gamma   90.00000000
_symmetry_Int_Tables_number   1
_chemical_formula_structural   EuTiH5
_chemical_formula_sum   'Eu4 Ti4 H20'
_cell_volume   274.81554281
_cell_formula_units_Z   4
loop_
 _symmetry_equiv_pos_site_id
 _symmetry_equiv_pos_as_xyz
  1  'x, y, z'
loop_
 _atom_site_type_symbol
 _atom_site_label
 _atom_site_symmetry_multiplicity
 _atom_site_fract_x
 _atom_site_fract_y
 _atom_site_fract_z
 _atom_site_occupancy
  Eu  Eu0  1  0.900151  0.999713  0.012112  1
  Eu  Eu1  1  0.099849  0.499713  0.487889  1
  Eu  Eu2  1  0.599850  0.000287  0.512111  1
  Eu  Eu3  1  0.400150  0.500286  0.987887  1
  Ti  Ti4  1  0.195214  0.000076  0.993395  1
  Ti  Ti5  1  0.804786  0.500077  0.506604  1
  Ti  Ti6  1  0.304785  0.999924  0.493396  1
  Ti  Ti7  1  0.695215  0.499923  0.006605  1
  H  H8  1  0.575712  0.743134  0.008736  1
  H  H9  1  0.575725  0.256691  0.008804  1
  H  H10  1  0.852829  0.500011  0.069013  1
  H  H11  1  0.254570  0.265837  0.235522  1
  H  H12  1  0.745453  0.234193  0.264528  1
  H  H13  1  0.254548  0.734192  0.235473  1
  H  H14  1  0.745430  0.765836  0.264479  1
  H  H15  1  0.147172  0.000012  0.430988  1
  H  H16  1  0.424275  0.756692  0.491197  1
  H  H17  1  0.424288  0.243133  0.491265  1
  H  H18  1  0.924287  0.256866  0.508735  1
  H  H19  1  0.924275  0.743309  0.508803  1
  H  H20  1  0.647171  0.499989  0.569014  1
  H  H21  1  0.245430  0.734163  0.735520  1
  H  H22  1  0.754548  0.765806  0.764527  1
  H  H23  1  0.245452  0.265806  0.735471  1
  H  H24  1  0.754570  0.234162  0.764480  1
  H  H25  1  0.352829  0.999986  0.930987  1
  H  H26  1  0.075725  0.243308  0.991195  1
  H  H27  1  0.075713  0.756867  0.991265  1
