# generated using pymatgen
data_BaUF6
_symmetry_space_group_name_H-M   'P 1'
_cell_length_a   7.63233520
_cell_length_b   8.84649637
_cell_length_c   8.98943831
_cell_angle_alpha   101.55963301
_cell_angle_beta   96.55531575
_cell_angle_gamma   114.75331645
_symmetry_Int_Tables_number   1
_chemical_formula_structural   BaUF6
_chemical_formula_sum   'Ba4 U4 F24'
_cell_volume   526.46158676
_cell_formula_units_Z   4
loop_
 _symmetry_equiv_pos_site_id
 _symmetry_equiv_pos_as_xyz
  1  'x, y, z'
loop_
 _atom_site_type_symbol
 _atom_site_label
 _atom_site_symmetry_multiplicity
 _atom_site_fract_x
 _atom_site_fract_y
 _atom_site_fract_z
 _atom_site_occupancy
  Ba  Ba0  1  0.291397  0.761694  0.541452  1
  Ba  Ba1  1  0.295654  0.314166  0.765363  1
  Ba  Ba2  1  0.708603  0.238306  0.458548  1
  Ba  Ba3  1  0.704346  0.685834  0.234637  1
  U  U4  1  0.762169  0.216912  0.934457  1
  U  U5  1  0.181668  0.260354  0.279687  1
  U  U6  1  0.237831  0.783088  0.065543  1
  U  U7  1  0.818332  0.739646  0.720313  1
  F  F8  1  0.082567  0.960665  0.697378  1
  F  F9  1  0.403599  0.631818  0.003166  1
  F  F10  1  0.917433  0.039335  0.302622  1
  F  F11  1  0.233436  0.039931  0.142369  1
  F  F12  1  0.766564  0.960069  0.857631  1
  F  F13  1  0.088468  0.759443  0.270098  1
  F  F14  1  0.884258  0.612598  0.499233  1
  F  F15  1  0.132647  0.716225  0.799300  1
  F  F16  1  0.486627  0.624577  0.701683  1
  F  F17  1  0.315483  0.185114  0.472995  1
  F  F18  1  0.100660  0.242359  0.020483  1
  F  F19  1  0.305310  0.545614  0.289951  1
  F  F20  1  0.694690  0.454386  0.710049  1
  F  F21  1  0.596401  0.368182  0.996834  1
  F  F22  1  0.867353  0.283775  0.200700  1
  F  F23  1  0.519155  0.099198  0.713523  1
  F  F24  1  0.500000  0.000000  0.000000  1
  F  F25  1  0.899340  0.757641  0.979517  1
  F  F26  1  0.911532  0.240557  0.729902  1
  F  F27  1  0.480845  0.900802  0.286477  1
  F  F28  1  0.513373  0.375423  0.298317  1
  F  F29  1  0.000000  0.500000  0.000000  1
  F  F30  1  0.115742  0.387402  0.500767  1
  F  F31  1  0.684517  0.814886  0.527005  1
