# generated using pymatgen
data_Tb3Cd3PtAu2
_symmetry_space_group_name_H-M   'P 1'
_cell_length_a   7.88376400
_cell_length_b   7.88376322
_cell_length_c   3.82688600
_cell_angle_alpha   90.00000000
_cell_angle_beta   90.00000000
_cell_angle_gamma   120.00000328
_symmetry_Int_Tables_number   1
_chemical_formula_structural   Tb3Cd3PtAu2
_chemical_formula_sum   'Tb3 Cd3 Pt1 Au2'
_cell_volume   205.98866829
_cell_formula_units_Z   1
loop_
 _symmetry_equiv_pos_site_id
 _symmetry_equiv_pos_as_xyz
  1  'x, y, z'
loop_
 _atom_site_type_symbol
 _atom_site_label
 _atom_site_symmetry_multiplicity
 _atom_site_fract_x
 _atom_site_fract_y
 _atom_site_fract_z
 _atom_site_occupancy
  Tb  Tb0  1  0.586810  0.983330  0.000000  1
  Tb  Tb1  1  0.016670  0.603480  0.000000  1
  Tb  Tb2  1  0.396520  0.413190  0.000000  1
  Cd  Cd3  1  0.266507  0.002166  0.500000  1
  Cd  Cd4  1  0.997834  0.264341  0.500000  1
  Cd  Cd5  1  0.735659  0.733493  0.500000  1
  Pt  Pt6  1  0.333333  0.666667  0.500000  1
  Au  Au7  1  0.666667  0.333333  0.500000  1
  Au  Au8  1  0.000000  0.000000  0.000000  1
