# generated using pymatgen
data_Tb2UCo2Si7
_symmetry_space_group_name_H-M   'P 1'
_cell_length_a   4.01274560
_cell_length_b   4.02181000
_cell_length_c   12.35853531
_cell_angle_alpha   90.00000000
_cell_angle_beta   99.34316105
_cell_angle_gamma   90.00000000
_symmetry_Int_Tables_number   1
_chemical_formula_structural   Tb2UCo2Si7
_chemical_formula_sum   'Tb2 U1 Co2 Si7'
_cell_volume   196.80228654
_cell_formula_units_Z   1
loop_
 _symmetry_equiv_pos_site_id
 _symmetry_equiv_pos_as_xyz
  1  'x, y, z'
loop_
 _atom_site_type_symbol
 _atom_site_label
 _atom_site_symmetry_multiplicity
 _atom_site_fract_x
 _atom_site_fract_y
 _atom_site_fract_z
 _atom_site_occupancy
  Tb  Tb0  1  0.316382  0.000000  0.632765  1
  Tb  Tb1  1  0.683618  0.000000  0.367235  1
  U  U2  1  0.000000  0.500000  0.000000  1
  Co  Co3  1  0.127419  0.500000  0.254839  1
  Co  Co4  1  0.872581  0.500000  0.745161  1
  Si  Si5  1  0.500000  0.000000  0.000000  1
  Si  Si6  1  0.413873  0.500000  0.827745  1
  Si  Si7  1  0.586127  0.500000  0.172255  1
  Si  Si8  1  0.085997  0.000000  0.171994  1
  Si  Si9  1  0.914003  0.000000  0.828006  1
  Si  Si10  1  0.221181  0.500000  0.442363  1
  Si  Si11  1  0.778819  0.500000  0.557637  1
