# generated using pymatgen
data_SmMgHg(P3Pd10)2
_symmetry_space_group_name_H-M   'P 1'
_cell_length_a   8.65673488
_cell_length_b   8.65673559
_cell_length_c   8.65673500
_cell_angle_alpha   59.99999845
_cell_angle_beta   59.99999573
_cell_angle_gamma   59.99999987
_symmetry_Int_Tables_number   1
_chemical_formula_structural   SmMgHg(P3Pd10)2
_chemical_formula_sum   'Sm1 Mg1 Hg1 P6 Pd20'
_cell_volume   458.71968335
_cell_formula_units_Z   1
loop_
 _symmetry_equiv_pos_site_id
 _symmetry_equiv_pos_as_xyz
  1  'x, y, z'
loop_
 _atom_site_type_symbol
 _atom_site_label
 _atom_site_symmetry_multiplicity
 _atom_site_fract_x
 _atom_site_fract_y
 _atom_site_fract_z
 _atom_site_occupancy
  Sm  Sm0  1  0.750000  0.750000  0.750000  1
  Mg  Mg1  1  0.000000  0.000000  0.000000  1
  Hg  Hg2  1  0.250000  0.250000  0.250000  1
  P  P3  1  0.735434  0.264566  0.264566  1
  P  P4  1  0.264566  0.735434  0.735434  1
  P  P5  1  0.264566  0.735434  0.264566  1
  P  P6  1  0.735434  0.264566  0.735434  1
  P  P7  1  0.264566  0.264566  0.735434  1
  P  P8  1  0.735434  0.735434  0.264566  1
  Pd  Pd9  1  0.382276  0.382276  0.382276  1
  Pd  Pd10  1  0.612761  0.612761  0.612761  1
  Pd  Pd11  1  0.382276  0.382276  0.853172  1
  Pd  Pd12  1  0.382276  0.853172  0.382276  1
  Pd  Pd13  1  0.612761  0.612761  0.161720  1
  Pd  Pd14  1  0.612761  0.161720  0.612761  1
  Pd  Pd15  1  0.853172  0.382276  0.382276  1
  Pd  Pd16  1  0.161720  0.612761  0.612761  1
  Pd  Pd17  1  0.344336  0.998320  0.998320  1
  Pd  Pd18  1  0.659025  0.998320  0.998320  1
  Pd  Pd19  1  0.998320  0.344336  0.659025  1
  Pd  Pd20  1  0.998320  0.659025  0.344336  1
  Pd  Pd21  1  0.998320  0.344336  0.998320  1
  Pd  Pd22  1  0.659025  0.998320  0.344336  1
  Pd  Pd23  1  0.998320  0.659025  0.998320  1
  Pd  Pd24  1  0.344336  0.998320  0.659025  1
  Pd  Pd25  1  0.998320  0.998320  0.344336  1
  Pd  Pd26  1  0.998320  0.998320  0.659025  1
  Pd  Pd27  1  0.659025  0.344336  0.998320  1
  Pd  Pd28  1  0.344336  0.659025  0.998320  1
