# generated using pymatgen
data_Y2ZrPaRh4
_symmetry_space_group_name_H-M   'P 1'
_cell_length_a   4.41278100
_cell_length_b   5.49221791
_cell_length_c   6.86900340
_cell_angle_alpha   91.26714867
_cell_angle_beta   90.00000000
_cell_angle_gamma   90.00000000
_symmetry_Int_Tables_number   1
_chemical_formula_structural   Y2ZrPaRh4
_chemical_formula_sum   'Y2 Zr1 Pa1 Rh4'
_cell_volume   166.43614463
_cell_formula_units_Z   1
loop_
 _symmetry_equiv_pos_site_id
 _symmetry_equiv_pos_as_xyz
  1  'x, y, z'
loop_
 _atom_site_type_symbol
 _atom_site_label
 _atom_site_symmetry_multiplicity
 _atom_site_fract_x
 _atom_site_fract_y
 _atom_site_fract_z
 _atom_site_occupancy
  Y  Y0  1  0.750000  0.858113  0.820582  1
  Y  Y1  1  0.250000  0.349936  0.684907  1
  Zr  Zr2  1  0.250000  0.142894  0.174227  1
  Pa  Pa3  1  0.750000  0.641581  0.318739  1
  Rh  Rh4  1  0.750000  0.161956  0.419073  1
  Rh  Rh5  1  0.250000  0.834705  0.513211  1
  Rh  Rh6  1  0.250000  0.666461  0.076012  1
  Rh  Rh7  1  0.750000  0.344355  0.993248  1
