# generated using pymatgen
data_Ho3Er6Mg(BiAu2)2
_symmetry_space_group_name_H-M   'P 1'
_cell_length_a   8.69957433
_cell_length_b   8.70116693
_cell_length_c   8.69963168
_cell_angle_alpha   125.65460714
_cell_angle_beta   125.65101093
_cell_angle_gamma   80.46672950
_symmetry_Int_Tables_number   1
_chemical_formula_structural   Ho3Er6Mg(BiAu2)2
_chemical_formula_sum   'Ho3 Er6 Mg1 Bi2 Au4'
_cell_volume   419.41030326
_cell_formula_units_Z   1
loop_
 _symmetry_equiv_pos_site_id
 _symmetry_equiv_pos_as_xyz
  1  'x, y, z'
loop_
 _atom_site_type_symbol
 _atom_site_label
 _atom_site_symmetry_multiplicity
 _atom_site_fract_x
 _atom_site_fract_y
 _atom_site_fract_z
 _atom_site_occupancy
  Ho  Ho0  1  0.288995  0.803708  0.811792  1
  Ho  Ho1  1  0.477072  0.289026  0.485250  1
  Ho  Ho2  1  0.803768  0.991891  0.514811  1
  Er  Er3  1  0.499970  0.499847  0.000024  1
  Er  Er4  1  0.008267  0.523093  0.811764  1
  Er  Er5  1  0.711420  0.196619  0.188378  1
  Er  Er6  1  0.522998  0.711366  0.514772  1
  Er  Er7  1  0.196535  0.008148  0.485108  1
  Er  Er8  1  0.991824  0.477026  0.188160  1
  Mg  Mg9  1  0.999945  0.000004  0.000030  1
  Bi  Bi10  1  0.746032  0.745969  0.000010  1
  Bi  Bi11  1  0.254039  0.254187  0.000011  1
  Au  Au12  1  0.634949  0.141564  0.776878  1
  Au  Au13  1  0.364736  0.858106  0.223366  1
  Au  Au14  1  0.141324  0.364792  0.506476  1
  Au  Au15  1  0.858124  0.634652  0.493169  1
