# generated using pymatgen
data_SrPr11(Si7Br3)2
_symmetry_space_group_name_H-M   'P 1'
_cell_length_a   4.12967000
_cell_length_b   11.84410820
_cell_length_c   16.73736363
_cell_angle_alpha   90.21828373
_cell_angle_beta   90.00000000
_cell_angle_gamma   90.00000000
_symmetry_Int_Tables_number   1
_chemical_formula_structural   SrPr11(Si7Br3)2
_chemical_formula_sum   'Sr1 Pr11 Si14 Br6'
_cell_volume   818.65631210
_cell_formula_units_Z   1
loop_
 _symmetry_equiv_pos_site_id
 _symmetry_equiv_pos_as_xyz
  1  'x, y, z'
loop_
 _atom_site_type_symbol
 _atom_site_label
 _atom_site_symmetry_multiplicity
 _atom_site_fract_x
 _atom_site_fract_y
 _atom_site_fract_z
 _atom_site_occupancy
  Sr  Sr0  1  0.000000  0.945913  0.374948  1
  Pr  Pr1  1  0.500000  0.342517  0.500208  1
  Pr  Pr2  1  0.000000  0.657823  0.000804  1
  Pr  Pr3  1  0.500000  0.358972  0.756792  1
  Pr  Pr4  1  0.000000  0.640092  0.744686  1
  Pr  Pr5  1  0.500000  0.359158  0.242156  1
  Pr  Pr6  1  0.000000  0.641326  0.257269  1
  Pr  Pr7  1  0.500000  0.065199  0.880222  1
  Pr  Pr8  1  0.000000  0.934849  0.620299  1
  Pr  Pr9  1  0.500000  0.065756  0.118414  1
  Pr  Pr10  1  0.500000  0.356349  0.999747  1
  Pr  Pr11  1  0.000000  0.640733  0.501463  1
  Si  Si12  1  0.000000  0.151796  0.999623  1
  Si  Si13  1  0.500000  0.842149  0.502849  1
  Si  Si14  1  0.500000  0.567388  0.876984  1
  Si  Si15  1  0.000000  0.431973  0.623905  1
  Si  Si16  1  0.500000  0.567628  0.123840  1
  Si  Si17  1  0.000000  0.432561  0.375927  1
  Si  Si18  1  0.000000  0.253486  0.873908  1
  Si  Si19  1  0.500000  0.745367  0.628177  1
  Si  Si20  1  0.000000  0.253805  0.125224  1
  Si  Si21  1  0.500000  0.740607  0.376807  1
  Si  Si22  1  0.000000  0.457641  0.876854  1
  Si  Si23  1  0.500000  0.541532  0.623735  1
  Si  Si24  1  0.500000  0.540448  0.377083  1
  Si  Si25  1  0.000000  0.458194  0.123395  1
  Br  Br26  1  0.500000  0.108162  0.693487  1
  Br  Br27  1  0.000000  0.891278  0.806468  1
  Br  Br28  1  0.000000  0.142555  0.502397  1
  Br  Br29  1  0.500000  0.860795  0.998625  1
  Br  Br30  1  0.500000  0.113922  0.304864  1
  Br  Br31  1  0.000000  0.890021  0.188843  1
