# generated using pymatgen
data_HoEr7(BCl6)2
_symmetry_space_group_name_H-M   'P 1'
_cell_length_a   3.82621600
_cell_length_b   12.55709700
_cell_length_c   13.01845800
_cell_angle_alpha   90.00297506
_cell_angle_beta   90.00000000
_cell_angle_gamma   90.00000000
_symmetry_Int_Tables_number   1
_chemical_formula_structural   HoEr7(BCl6)2
_chemical_formula_sum   'Ho1 Er7 B2 Cl12'
_cell_volume   625.48698661
_cell_formula_units_Z   1
loop_
 _symmetry_equiv_pos_site_id
 _symmetry_equiv_pos_as_xyz
  1  'x, y, z'
loop_
 _atom_site_type_symbol
 _atom_site_label
 _atom_site_symmetry_multiplicity
 _atom_site_fract_x
 _atom_site_fract_y
 _atom_site_fract_z
 _atom_site_occupancy
  Ho  Ho0  1  0.500000  0.126026  0.851773  1
  Er  Er1  1  0.000000  0.105365  0.083607  1
  Er  Er2  1  0.000000  0.894516  0.916542  1
  Er  Er3  1  0.000000  0.605478  0.416416  1
  Er  Er4  1  0.000000  0.394523  0.583567  1
  Er  Er5  1  0.500000  0.874193  0.147971  1
  Er  Er6  1  0.500000  0.625810  0.647970  1
  Er  Er7  1  0.500000  0.374183  0.352031  1
  B  B8  1  0.500000  0.999809  0.000218  1
  B  B9  1  0.500000  0.500017  0.499985  1
  Cl  Cl10  1  0.500000  0.268319  0.682000  1
  Cl  Cl11  1  0.500000  0.731913  0.317720  1
  Cl  Cl12  1  0.500000  0.767997  0.817665  1
  Cl  Cl13  1  0.500000  0.231986  0.182366  1
  Cl  Cl14  1  0.000000  0.256805  0.930102  1
  Cl  Cl15  1  0.000000  0.743554  0.070316  1
  Cl  Cl16  1  0.000000  0.478537  0.243612  1
  Cl  Cl17  1  0.000000  0.521469  0.756395  1
  Cl  Cl18  1  0.000000  0.978494  0.256427  1
  Cl  Cl19  1  0.000000  0.021012  0.743321  1
  Cl  Cl20  1  0.000000  0.243582  0.429724  1
  Cl  Cl21  1  0.000000  0.756414  0.570272  1
