# generated using pymatgen
data_In2Sb2Cl2O5
_symmetry_space_group_name_H-M   'P 1'
_cell_length_a   6.86243851
_cell_length_b   7.83294009
_cell_length_c   9.71124382
_cell_angle_alpha   107.56791576
_cell_angle_beta   104.38052955
_cell_angle_gamma   102.22458491
_symmetry_Int_Tables_number   1
_chemical_formula_structural   In2Sb2Cl2O5
_chemical_formula_sum   'In4 Sb4 Cl4 O10'
_cell_volume   458.24849221
_cell_formula_units_Z   2
loop_
 _symmetry_equiv_pos_site_id
 _symmetry_equiv_pos_as_xyz
  1  'x, y, z'
loop_
 _atom_site_type_symbol
 _atom_site_label
 _atom_site_symmetry_multiplicity
 _atom_site_fract_x
 _atom_site_fract_y
 _atom_site_fract_z
 _atom_site_occupancy
  In  In0  1  0.414143  0.691630  0.523535  1
  In  In1  1  0.585857  0.308370  0.476465  1
  In  In2  1  0.874476  0.781056  0.360544  1
  In  In3  1  0.125524  0.218944  0.639456  1
  Sb  Sb4  1  0.908679  0.842301  0.761059  1
  Sb  Sb5  1  0.091321  0.157699  0.238941  1
  Sb  Sb6  1  0.691980  0.231678  0.795563  1
  Sb  Sb7  1  0.308020  0.768322  0.204437  1
  Cl  Cl8  1  0.232920  0.603090  0.704064  1
  Cl  Cl9  1  0.767080  0.396910  0.295936  1
  Cl  Cl10  1  0.794283  0.717870  0.074963  1
  Cl  Cl11  1  0.205717  0.282130  0.925037  1
  O  O12  1  0.826382  0.266198  0.640497  1
  O  O13  1  0.173618  0.733802  0.359503  1
  O  O14  1  0.563473  0.778065  0.361667  1
  O  O15  1  0.436527  0.221935  0.638333  1
  O  O16  1  0.653261  0.949925  0.724598  1
  O  O17  1  0.346739  0.050075  0.275402  1
  O  O18  1  0.687082  0.609639  0.611391  1
  O  O19  1  0.312918  0.390361  0.388609  1
  O  O20  1  0.009976  0.916613  0.607099  1
  O  O21  1  0.990024  0.083387  0.392901  1
