# generated using pymatgen
data_Nb12Zn11Ga(CN)2
_symmetry_space_group_name_H-M   'P 1'
_cell_length_a   8.30747115
_cell_length_b   8.32759445
_cell_length_c   8.32363236
_cell_angle_alpha   60.15647484
_cell_angle_beta   60.06420495
_cell_angle_gamma   60.07990743
_symmetry_Int_Tables_number   1
_chemical_formula_structural   Nb12Zn11Ga(CN)2
_chemical_formula_sum   'Nb12 Zn11 Ga1 C2 N2'
_cell_volume   408.10366677
_cell_formula_units_Z   1
loop_
 _symmetry_equiv_pos_site_id
 _symmetry_equiv_pos_as_xyz
  1  'x, y, z'
loop_
 _atom_site_type_symbol
 _atom_site_label
 _atom_site_symmetry_multiplicity
 _atom_site_fract_x
 _atom_site_fract_y
 _atom_site_fract_z
 _atom_site_occupancy
  Nb  Nb0  1  0.430496  0.429732  0.070728  1
  Nb  Nb1  1  0.069044  0.429732  0.070728  1
  Nb  Nb2  1  0.428868  0.071061  0.071204  1
  Nb  Nb3  1  0.068550  0.070395  0.429621  1
  Nb  Nb4  1  0.431436  0.070395  0.429621  1
  Nb  Nb5  1  0.068289  0.432186  0.431237  1
  Nb  Nb6  1  0.818654  0.819642  0.179610  1
  Nb  Nb7  1  0.182095  0.819642  0.179610  1
  Nb  Nb8  1  0.820433  0.180027  0.179107  1
  Nb  Nb9  1  0.180743  0.179006  0.820240  1
  Nb  Nb10  1  0.820011  0.179006  0.820240  1
  Nb  Nb11  1  0.180948  0.819316  0.818790  1
  Zn  Zn12  1  0.832217  0.502207  0.833361  1
  Zn  Zn13  1  0.502041  0.832234  0.833359  1
  Zn  Zn14  1  0.832366  0.832234  0.833359  1
  Zn  Zn15  1  0.417696  0.418035  0.746571  1
  Zn  Zn16  1  0.417920  0.746813  0.417347  1
  Zn  Zn17  1  0.747069  0.417927  0.417223  1
  Zn  Zn18  1  0.417780  0.417927  0.417223  1
  Zn  Zn19  1  0.624913  0.624926  0.125249  1
  Zn  Zn20  1  0.623383  0.126598  0.626638  1
  Zn  Zn21  1  0.126611  0.623363  0.626680  1
  Zn  Zn22  1  0.623347  0.623363  0.626680  1
  Ga  Ga23  1  0.833607  0.832937  0.499851  1
  C  C24  1  0.125454  0.125365  0.623726  1
  C  C25  1  0.125223  0.625428  0.124126  1
  N  N26  1  0.625497  0.125253  0.123938  1
  N  N27  1  0.125312  0.125253  0.123938  1
