# generated using pymatgen
data_Sr2HgPt4PbO14
_symmetry_space_group_name_H-M   'P 1'
_cell_length_a   7.39483664
_cell_length_b   7.34821325
_cell_length_c   7.48177100
_cell_angle_alpha   59.59359915
_cell_angle_beta   60.38362490
_cell_angle_gamma   59.78988941
_symmetry_Int_Tables_number   1
_chemical_formula_structural   Sr2HgPt4PbO14
_chemical_formula_sum   'Sr2 Hg1 Pt4 Pb1 O14'
_cell_volume   286.93880764
_cell_formula_units_Z   1
loop_
 _symmetry_equiv_pos_site_id
 _symmetry_equiv_pos_as_xyz
  1  'x, y, z'
loop_
 _atom_site_type_symbol
 _atom_site_label
 _atom_site_symmetry_multiplicity
 _atom_site_fract_x
 _atom_site_fract_y
 _atom_site_fract_z
 _atom_site_occupancy
  Sr  Sr0  1  0.125000  0.125000  0.125000  1
  Sr  Sr1  1  0.625000  0.125000  0.125000  1
  Hg  Hg2  1  0.125000  0.625000  0.125000  1
  Pt  Pt3  1  0.625000  0.625000  0.125000  1
  Pt  Pt4  1  0.625000  0.625000  0.625000  1
  Pt  Pt5  1  0.625000  0.125000  0.625000  1
  Pt  Pt6  1  0.125000  0.625000  0.625000  1
  Pb  Pb7  1  0.125000  0.125000  0.625000  1
  O  O8  1  0.704113  0.293373  0.298402  1
  O  O9  1  0.716286  0.290792  0.700054  1
  O  O10  1  0.023040  0.977824  0.976095  1
  O  O11  1  0.299465  0.700036  0.301812  1
  O  O12  1  0.698687  0.700036  0.301812  1
  O  O13  1  0.951286  0.538179  0.559250  1
  O  O14  1  0.298714  0.711821  0.690750  1
  O  O15  1  0.226960  0.272176  0.273905  1
  O  O16  1  0.950535  0.549964  0.948188  1
  O  O17  1  0.533714  0.959208  0.549946  1
  O  O18  1  0.551313  0.549964  0.948188  1
  O  O19  1  0.957130  0.959208  0.549946  1
  O  O20  1  0.545887  0.956627  0.951598  1
  O  O21  1  0.292870  0.290792  0.700054  1
