# generated using pymatgen
data_La2Tb5Dy(WO6)4
_symmetry_space_group_name_H-M   'P 1'
_cell_length_a   5.48631310
_cell_length_b   7.82321837
_cell_length_c   11.63429077
_cell_angle_alpha   75.72648069
_cell_angle_beta   89.99647109
_cell_angle_gamma   89.97771035
_symmetry_Int_Tables_number   1
_chemical_formula_structural   La2Tb5Dy(WO6)4
_chemical_formula_sum   'La2 Tb5 Dy1 W4 O24'
_cell_volume   483.93592575
_cell_formula_units_Z   1
loop_
 _symmetry_equiv_pos_site_id
 _symmetry_equiv_pos_as_xyz
  1  'x, y, z'
loop_
 _atom_site_type_symbol
 _atom_site_label
 _atom_site_symmetry_multiplicity
 _atom_site_fract_x
 _atom_site_fract_y
 _atom_site_fract_z
 _atom_site_occupancy
  La  La0  1  0.685870  0.499974  0.749929  1
  La  La1  1  0.314211  0.499611  0.250362  1
  Tb  Tb2  1  0.740939  0.000145  0.749734  1
  Tb  Tb3  1  0.259142  0.000164  0.250312  1
  Tb  Tb4  1  0.187757  0.798572  0.575925  1
  Tb  Tb5  1  0.812006  0.798353  0.076029  1
  Tb  Tb6  1  0.187979  0.201678  0.923934  1
  Dy  Dy7  1  0.812363  0.201938  0.423734  1
  W  W8  1  0.251805  0.728640  0.883824  1
  W  W9  1  0.748148  0.728488  0.383853  1
  W  W10  1  0.251993  0.271183  0.615826  1
  W  W11  1  0.748330  0.271294  0.116415  1
  O  O12  1  0.041030  0.940975  0.895803  1
  O  O13  1  0.528948  0.846550  0.930411  1
  O  O14  1  0.957746  0.941803  0.395918  1
  O  O15  1  0.453323  0.794928  0.728196  1
  O  O16  1  0.470594  0.846118  0.430453  1
  O  O17  1  0.986698  0.720854  0.769670  1
  O  O18  1  0.546545  0.794675  0.228342  1
  O  O19  1  0.856407  0.643096  0.543554  1
  O  O20  1  0.346638  0.495613  0.887130  1
  O  O21  1  0.013470  0.721066  0.269914  1
  O  O22  1  0.346415  0.504148  0.612536  1
  O  O23  1  0.856298  0.356925  0.956551  1
  O  O24  1  0.143715  0.642981  0.043612  1
  O  O25  1  0.654139  0.495191  0.387228  1
  O  O26  1  0.986994  0.279148  0.730214  1
  O  O27  1  0.653321  0.504275  0.112926  1
  O  O28  1  0.142368  0.356484  0.456243  1
  O  O29  1  0.453442  0.204951  0.771479  1
  O  O30  1  0.013095  0.279054  0.230797  1
  O  O31  1  0.529923  0.154134  0.568762  1
  O  O32  1  0.547455  0.204961  0.272401  1
  O  O33  1  0.040914  0.059250  0.603820  1
  O  O34  1  0.470913  0.153653  0.069922  1
  O  O35  1  0.959069  0.059125  0.104240  1
