# generated using pymatgen
data_Yb7Pr(SmRu2)2
_symmetry_space_group_name_H-M   'P 1'
_cell_length_a   8.54790182
_cell_length_b   8.58564310
_cell_length_c   7.43135028
_cell_angle_alpha   82.83252321
_cell_angle_beta   82.80391295
_cell_angle_gamma   43.84556233
_symmetry_Int_Tables_number   1
_chemical_formula_structural   Yb7Pr(SmRu2)2
_chemical_formula_sum   'Yb7 Pr1 Sm2 Ru4'
_cell_volume   374.34834665
_cell_formula_units_Z   1
loop_
 _symmetry_equiv_pos_site_id
 _symmetry_equiv_pos_as_xyz
  1  'x, y, z'
loop_
 _atom_site_type_symbol
 _atom_site_label
 _atom_site_symmetry_multiplicity
 _atom_site_fract_x
 _atom_site_fract_y
 _atom_site_fract_z
 _atom_site_occupancy
  Yb  Yb0  1  0.204531  0.974237  0.577295  1
  Yb  Yb1  1  0.976373  0.204334  0.082850  1
  Yb  Yb2  1  0.801951  0.024635  0.417273  1
  Yb  Yb3  1  0.365709  0.200570  0.819217  1
  Yb  Yb4  1  0.796560  0.637698  0.677519  1
  Yb  Yb5  1  0.631340  0.799401  0.177742  1
  Yb  Yb6  1  0.198469  0.365686  0.323206  1
  Pr  Pr7  1  0.029211  0.796571  0.919763  1
  Sm  Sm8  1  0.579351  0.423862  0.747743  1
  Sm  Sm9  1  0.433360  0.567625  0.252924  1
  Ru  Ru10  1  0.176352  0.606216  0.583348  1
  Ru  Ru11  1  0.388038  0.816653  0.924342  1
  Ru  Ru12  1  0.818524  0.402176  0.421630  1
  Ru  Ru13  1  0.600230  0.180337  0.075148  1
