# generated using pymatgen
data_Er2Si2NiOs
_symmetry_space_group_name_H-M   'P 1'
_cell_length_a   4.21655100
_cell_length_b   6.85194103
_cell_length_c   7.17226610
_cell_angle_alpha   91.49928839
_cell_angle_beta   90.00000000
_cell_angle_gamma   90.00000000
_symmetry_Int_Tables_number   1
_chemical_formula_structural   Er2Si2NiOs
_chemical_formula_sum   'Er4 Si4 Ni2 Os2'
_cell_volume   207.14700664
_cell_formula_units_Z   2
loop_
 _symmetry_equiv_pos_site_id
 _symmetry_equiv_pos_as_xyz
  1  'x, y, z'
loop_
 _atom_site_type_symbol
 _atom_site_label
 _atom_site_symmetry_multiplicity
 _atom_site_fract_x
 _atom_site_fract_y
 _atom_site_fract_z
 _atom_site_occupancy
  Er  Er0  1  0.250000  0.489337  0.180835  1
  Er  Er1  1  0.750000  0.510663  0.819165  1
  Er  Er2  1  0.750000  0.008209  0.700077  1
  Er  Er3  1  0.250000  0.991791  0.299923  1
  Si  Si4  1  0.250000  0.803046  0.895708  1
  Si  Si5  1  0.750000  0.196954  0.104292  1
  Si  Si6  1  0.750000  0.700811  0.399518  1
  Si  Si7  1  0.250000  0.299189  0.600482  1
  Ni  Ni8  1  0.750000  0.839256  0.075334  1
  Ni  Ni9  1  0.250000  0.160744  0.924666  1
  Os  Os10  1  0.250000  0.657509  0.569662  1
  Os  Os11  1  0.750000  0.342491  0.430338  1
