# generated using pymatgen
data_Ce3CdCu3Bi2
_symmetry_space_group_name_H-M   'P 1'
_cell_length_a   18.94264222
_cell_length_b   17.49075247
_cell_length_c   10.36532700
_cell_angle_alpha   90.00000000
_cell_angle_beta   90.00000000
_cell_angle_gamma   117.12868864
_symmetry_Int_Tables_number   1
_chemical_formula_structural   Ce3CdCu3Bi2
_chemical_formula_sum   'Ce3 Cd1 Cu3 Bi2'
_cell_volume   3056.43066165
_cell_formula_units_Z   1
loop_
 _symmetry_equiv_pos_site_id
 _symmetry_equiv_pos_as_xyz
  1  'x, y, z'
loop_
 _atom_site_type_symbol
 _atom_site_label
 _atom_site_symmetry_multiplicity
 _atom_site_fract_x
 _atom_site_fract_y
 _atom_site_fract_z
 _atom_site_occupancy
  Ce  Ce0  1  0.391615  0.395191  0.500000  1
  Ce  Ce1  1  0.608073  0.003737  0.500000  1
  Ce  Ce2  1  0.000510  0.584529  0.500000  1
  Cd  Cd3  1  0.999816  0.272725  0.000000  1
  Cu  Cu4  1  0.681044  0.330029  0.000000  1
  Cu  Cu5  1  0.318863  0.649456  0.000000  1
  Cu  Cu6  1  0.999917  0.020398  0.500000  1
  Bi  Bi7  1  0.717217  0.730840  0.000000  1
  Bi  Bi8  1  0.282944  0.013094  0.000000  1
