# generated using pymatgen
data_Ce5Si2Ru
_symmetry_space_group_name_H-M   'P 1'
_cell_length_a   7.77277700
_cell_length_b   8.74483900
_cell_length_c   11.67411800
_cell_angle_alpha   90.00000000
_cell_angle_beta   90.00000000
_cell_angle_gamma   90.00000000
_symmetry_Int_Tables_number   1
_chemical_formula_structural   Ce5Si2Ru
_chemical_formula_sum   'Ce20 Si8 Ru4'
_cell_volume   793.50945323
_cell_formula_units_Z   4
loop_
 _symmetry_equiv_pos_site_id
 _symmetry_equiv_pos_as_xyz
  1  'x, y, z'
loop_
 _atom_site_type_symbol
 _atom_site_label
 _atom_site_symmetry_multiplicity
 _atom_site_fract_x
 _atom_site_fract_y
 _atom_site_fract_z
 _atom_site_occupancy
  Ce  Ce0  1  0.703724  0.464960  0.931964  1
  Ce  Ce1  1  0.203724  0.964961  0.568036  1
  Ce  Ce2  1  0.703724  0.035040  0.931964  1
  Ce  Ce3  1  0.796276  0.464960  0.431964  1
  Ce  Ce4  1  0.976893  0.750000  0.997742  1
  Ce  Ce5  1  0.476893  0.250000  0.502258  1
  Ce  Ce6  1  0.023107  0.250000  0.002258  1
  Ce  Ce7  1  0.523107  0.750000  0.497742  1
  Ce  Ce8  1  0.296276  0.535039  0.068036  1
  Ce  Ce9  1  0.796276  0.035040  0.431964  1
  Ce  Ce10  1  0.296276  0.964961  0.068036  1
  Ce  Ce11  1  0.203724  0.535039  0.568036  1
  Ce  Ce12  1  0.369460  0.750000  0.794153  1
  Ce  Ce13  1  0.869460  0.250000  0.705847  1
  Ce  Ce14  1  0.630540  0.250000  0.205847  1
  Ce  Ce15  1  0.130540  0.750000  0.294153  1
  Ce  Ce16  1  0.846113  0.750000  0.712430  1
  Ce  Ce17  1  0.346113  0.250000  0.787570  1
  Ce  Ce18  1  0.153887  0.250000  0.287570  1
  Ce  Ce19  1  0.653887  0.750000  0.212430  1
  Si  Si20  1  0.577526  0.495529  0.672186  1
  Si  Si21  1  0.922474  0.004471  0.172186  1
  Si  Si22  1  0.422474  0.995529  0.327814  1
  Si  Si23  1  0.077526  0.504471  0.827814  1
  Si  Si24  1  0.422474  0.504471  0.327814  1
  Si  Si25  1  0.077526  0.995529  0.827814  1
  Si  Si26  1  0.577526  0.004471  0.672186  1
  Si  Si27  1  0.922474  0.495529  0.172186  1
  Ru  Ru28  1  0.578560  0.750000  0.976382  1
  Ru  Ru29  1  0.078560  0.250000  0.523618  1
  Ru  Ru30  1  0.421440  0.250000  0.023618  1
  Ru  Ru31  1  0.921440  0.750000  0.476382  1
