# generated using pymatgen
data_Dy3As4Rh7
_symmetry_space_group_name_H-M   'P 1'
_cell_length_a   7.96237701
_cell_length_b   7.96237724
_cell_length_c   9.41424637
_cell_angle_alpha   56.60964421
_cell_angle_beta   56.60964327
_cell_angle_gamma   29.44004947
_symmetry_Int_Tables_number   1
_chemical_formula_structural   Dy3As4Rh7
_chemical_formula_sum   'Dy3 As4 Rh7'
_cell_volume   241.24038442
_cell_formula_units_Z   1
loop_
 _symmetry_equiv_pos_site_id
 _symmetry_equiv_pos_as_xyz
  1  'x, y, z'
loop_
 _atom_site_type_symbol
 _atom_site_label
 _atom_site_symmetry_multiplicity
 _atom_site_fract_x
 _atom_site_fract_y
 _atom_site_fract_z
 _atom_site_occupancy
  Dy  Dy0  1  0.500000  0.500000  0.500000  1
  Dy  Dy1  1  0.832634  0.832634  0.161632  1
  Dy  Dy2  1  0.167366  0.167366  0.838368  1
  As  As3  1  0.390768  0.390768  0.329484  1
  As  As4  1  0.609232  0.609232  0.670516  1
  As  As5  1  0.832758  0.832758  0.770371  1
  As  As6  1  0.167242  0.167242  0.229629  1
  Rh  Rh7  1  0.666811  0.666811  0.074592  1
  Rh  Rh8  1  0.009208  0.009208  0.222189  1
  Rh  Rh9  1  0.990792  0.990792  0.777811  1
  Rh  Rh10  1  0.500000  0.500000  0.000000  1
  Rh  Rh11  1  0.197608  0.197608  0.459905  1
  Rh  Rh12  1  0.802392  0.802392  0.540095  1
  Rh  Rh13  1  0.333189  0.333189  0.925408  1
