# generated using pymatgen
data_K4Li2DyInSb4
_symmetry_space_group_name_H-M   'P 1'
_cell_length_a   9.62538279
_cell_length_b   9.62541949
_cell_length_c   9.62538094
_cell_angle_alpha   137.17652688
_cell_angle_beta   62.08705429
_cell_angle_gamma   137.27955981
_symmetry_Int_Tables_number   1
_chemical_formula_structural   K4Li2DyInSb4
_chemical_formula_sum   'K4 Li2 Dy1 In1 Sb4'
_cell_volume   406.37967849
_cell_formula_units_Z   1
loop_
 _symmetry_equiv_pos_site_id
 _symmetry_equiv_pos_as_xyz
  1  'x, y, z'
loop_
 _atom_site_type_symbol
 _atom_site_label
 _atom_site_symmetry_multiplicity
 _atom_site_fract_x
 _atom_site_fract_y
 _atom_site_fract_z
 _atom_site_occupancy
  K  K0  1  0.817037  0.255045  0.088567  1
  K  K1  1  0.682987  0.771534  0.438025  1
  K  K2  1  0.333522  0.244955  0.561992  1
  K  K3  1  0.166491  0.728467  0.911454  1
  Li  Li4  1  0.750005  0.250000  0.500005  1
  Li  Li5  1  0.250007  0.750001  0.500007  1
  Dy  Dy6  1  0.249997  0.250000  0.999997  1
  In  In7  1  0.749870  0.749999  0.999871  1
  Sb  Sb8  1  0.403426  0.752910  0.147556  1
  Sb  Sb9  1  0.096631  0.244185  0.349564  1
  Sb  Sb10  1  0.894647  0.747092  0.650517  1
  Sb  Sb11  1  0.605379  0.255815  0.852446  1
