# generated using pymatgen
data_Ba4Fe2CoO10
_symmetry_space_group_name_H-M   'P 1'
_cell_length_a   7.20735217
_cell_length_b   7.20735233
_cell_length_c   13.11279000
_cell_angle_alpha   90.00000000
_cell_angle_beta   90.00000000
_cell_angle_gamma   132.44046640
_symmetry_Int_Tables_number   1
_chemical_formula_structural   Ba4Fe2CoO10
_chemical_formula_sum   'Ba8 Fe4 Co2 O20'
_cell_volume   502.67878474
_cell_formula_units_Z   2
loop_
 _symmetry_equiv_pos_site_id
 _symmetry_equiv_pos_as_xyz
  1  'x, y, z'
loop_
 _atom_site_type_symbol
 _atom_site_label
 _atom_site_symmetry_multiplicity
 _atom_site_fract_x
 _atom_site_fract_y
 _atom_site_fract_z
 _atom_site_occupancy
  Ba  Ba0  1  0.242726  0.757274  0.889609  1
  Ba  Ba1  1  0.757274  0.242726  0.110391  1
  Ba  Ba2  1  0.257274  0.742726  0.389609  1
  Ba  Ba3  1  0.742726  0.257274  0.610391  1
  Ba  Ba4  1  0.036999  0.963001  0.638138  1
  Ba  Ba5  1  0.963001  0.036999  0.361862  1
  Ba  Ba6  1  0.463001  0.536999  0.138138  1
  Ba  Ba7  1  0.536999  0.463001  0.861862  1
  Fe  Fe8  1  0.376892  0.623108  0.652933  1
  Fe  Fe9  1  0.623108  0.376892  0.347067  1
  Fe  Fe10  1  0.123108  0.876892  0.152933  1
  Fe  Fe11  1  0.876892  0.123108  0.847067  1
  Co  Co12  1  0.500000  0.500000  0.500000  1
  Co  Co13  1  0.000000  0.000000  0.000000  1
  O  O14  1  0.133030  0.366970  0.750000  1
  O  O15  1  0.366970  0.133030  0.250000  1
  O  O16  1  0.866970  0.633030  0.250000  1
  O  O17  1  0.633030  0.866970  0.750000  1
  O  O18  1  0.380342  0.178285  0.467880  1
  O  O19  1  0.178285  0.380342  0.532120  1
  O  O20  1  0.119658  0.321715  0.967880  1
  O  O21  1  0.321715  0.119658  0.032120  1
  O  O22  1  0.619658  0.821715  0.532120  1
  O  O23  1  0.821715  0.619658  0.467880  1
  O  O24  1  0.880342  0.678285  0.032120  1
  O  O25  1  0.678285  0.880342  0.967880  1
  O  O26  1  0.236532  0.763468  0.650435  1
  O  O27  1  0.763468  0.236532  0.349565  1
  O  O28  1  0.968492  0.031508  0.144265  1
  O  O29  1  0.031508  0.968492  0.855735  1
  O  O30  1  0.531508  0.468492  0.644265  1
  O  O31  1  0.468492  0.531508  0.355735  1
  O  O32  1  0.736532  0.263468  0.849565  1
  O  O33  1  0.263468  0.736532  0.150435  1
