# generated using pymatgen
data_MnCr2FeIr4
_symmetry_space_group_name_H-M   'P 1'
_cell_length_a   5.33318600
_cell_length_b   5.31852439
_cell_length_c   4.18182600
_cell_angle_alpha   90.00000000
_cell_angle_beta   90.00000000
_cell_angle_gamma   120.09123311
_symmetry_Int_Tables_number   1
_chemical_formula_structural   MnCr2FeIr4
_chemical_formula_sum   'Mn1 Cr2 Fe1 Ir4'
_cell_volume   102.63003640
_cell_formula_units_Z   1
loop_
 _symmetry_equiv_pos_site_id
 _symmetry_equiv_pos_as_xyz
  1  'x, y, z'
loop_
 _atom_site_type_symbol
 _atom_site_label
 _atom_site_symmetry_multiplicity
 _atom_site_fract_x
 _atom_site_fract_y
 _atom_site_fract_z
 _atom_site_occupancy
  Mn  Mn0  1  0.169436  0.338871  0.250000  1
  Cr  Cr1  1  0.328439  0.656880  0.750000  1
  Cr  Cr2  1  0.673114  0.346226  0.250000  1
  Fe  Fe3  1  0.831060  0.662121  0.750000  1
  Ir  Ir4  1  0.661943  0.819460  0.250000  1
  Ir  Ir5  1  0.157518  0.819460  0.250000  1
  Ir  Ir6  1  0.339282  0.178491  0.750000  1
  Ir  Ir7  1  0.839210  0.178491  0.750000  1
