# generated using pymatgen
data_LiDy16Tl2AgRh4
_symmetry_space_group_name_H-M   'P 1'
_cell_length_a   9.64820156
_cell_length_b   9.65095829
_cell_length_c   9.61118600
_cell_angle_alpha   59.79905567
_cell_angle_beta   59.99432744
_cell_angle_gamma   59.85113758
_symmetry_Int_Tables_number   1
_chemical_formula_structural   LiDy16Tl2AgRh4
_chemical_formula_sum   'Li1 Dy16 Tl2 Ag1 Rh4'
_cell_volume   631.11265247
_cell_formula_units_Z   1
loop_
 _symmetry_equiv_pos_site_id
 _symmetry_equiv_pos_as_xyz
  1  'x, y, z'
loop_
 _atom_site_type_symbol
 _atom_site_label
 _atom_site_symmetry_multiplicity
 _atom_site_fract_x
 _atom_site_fract_y
 _atom_site_fract_z
 _atom_site_occupancy
  Li  Li0  1  0.209517  0.928717  0.934712  1
  Dy  Dy1  1  0.690883  0.311425  0.310043  1
  Dy  Dy2  1  0.690490  0.688306  0.311161  1
  Dy  Dy3  1  0.314612  0.687510  0.313139  1
  Dy  Dy4  1  0.936924  0.934682  0.556874  1
  Dy  Dy5  1  0.146591  0.151615  0.548759  1
  Dy  Dy6  1  0.563752  0.938141  0.558152  1
  Dy  Dy7  1  0.152067  0.152960  0.152266  1
  Dy  Dy8  1  0.314349  0.312825  0.687659  1
  Dy  Dy9  1  0.938210  0.568217  0.556461  1
  Dy  Dy10  1  0.563015  0.563381  0.935594  1
  Dy  Dy11  1  0.563903  0.935247  0.934979  1
  Dy  Dy12  1  0.937806  0.562704  0.933639  1
  Dy  Dy13  1  0.148942  0.546361  0.150097  1
  Dy  Dy14  1  0.315299  0.686360  0.686573  1
  Dy  Dy15  1  0.693150  0.307487  0.690411  1
  Dy  Dy16  1  0.554606  0.149381  0.147158  1
  Tl  Tl17  1  0.921010  0.249596  0.920447  1
  Tl  Tl18  1  0.920214  0.913109  0.918916  1
  Ag  Ag19  1  0.918402  0.913158  0.254930  1
  Rh  Rh20  1  0.359532  0.356740  0.356800  1
  Rh  Rh21  1  0.928078  0.356921  0.357510  1
  Rh  Rh22  1  0.359406  0.356401  0.926880  1
  Rh  Rh23  1  0.359239  0.928758  0.356845  1
