# generated using pymatgen
data_TbEr3(GaNi)4
_symmetry_space_group_name_H-M   'P 1'
_cell_length_a   4.28262000
_cell_length_b   6.77214971
_cell_length_c   7.39742349
_cell_angle_alpha   88.63943805
_cell_angle_beta   90.00000000
_cell_angle_gamma   90.00000000
_symmetry_Int_Tables_number   1
_chemical_formula_structural   TbEr3(GaNi)4
_chemical_formula_sum   'Tb1 Er3 Ga4 Ni4'
_cell_volume   214.48361231
_cell_formula_units_Z   1
loop_
 _symmetry_equiv_pos_site_id
 _symmetry_equiv_pos_as_xyz
  1  'x, y, z'
loop_
 _atom_site_type_symbol
 _atom_site_label
 _atom_site_symmetry_multiplicity
 _atom_site_fract_x
 _atom_site_fract_y
 _atom_site_fract_z
 _atom_site_occupancy
  Tb  Tb0  1  0.250000  0.978239  0.307967  1
  Er  Er1  1  0.250000  0.479443  0.191926  1
  Er  Er2  1  0.750000  0.022444  0.695312  1
  Er  Er3  1  0.750000  0.519935  0.806226  1
  Ga  Ga4  1  0.250000  0.330007  0.573875  1
  Ga  Ga5  1  0.250000  0.828053  0.924913  1
  Ga  Ga6  1  0.750000  0.669842  0.426601  1
  Ga  Ga7  1  0.750000  0.173180  0.073523  1
  Ni  Ni8  1  0.250000  0.216481  0.901181  1
  Ni  Ni9  1  0.250000  0.714989  0.603488  1
  Ni  Ni10  1  0.750000  0.782211  0.096087  1
  Ni  Ni11  1  0.750000  0.285177  0.398901  1
