# generated using pymatgen
data_Dy14Y6Cd3Ru2Au3
_symmetry_space_group_name_H-M   'P 1'
_cell_length_a   9.60601200
_cell_length_b   9.60601164
_cell_length_c   9.61793400
_cell_angle_alpha   90.00000000
_cell_angle_beta   90.00000000
_cell_angle_gamma   120.00000126
_symmetry_Int_Tables_number   1
_chemical_formula_structural   Dy14Y6Cd3Ru2Au3
_chemical_formula_sum   'Dy14 Y6 Cd3 Ru2 Au3'
_cell_volume   768.59694148
_cell_formula_units_Z   1
loop_
 _symmetry_equiv_pos_site_id
 _symmetry_equiv_pos_as_xyz
  1  'x, y, z'
loop_
 _atom_site_type_symbol
 _atom_site_label
 _atom_site_symmetry_multiplicity
 _atom_site_fract_x
 _atom_site_fract_y
 _atom_site_fract_z
 _atom_site_occupancy
  Dy  Dy0  1  0.000000  0.000000  0.461255  1
  Dy  Dy1  1  0.000000  0.000000  0.038551  1
  Dy  Dy2  1  0.209346  0.790654  0.439750  1
  Dy  Dy3  1  0.209346  0.418693  0.439750  1
  Dy  Dy4  1  0.581307  0.790654  0.439750  1
  Dy  Dy5  1  0.791534  0.208466  0.558556  1
  Dy  Dy6  1  0.791534  0.583066  0.558556  1
  Dy  Dy7  1  0.416934  0.208466  0.558556  1
  Dy  Dy8  1  0.791521  0.208479  0.941377  1
  Dy  Dy9  1  0.791521  0.583040  0.941377  1
  Dy  Dy10  1  0.416960  0.208479  0.941377  1
  Dy  Dy11  1  0.540867  0.459133  0.250077  1
  Dy  Dy12  1  0.540867  0.081733  0.250077  1
  Dy  Dy13  1  0.918267  0.459133  0.250077  1
  Y  Y14  1  0.209046  0.790954  0.059877  1
  Y  Y15  1  0.209046  0.418093  0.059877  1
  Y  Y16  1  0.581907  0.790954  0.059877  1
  Y  Y17  1  0.459016  0.540984  0.749871  1
  Y  Y18  1  0.459016  0.918032  0.749871  1
  Y  Y19  1  0.081968  0.540984  0.749871  1
  Cd  Cd20  1  0.110028  0.889972  0.750050  1
  Cd  Cd21  1  0.110028  0.220054  0.750050  1
  Cd  Cd22  1  0.779946  0.889972  0.750050  1
  Ru  Ru23  1  0.333333  0.666667  0.251455  1
  Ru  Ru24  1  0.666667  0.333333  0.749922  1
  Au  Au25  1  0.869634  0.130366  0.250046  1
  Au  Au26  1  0.869634  0.739267  0.250046  1
  Au  Au27  1  0.260733  0.130366  0.250046  1
