# generated using pymatgen
data_PrPaSnRh2
_symmetry_space_group_name_H-M   'P 1'
_cell_length_a   7.78356895
_cell_length_b   7.78356828
_cell_length_c   3.71270300
_cell_angle_alpha   90.00000000
_cell_angle_beta   90.00000000
_cell_angle_gamma   94.44899050
_symmetry_Int_Tables_number   1
_chemical_formula_structural   PrPaSnRh2
_chemical_formula_sum   'Pr2 Pa2 Sn2 Rh4'
_cell_volume   224.25241522
_cell_formula_units_Z   2
loop_
 _symmetry_equiv_pos_site_id
 _symmetry_equiv_pos_as_xyz
  1  'x, y, z'
loop_
 _atom_site_type_symbol
 _atom_site_label
 _atom_site_symmetry_multiplicity
 _atom_site_fract_x
 _atom_site_fract_y
 _atom_site_fract_z
 _atom_site_occupancy
  Pr  Pr0  1  0.172952  0.327048  0.500000  1
  Pr  Pr1  1  0.827048  0.672952  0.500000  1
  Pa  Pa2  1  0.668045  0.168045  0.500000  1
  Pa  Pa3  1  0.331955  0.831955  0.500000  1
  Sn  Sn4  1  0.000000  0.000000  0.000000  1
  Sn  Sn5  1  0.500000  0.500000  0.000000  1
  Rh  Rh6  1  0.154966  0.654966  0.000000  1
  Rh  Rh7  1  0.845034  0.345034  0.000000  1
  Rh  Rh8  1  0.621223  0.878777  0.000000  1
  Rh  Rh9  1  0.378777  0.121223  0.000000  1
