# generated using pymatgen
data_Mg2Mn3Ni9As7
_symmetry_space_group_name_H-M   'P 1'
_cell_length_a   9.45984500
_cell_length_b   9.45984518
_cell_length_c   3.72100000
_cell_angle_alpha   90.00000000
_cell_angle_beta   90.00000000
_cell_angle_gamma   120.00000288
_symmetry_Int_Tables_number   1
_chemical_formula_structural   Mg2Mn3Ni9As7
_chemical_formula_sum   'Mg2 Mn3 Ni9 As7'
_cell_volume   288.37548518
_cell_formula_units_Z   1
loop_
 _symmetry_equiv_pos_site_id
 _symmetry_equiv_pos_as_xyz
  1  'x, y, z'
loop_
 _atom_site_type_symbol
 _atom_site_label
 _atom_site_symmetry_multiplicity
 _atom_site_fract_x
 _atom_site_fract_y
 _atom_site_fract_z
 _atom_site_occupancy
  Mg  Mg0  1  0.333333  0.666667  0.000000  1
  Mg  Mg1  1  0.666667  0.333333  0.500000  1
  Mn  Mn2  1  0.220119  0.122148  0.500000  1
  Mn  Mn3  1  0.877852  0.097971  0.500000  1
  Mn  Mn4  1  0.902029  0.779881  0.500000  1
  Ni  Ni5  1  0.122706  0.282066  0.000000  1
  Ni  Ni6  1  0.717934  0.840640  0.000000  1
  Ni  Ni7  1  0.159360  0.877294  0.000000  1
  Ni  Ni8  1  0.434135  0.373113  0.000000  1
  Ni  Ni9  1  0.626887  0.061023  0.000000  1
  Ni  Ni10  1  0.938977  0.565865  0.000000  1
  Ni  Ni11  1  0.052200  0.433123  0.500000  1
  Ni  Ni12  1  0.566877  0.619076  0.500000  1
  Ni  Ni13  1  0.380924  0.947800  0.500000  1
  As  As14  1  0.294343  0.414668  0.500000  1
  As  As15  1  0.585332  0.879675  0.500000  1
  As  As16  1  0.120325  0.705657  0.500000  1
  As  As17  1  0.416205  0.121481  0.000000  1
  As  As18  1  0.878519  0.294725  0.000000  1
  As  As19  1  0.705275  0.583795  0.000000  1
  As  As20  1  0.000000  0.000000  0.000000  1
