# generated using pymatgen
data_Ca2DyHo3(Si3Ru)8
_symmetry_space_group_name_H-M   'P 1'
_cell_length_a   10.14414107
_cell_length_b   10.14413967
_cell_length_c   8.14894912
_cell_angle_alpha   90.00137191
_cell_angle_beta   90.00137314
_cell_angle_gamma   132.67131276
_symmetry_Int_Tables_number   1
_chemical_formula_structural   Ca2DyHo3(Si3Ru)8
_chemical_formula_sum   'Ca2 Dy1 Ho3 Si24 Ru8'
_cell_volume   616.55174378
_cell_formula_units_Z   1
loop_
 _symmetry_equiv_pos_site_id
 _symmetry_equiv_pos_as_xyz
  1  'x, y, z'
loop_
 _atom_site_type_symbol
 _atom_site_label
 _atom_site_symmetry_multiplicity
 _atom_site_fract_x
 _atom_site_fract_y
 _atom_site_fract_z
 _atom_site_occupancy
  Ca  Ca0  1  0.501082  0.000970  0.749918  1
  Ca  Ca1  1  0.999030  0.498918  0.250082  1
  Dy  Dy2  1  0.499982  0.500018  0.500000  1
  Ho  Ho3  1  0.000032  0.999968  0.000000  1
  Ho  Ho4  1  0.496613  0.996703  0.250052  1
  Ho  Ho5  1  0.003297  0.503387  0.749948  1
  Si  Si6  1  0.794709  0.205291  0.500000  1
  Si  Si7  1  0.294071  0.705929  0.000000  1
  Si  Si8  1  0.205702  0.794298  0.500000  1
  Si  Si9  1  0.705538  0.294462  0.000000  1
  Si  Si10  1  0.330121  0.335835  0.833118  1
  Si  Si11  1  0.664165  0.669879  0.166882  1
  Si  Si12  1  0.169627  0.163993  0.332845  1
  Si  Si13  1  0.836007  0.830373  0.667155  1
  Si  Si14  1  0.121358  0.887460  0.727657  1
  Si  Si15  1  0.112540  0.878642  0.272343  1
  Si  Si16  1  0.609015  0.375218  0.228025  1
  Si  Si17  1  0.624782  0.390985  0.771975  1
  Si  Si18  1  0.875248  0.108658  0.271713  1
  Si  Si19  1  0.891342  0.124752  0.728287  1
  Si  Si20  1  0.387298  0.621566  0.772525  1
  Si  Si21  1  0.378434  0.612702  0.227475  1
  Si  Si22  1  0.344231  0.110693  0.503188  1
  Si  Si23  1  0.889307  0.655769  0.496812  1
  Si  Si24  1  0.388443  0.155229  0.006878  1
  Si  Si25  1  0.844771  0.611557  0.993122  1
  Si  Si26  1  0.655112  0.888429  0.492737  1
  Si  Si27  1  0.111571  0.344888  0.507263  1
  Si  Si28  1  0.610677  0.844145  0.997305  1
  Si  Si29  1  0.155855  0.389323  0.002695  1
  Ru  Ru30  1  0.669830  0.330170  0.500000  1
  Ru  Ru31  1  0.168569  0.831431  0.000000  1
  Ru  Ru32  1  0.331179  0.668821  0.500000  1
  Ru  Ru33  1  0.830442  0.169558  0.000000  1
  Ru  Ru34  1  0.126089  0.126726  0.626541  1
  Ru  Ru35  1  0.873274  0.873911  0.373459  1
  Ru  Ru36  1  0.373789  0.373134  0.126302  1
  Ru  Ru37  1  0.626866  0.626211  0.873698  1
