# generated using pymatgen
data_TmHfAl8GaIr3
_symmetry_space_group_name_H-M   'P 1'
_cell_length_a   7.48953994
_cell_length_b   7.48176490
_cell_length_c   9.35326700
_cell_angle_alpha   90.00000000
_cell_angle_beta   90.00000000
_cell_angle_gamma   119.58019802
_symmetry_Int_Tables_number   1
_chemical_formula_structural   TmHfAl8GaIr3
_chemical_formula_sum   'Tm2 Hf2 Al16 Ga2 Ir6'
_cell_volume   455.80052004
_cell_formula_units_Z   2
loop_
 _symmetry_equiv_pos_site_id
 _symmetry_equiv_pos_as_xyz
  1  'x, y, z'
loop_
 _atom_site_type_symbol
 _atom_site_label
 _atom_site_symmetry_multiplicity
 _atom_site_fract_x
 _atom_site_fract_y
 _atom_site_fract_z
 _atom_site_occupancy
  Tm  Tm0  1  0.675094  0.994228  0.250000  1
  Tm  Tm1  1  0.324906  0.005772  0.750000  1
  Hf  Hf2  1  0.994713  0.674398  0.250000  1
  Hf  Hf3  1  0.005287  0.325602  0.750000  1
  Al  Al4  1  0.999985  0.337425  0.075438  1
  Al  Al5  1  0.000015  0.662575  0.924562  1
  Al  Al6  1  0.000015  0.662575  0.575438  1
  Al  Al7  1  0.333534  0.998941  0.421577  1
  Al  Al8  1  0.999985  0.337425  0.424562  1
  Al  Al9  1  0.666466  0.001059  0.578423  1
  Al  Al10  1  0.666466  0.001059  0.921577  1
  Al  Al11  1  0.333534  0.998941  0.078423  1
  Al  Al12  1  0.331938  0.334128  0.559704  1
  Al  Al13  1  0.668062  0.665872  0.440296  1
  Al  Al14  1  0.668062  0.665872  0.059704  1
  Al  Al15  1  0.331938  0.334128  0.940296  1
  Al  Al16  1  0.333666  0.550166  0.250000  1
  Al  Al17  1  0.666334  0.449834  0.750000  1
  Al  Al18  1  0.555928  0.342040  0.250000  1
  Al  Al19  1  0.444072  0.657960  0.750000  1
  Ga  Ga20  1  0.133180  0.132125  0.250000  1
  Ga  Ga21  1  0.866820  0.867875  0.750000  1
  Ir  Ir22  1  0.672335  0.327757  0.999560  1
  Ir  Ir23  1  0.327665  0.672243  0.000440  1
  Ir  Ir24  1  0.327665  0.672243  0.499560  1
  Ir  Ir25  1  0.672335  0.327757  0.500440  1
  Ir  Ir26  1  0.000000  0.000000  0.000000  1
  Ir  Ir27  1  0.000000  0.000000  0.500000  1
