# generated using pymatgen
data_Na2P7Ru7Rh5
_symmetry_space_group_name_H-M   'P 1'
_cell_length_a   9.40683988
_cell_length_b   9.47927955
_cell_length_c   3.91900400
_cell_angle_alpha   90.00000000
_cell_angle_beta   90.00000000
_cell_angle_gamma   120.21779918
_symmetry_Int_Tables_number   1
_chemical_formula_structural   Na2P7Ru7Rh5
_chemical_formula_sum   'Na2 P7 Ru7 Rh5'
_cell_volume   301.97298356
_cell_formula_units_Z   1
loop_
 _symmetry_equiv_pos_site_id
 _symmetry_equiv_pos_as_xyz
  1  'x, y, z'
loop_
 _atom_site_type_symbol
 _atom_site_label
 _atom_site_symmetry_multiplicity
 _atom_site_fract_x
 _atom_site_fract_y
 _atom_site_fract_z
 _atom_site_occupancy
  Na  Na0  1  0.666583  0.332560  0.000000  1
  Na  Na1  1  0.332392  0.666231  0.500000  1
  P  P2  1  0.118331  0.402251  0.000000  1
  P  P3  1  0.599848  0.719686  0.000000  1
  P  P4  1  0.274843  0.874878  0.000000  1
  P  P5  1  0.000838  0.001803  0.500000  1
  P  P6  1  0.420312  0.301243  0.500000  1
  P  P7  1  0.699051  0.115887  0.500000  1
  P  P8  1  0.887041  0.580819  0.500000  1
  Ru  Ru9  1  0.164337  0.273365  0.500000  1
  Ru  Ru10  1  0.726079  0.889125  0.500000  1
  Ru  Ru11  1  0.110387  0.839959  0.500000  1
  Ru  Ru12  1  0.042504  0.604266  0.000000  1
  Ru  Ru13  1  0.212435  0.086420  0.000000  1
  Ru  Ru14  1  0.915463  0.126134  0.000000  1
  Ru  Ru15  1  0.874693  0.791970  0.000000  1
  Rh  Rh16  1  0.431976  0.066408  0.500000  1
  Rh  Rh17  1  0.935078  0.362579  0.500000  1
  Rh  Rh18  1  0.637081  0.570421  0.500000  1
  Rh  Rh19  1  0.395830  0.443003  0.000000  1
  Rh  Rh20  1  0.554897  0.950991  0.000000  1
