# generated using pymatgen
data_Yb4Ho3Tm3Ru4
_symmetry_space_group_name_H-M   'P 1'
_cell_length_a   6.39409626
_cell_length_b   7.20775851
_cell_length_c   8.47796253
_cell_angle_alpha   97.38584872
_cell_angle_beta   112.13806259
_cell_angle_gamma   89.96104802
_symmetry_Int_Tables_number   1
_chemical_formula_structural   Yb4Ho3Tm3Ru4
_chemical_formula_sum   'Yb4 Ho3 Tm3 Ru4'
_cell_volume   358.43152745
_cell_formula_units_Z   1
loop_
 _symmetry_equiv_pos_site_id
 _symmetry_equiv_pos_as_xyz
  1  'x, y, z'
loop_
 _atom_site_type_symbol
 _atom_site_label
 _atom_site_symmetry_multiplicity
 _atom_site_fract_x
 _atom_site_fract_y
 _atom_site_fract_z
 _atom_site_occupancy
  Yb  Yb0  1  0.794712  0.078775  0.816486  1
  Yb  Yb1  1  0.978399  0.421175  0.183483  1
  Yb  Yb2  1  0.205150  0.920993  0.183502  1
  Yb  Yb3  1  0.021780  0.579027  0.816512  1
  Ho  Ho4  1  0.198356  0.184555  0.565894  1
  Ho  Ho5  1  0.632033  0.315792  0.434183  1
  Ho  Ho6  1  0.802099  0.815369  0.434296  1
  Tm  Tm7  1  0.367869  0.684172  0.566193  1
  Tm  Tm8  1  0.431933  0.250093  0.999998  1
  Tm  Tm9  1  0.567925  0.749804  0.999601  1
  Ru  Ru10  1  0.581924  0.425303  0.768892  1
  Ru  Ru11  1  0.813052  0.075062  0.230978  1
  Ru  Ru12  1  0.417623  0.575291  0.231366  1
  Ru  Ru13  1  0.187146  0.924589  0.768618  1
