# generated using pymatgen
data_YPa3(HgRh2)2
_symmetry_space_group_name_H-M   'P 1'
_cell_length_a   7.69488006
_cell_length_b   7.69488020
_cell_length_c   3.60755600
_cell_angle_alpha   90.00000000
_cell_angle_beta   90.00000000
_cell_angle_gamma   87.26658322
_symmetry_Int_Tables_number   1
_chemical_formula_structural   YPa3(HgRh2)2
_chemical_formula_sum   'Y1 Pa3 Hg2 Rh4'
_cell_volume   213.36461243
_cell_formula_units_Z   1
loop_
 _symmetry_equiv_pos_site_id
 _symmetry_equiv_pos_as_xyz
  1  'x, y, z'
loop_
 _atom_site_type_symbol
 _atom_site_label
 _atom_site_symmetry_multiplicity
 _atom_site_fract_x
 _atom_site_fract_y
 _atom_site_fract_z
 _atom_site_occupancy
  Y  Y0  1  0.328706  0.828706  0.500000  1
  Pa  Pa1  1  0.670795  0.170795  0.500000  1
  Pa  Pa2  1  0.172453  0.330332  0.500000  1
  Pa  Pa3  1  0.830332  0.672453  0.500000  1
  Hg  Hg4  1  0.011962  0.997307  0.000000  1
  Hg  Hg5  1  0.497307  0.511962  0.000000  1
  Rh  Rh6  1  0.855734  0.355734  0.000000  1
  Rh  Rh7  1  0.373866  0.148664  0.000000  1
  Rh  Rh8  1  0.648664  0.873866  0.000000  1
  Rh  Rh9  1  0.110180  0.610180  0.000000  1
