# generated using pymatgen
data_Tb2Al20Tc3Rh
_symmetry_space_group_name_H-M   'P 1'
_cell_length_a   6.91801419
_cell_length_b   6.89449680
_cell_length_c   9.16080044
_cell_angle_alpha   90.46779000
_cell_angle_beta   90.25285793
_cell_angle_gamma   96.83856400
_symmetry_Int_Tables_number   1
_chemical_formula_structural   Tb2Al20Tc3Rh
_chemical_formula_sum   'Tb2 Al20 Tc3 Rh1'
_cell_volume   433.80623405
_cell_formula_units_Z   1
loop_
 _symmetry_equiv_pos_site_id
 _symmetry_equiv_pos_as_xyz
  1  'x, y, z'
loop_
 _atom_site_type_symbol
 _atom_site_label
 _atom_site_symmetry_multiplicity
 _atom_site_fract_x
 _atom_site_fract_y
 _atom_site_fract_z
 _atom_site_occupancy
  Tb  Tb0  1  0.870006  0.122874  0.750872  1
  Tb  Tb1  1  0.129994  0.877126  0.249128  1
  Al  Al2  1  0.620351  0.376320  0.547772  1
  Al  Al3  1  0.379649  0.623680  0.452228  1
  Al  Al4  1  0.376794  0.623486  0.046238  1
  Al  Al5  1  0.623206  0.376514  0.953762  1
  Al  Al6  1  0.226003  0.225018  0.498879  1
  Al  Al7  1  0.773997  0.774982  0.501121  1
  Al  Al8  1  0.773394  0.773629  0.999808  1
  Al  Al9  1  0.226606  0.226371  0.000192  1
  Al  Al10  1  0.844560  0.157077  0.098415  1
  Al  Al11  1  0.155440  0.842923  0.901585  1
  Al  Al12  1  0.156218  0.846165  0.599460  1
  Al  Al13  1  0.843782  0.153835  0.400540  1
  Al  Al14  1  0.860567  0.588640  0.750348  1
  Al  Al15  1  0.139433  0.411360  0.249652  1
  Al  Al16  1  0.410466  0.139160  0.750342  1
  Al  Al17  1  0.589534  0.860840  0.249658  1
  Al  Al18  1  0.218754  0.476394  0.753696  1
  Al  Al19  1  0.781246  0.523606  0.246304  1
  Al  Al20  1  0.522778  0.780609  0.748903  1
  Al  Al21  1  0.477222  0.219391  0.251097  1
  Tc  Tc22  1  0.000000  0.500000  0.000000  1
  Tc  Tc23  1  0.500000  0.000000  0.000000  1
  Tc  Tc24  1  0.500000  0.000000  0.500000  1
  Rh  Rh25  1  0.000000  0.500000  0.500000  1
