# generated using pymatgen
data_AcCe2Pr3Se10
_symmetry_space_group_name_H-M   'P 1'
_cell_length_a   7.91779500
_cell_length_b   8.49182650
_cell_length_c   12.58356200
_cell_angle_alpha   90.00000000
_cell_angle_beta   90.00000000
_cell_angle_gamma   90.03405296
_symmetry_Int_Tables_number   1
_chemical_formula_structural   AcCe2Pr3Se10
_chemical_formula_sum   'Ac2 Ce4 Pr6 Se20'
_cell_volume   846.07503795
_cell_formula_units_Z   2
loop_
 _symmetry_equiv_pos_site_id
 _symmetry_equiv_pos_as_xyz
  1  'x, y, z'
loop_
 _atom_site_type_symbol
 _atom_site_label
 _atom_site_symmetry_multiplicity
 _atom_site_fract_x
 _atom_site_fract_y
 _atom_site_fract_z
 _atom_site_occupancy
  Ac  Ac0  1  0.526872  0.997637  0.324676  1
  Ac  Ac1  1  0.973128  0.502363  0.824676  1
  Ce  Ce2  1  0.073074  0.749395  0.491387  1
  Ce  Ce3  1  0.426926  0.750605  0.991387  1
  Ce  Ce4  1  0.926354  0.250991  0.509149  1
  Ce  Ce5  1  0.573646  0.249009  0.009149  1
  Pr  Pr6  1  0.522960  0.498071  0.321622  1
  Pr  Pr7  1  0.977040  0.001929  0.821622  1
  Pr  Pr8  1  0.476098  0.999759  0.678516  1
  Pr  Pr9  1  0.023902  0.500241  0.178516  1
  Pr  Pr10  1  0.476657  0.500405  0.678742  1
  Pr  Pr11  1  0.023343  0.999595  0.178742  1
  Se  Se12  1  0.834094  0.956391  0.594860  1
  Se  Se13  1  0.665906  0.543609  0.094860  1
  Se  Se14  1  0.164691  0.454945  0.403992  1
  Se  Se15  1  0.335309  0.045055  0.903992  1
  Se  Se16  1  0.158404  0.044046  0.403569  1
  Se  Se17  1  0.341596  0.455954  0.903569  1
  Se  Se18  1  0.832438  0.546255  0.591968  1
  Se  Se19  1  0.667562  0.953745  0.091968  1
  Se  Se20  1  0.831600  0.745038  0.312792  1
  Se  Se21  1  0.668400  0.754962  0.812792  1
  Se  Se22  1  0.174126  0.246140  0.684007  1
  Se  Se23  1  0.325874  0.253860  0.184007  1
  Se  Se24  1  0.455700  0.743188  0.501127  1
  Se  Se25  1  0.044300  0.756812  0.001127  1
  Se  Se26  1  0.542234  0.255602  0.504209  1
  Se  Se27  1  0.957766  0.244398  0.004209  1
  Se  Se28  1  0.198446  0.754980  0.713975  1
  Se  Se29  1  0.301554  0.745020  0.213975  1
  Se  Se30  1  0.806146  0.254026  0.285411  1
  Se  Se31  1  0.693854  0.245974  0.785411  1
