# generated using pymatgen
data_Ho3ErTc2(B8W)2
_symmetry_space_group_name_H-M   'P 1'
_cell_length_a   3.60328800
_cell_length_b   5.99117903
_cell_length_c   11.58739702
_cell_angle_alpha   89.90888587
_cell_angle_beta   90.00000000
_cell_angle_gamma   90.00000000
_symmetry_Int_Tables_number   1
_chemical_formula_structural   Ho3ErTc2(B8W)2
_chemical_formula_sum   'Ho3 Er1 Tc2 B16 W2'
_cell_volume   250.14775612
_cell_formula_units_Z   1
loop_
 _symmetry_equiv_pos_site_id
 _symmetry_equiv_pos_as_xyz
  1  'x, y, z'
loop_
 _atom_site_type_symbol
 _atom_site_label
 _atom_site_symmetry_multiplicity
 _atom_site_fract_x
 _atom_site_fract_y
 _atom_site_fract_z
 _atom_site_occupancy
  Ho  Ho0  1  0.000000  0.627659  0.348243  1
  Ho  Ho1  1  0.000000  0.372318  0.651829  1
  Ho  Ho2  1  0.000000  0.128396  0.148253  1
  Er  Er3  1  0.000000  0.871663  0.851814  1
  Tc  Tc4  1  0.000000  0.634887  0.086691  1
  Tc  Tc5  1  0.000000  0.365189  0.913002  1
  B  B6  1  0.500000  0.785606  0.184066  1
  B  B7  1  0.500000  0.214071  0.815844  1
  B  B8  1  0.500000  0.290061  0.312418  1
  B  B9  1  0.500000  0.709980  0.687814  1
  B  B10  1  0.500000  0.863992  0.030498  1
  B  B11  1  0.500000  0.136060  0.969074  1
  B  B12  1  0.500000  0.367571  0.467620  1
  B  B13  1  0.500000  0.632432  0.532593  1
  B  B14  1  0.500000  0.885015  0.452473  1
  B  B15  1  0.500000  0.114842  0.547750  1
  B  B16  1  0.500000  0.387203  0.046939  1
  B  B17  1  0.500000  0.613293  0.952637  1
  B  B18  1  0.500000  0.975887  0.305232  1
  B  B19  1  0.500000  0.023768  0.695091  1
  B  B20  1  0.500000  0.477618  0.191108  1
  B  B21  1  0.500000  0.522555  0.808734  1
  W  W22  1  0.000000  0.130812  0.414403  1
  W  W23  1  0.000000  0.869123  0.585875  1
