# generated using pymatgen
data_La4AlGaSi2
_symmetry_space_group_name_H-M   'P 1'
_cell_length_a   4.13653500
_cell_length_b   4.54869400
_cell_length_c   11.56753300
_cell_angle_alpha   90.00000000
_cell_angle_beta   90.00000000
_cell_angle_gamma   90.00000000
_symmetry_Int_Tables_number   1
_chemical_formula_structural   La4AlGaSi2
_chemical_formula_sum   'La4 Al1 Ga1 Si2'
_cell_volume   217.65275683
_cell_formula_units_Z   1
loop_
 _symmetry_equiv_pos_site_id
 _symmetry_equiv_pos_as_xyz
  1  'x, y, z'
loop_
 _atom_site_type_symbol
 _atom_site_label
 _atom_site_symmetry_multiplicity
 _atom_site_fract_x
 _atom_site_fract_y
 _atom_site_fract_z
 _atom_site_occupancy
  La  La0  1  0.000000  0.000000  0.357378  1
  La  La1  1  0.000000  0.500000  0.856391  1
  La  La2  1  0.500000  0.500000  0.138647  1
  La  La3  1  0.500000  0.000000  0.645153  1
  Al  Al4  1  0.500000  0.500000  0.438034  1
  Ga  Ga5  1  0.000000  0.000000  0.064352  1
  Si  Si6  1  0.000000  0.500000  0.570909  1
  Si  Si7  1  0.500000  0.000000  0.929134  1
