# generated using pymatgen
data_Ga2SiRh5
_symmetry_space_group_name_H-M   'P 1'
_cell_length_a   4.09736100
_cell_length_b   5.34371200
_cell_length_c   10.18296800
_cell_angle_alpha   90.00000000
_cell_angle_beta   90.00000000
_cell_angle_gamma   90.00000000
_symmetry_Int_Tables_number   1
_chemical_formula_structural   Ga2SiRh5
_chemical_formula_sum   'Ga4 Si2 Rh10'
_cell_volume   222.95727723
_cell_formula_units_Z   2
loop_
 _symmetry_equiv_pos_site_id
 _symmetry_equiv_pos_as_xyz
  1  'x, y, z'
loop_
 _atom_site_type_symbol
 _atom_site_label
 _atom_site_symmetry_multiplicity
 _atom_site_fract_x
 _atom_site_fract_y
 _atom_site_fract_z
 _atom_site_occupancy
  Ga  Ga0  1  0.500000  0.130050  0.641734  1
  Ga  Ga1  1  0.500000  0.869950  0.358266  1
  Ga  Ga2  1  0.500000  0.630050  0.858266  1
  Ga  Ga3  1  0.500000  0.369950  0.141734  1
  Si  Si4  1  0.000000  0.500000  0.500000  1
  Si  Si5  1  0.000000  0.000000  0.000000  1
  Rh  Rh6  1  0.500000  0.338137  0.394871  1
  Rh  Rh7  1  0.500000  0.661863  0.605129  1
  Rh  Rh8  1  0.500000  0.838137  0.105129  1
  Rh  Rh9  1  0.500000  0.161863  0.894871  1
  Rh  Rh10  1  0.000000  0.363415  0.723968  1
  Rh  Rh11  1  0.000000  0.636585  0.276032  1
  Rh  Rh12  1  0.000000  0.863415  0.776032  1
  Rh  Rh13  1  0.000000  0.136585  0.223968  1
  Rh  Rh14  1  0.000000  0.500000  0.000000  1
  Rh  Rh15  1  0.000000  0.000000  0.500000  1
