# generated using pymatgen
data_HoBi3RuRh3O14
_symmetry_space_group_name_H-M   'P 1'
_cell_length_a   7.28053327
_cell_length_b   7.32215140
_cell_length_c   7.32215100
_cell_angle_alpha   59.99999729
_cell_angle_beta   59.81072086
_cell_angle_gamma   59.81072529
_symmetry_Int_Tables_number   1
_chemical_formula_structural   HoBi3RuRh3O14
_chemical_formula_sum   'Ho1 Bi3 Ru1 Rh3 O14'
_cell_volume   275.21819713
_cell_formula_units_Z   1
loop_
 _symmetry_equiv_pos_site_id
 _symmetry_equiv_pos_as_xyz
  1  'x, y, z'
loop_
 _atom_site_type_symbol
 _atom_site_label
 _atom_site_symmetry_multiplicity
 _atom_site_fract_x
 _atom_site_fract_y
 _atom_site_fract_z
 _atom_site_occupancy
  Ho  Ho0  1  0.625000  0.125000  0.125000  1
  Bi  Bi1  1  0.125000  0.125000  0.125000  1
  Bi  Bi2  1  0.125000  0.625000  0.125000  1
  Bi  Bi3  1  0.125000  0.125000  0.625000  1
  Ru  Ru4  1  0.125000  0.625000  0.625000  1
  Rh  Rh5  1  0.625000  0.625000  0.625000  1
  Rh  Rh6  1  0.625000  0.625000  0.125000  1
  Rh  Rh7  1  0.625000  0.125000  0.625000  1
  O  O8  1  0.256057  0.247981  0.247981  1
  O  O9  1  0.292843  0.704503  0.298153  1
  O  O10  1  0.957157  0.951847  0.545497  1
  O  O11  1  0.541434  0.962468  0.533631  1
  O  O12  1  0.708566  0.716369  0.287532  1
  O  O13  1  0.957157  0.545497  0.545497  1
  O  O14  1  0.708566  0.287532  0.716369  1
  O  O15  1  0.292843  0.298153  0.704503  1
  O  O16  1  0.708566  0.287532  0.287532  1
  O  O17  1  0.292843  0.704503  0.704503  1
  O  O18  1  0.957157  0.545497  0.951847  1
  O  O19  1  0.541434  0.533631  0.962468  1
  O  O20  1  0.993943  0.002019  0.002019  1
  O  O21  1  0.541434  0.962468  0.962468  1
