# generated using pymatgen
data_B13CN
_symmetry_space_group_name_H-M   'P 1'
_cell_length_a   5.20348083
_cell_length_b   5.20348142
_cell_length_c   5.20348120
_cell_angle_alpha   64.77626926
_cell_angle_beta   64.77626484
_cell_angle_gamma   64.77625425
_symmetry_Int_Tables_number   1
_chemical_formula_structural   B13CN
_chemical_formula_sum   'B13 C1 N1'
_cell_volume   110.03576203
_cell_formula_units_Z   1
loop_
 _symmetry_equiv_pos_site_id
 _symmetry_equiv_pos_as_xyz
  1  'x, y, z'
loop_
 _atom_site_type_symbol
 _atom_site_label
 _atom_site_symmetry_multiplicity
 _atom_site_fract_x
 _atom_site_fract_y
 _atom_site_fract_z
 _atom_site_occupancy
  B  B0  1  0.502101  0.502101  0.502101  1
  B  B1  1  0.313782  0.805839  0.805839  1
  B  B2  1  0.805839  0.805839  0.313782  1
  B  B3  1  0.805839  0.313782  0.805839  1
  B  B4  1  0.195971  0.683591  0.195971  1
  B  B5  1  0.683591  0.195971  0.195971  1
  B  B6  1  0.195971  0.195971  0.683591  1
  B  B7  1  0.328667  0.004466  0.004466  1
  B  B8  1  0.004466  0.004466  0.328667  1
  B  B9  1  0.004466  0.328667  0.004466  1
  B  B10  1  0.994887  0.668409  0.994887  1
  B  B11  1  0.668409  0.994887  0.994887  1
  B  B12  1  0.994887  0.994887  0.668409  1
  C  C13  1  0.385059  0.385059  0.385059  1
  N  N14  1  0.616064  0.616064  0.616064  1
