# generated using pymatgen
data_CsZrSnF7
_symmetry_space_group_name_H-M   'P 1'
_cell_length_a   6.92196004
_cell_length_b   6.92196016
_cell_length_c   9.04747700
_cell_angle_alpha   90.00000000
_cell_angle_beta   90.00000000
_cell_angle_gamma   116.86852485
_symmetry_Int_Tables_number   1
_chemical_formula_structural   CsZrSnF7
_chemical_formula_sum   'Cs2 Zr2 Sn2 F14'
_cell_volume   386.69885929
_cell_formula_units_Z   2
loop_
 _symmetry_equiv_pos_site_id
 _symmetry_equiv_pos_as_xyz
  1  'x, y, z'
loop_
 _atom_site_type_symbol
 _atom_site_label
 _atom_site_symmetry_multiplicity
 _atom_site_fract_x
 _atom_site_fract_y
 _atom_site_fract_z
 _atom_site_occupancy
  Cs  Cs0  1  0.000000  0.000000  0.000000  1
  Cs  Cs1  1  0.000000  0.000000  0.500000  1
  Zr  Zr2  1  0.693012  0.306988  0.750000  1
  Zr  Zr3  1  0.306988  0.693012  0.250000  1
  Sn  Sn4  1  0.311888  0.688112  0.750000  1
  Sn  Sn5  1  0.688112  0.311888  0.250000  1
  F  F6  1  0.515351  0.484649  0.750000  1
  F  F7  1  0.484649  0.515351  0.250000  1
  F  F8  1  0.700805  0.299195  0.976903  1
  F  F9  1  0.299195  0.700805  0.023097  1
  F  F10  1  0.299195  0.700805  0.476903  1
  F  F11  1  0.700805  0.299195  0.523097  1
  F  F12  1  0.673520  0.988083  0.750000  1
  F  F13  1  0.326480  0.011917  0.250000  1
  F  F14  1  0.011917  0.326480  0.750000  1
  F  F15  1  0.988083  0.673520  0.250000  1
  F  F16  1  0.360811  0.075785  0.750000  1
  F  F17  1  0.639189  0.924215  0.250000  1
  F  F18  1  0.924215  0.639189  0.750000  1
  F  F19  1  0.075785  0.360811  0.250000  1
