# generated using pymatgen
data_Pr3Ho7(SnSb)4
_symmetry_space_group_name_H-M   'P 1'
_cell_length_a   9.09166844
_cell_length_b   8.50436917
_cell_length_c   8.13607600
_cell_angle_alpha   89.55118897
_cell_angle_beta   89.88776114
_cell_angle_gamma   125.28564179
_symmetry_Int_Tables_number   1
_chemical_formula_structural   Pr3Ho7(SnSb)4
_chemical_formula_sum   'Pr3 Ho7 Sn4 Sb4'
_cell_volume   513.46882882
_cell_formula_units_Z   1
loop_
 _symmetry_equiv_pos_site_id
 _symmetry_equiv_pos_as_xyz
  1  'x, y, z'
loop_
 _atom_site_type_symbol
 _atom_site_label
 _atom_site_symmetry_multiplicity
 _atom_site_fract_x
 _atom_site_fract_y
 _atom_site_fract_z
 _atom_site_occupancy
  Pr  Pr0  1  0.052213  0.349353  0.322471  1
  Pr  Pr1  1  0.949916  0.658428  0.677339  1
  Pr  Pr2  1  0.447174  0.153835  0.824999  1
  Ho  Ho3  1  0.776190  0.517027  0.161548  1
  Ho  Ho4  1  0.550116  0.831886  0.171192  1
  Ho  Ho5  1  0.222020  0.482814  0.836452  1
  Ho  Ho6  1  0.724762  0.985375  0.660909  1
  Ho  Ho7  1  0.277786  0.018961  0.338092  1
  Ho  Ho8  1  0.999876  0.999455  0.999915  1
  Ho  Ho9  1  0.500331  0.501710  0.499544  1
  Sn  Sn10  1  0.366884  0.368198  0.133227  1
  Sn  Sn11  1  0.632155  0.634127  0.867062  1
  Sn  Sn12  1  0.133301  0.134510  0.632992  1
  Sn  Sn13  1  0.863914  0.869274  0.362211  1
  Sb  Sb14  1  0.814209  0.222942  0.973668  1
  Sb  Sb15  1  0.182968  0.763150  0.039405  1
  Sb  Sb16  1  0.679338  0.272072  0.471451  1
  Sb  Sb17  1  0.326848  0.736883  0.527522  1
