# generated using pymatgen
data_La9Nd7Cd4(RuPt)2
_symmetry_space_group_name_H-M   'P 1'
_cell_length_a   10.06205438
_cell_length_b   10.06205425
_cell_length_c   10.12936500
_cell_angle_alpha   59.77845990
_cell_angle_beta   59.77846034
_cell_angle_gamma   60.20187234
_symmetry_Int_Tables_number   1
_chemical_formula_structural   La9Nd7Cd4(RuPt)2
_chemical_formula_sum   'La9 Nd7 Cd4 Ru2 Pt2'
_cell_volume   723.82208953
_cell_formula_units_Z   1
loop_
 _symmetry_equiv_pos_site_id
 _symmetry_equiv_pos_as_xyz
  1  'x, y, z'
loop_
 _atom_site_type_symbol
 _atom_site_label
 _atom_site_symmetry_multiplicity
 _atom_site_fract_x
 _atom_site_fract_y
 _atom_site_fract_z
 _atom_site_occupancy
  La  La0  1  0.347475  0.347475  0.354428  1
  La  La1  1  0.347475  0.347475  0.950623  1
  La  La2  1  0.344525  0.957936  0.348769  1
  La  La3  1  0.957936  0.344525  0.348769  1
  La  La4  1  0.815662  0.188971  0.191020  1
  La  La5  1  0.188971  0.815662  0.804347  1
  La  La6  1  0.188971  0.815662  0.191020  1
  La  La7  1  0.815662  0.188971  0.804347  1
  La  La8  1  0.189225  0.189225  0.810775  1
  Nd  Nd9  1  0.803021  0.803021  0.196979  1
  Nd  Nd10  1  0.934151  0.563276  0.566459  1
  Nd  Nd11  1  0.563276  0.934151  0.936115  1
  Nd  Nd12  1  0.563276  0.934151  0.566459  1
  Nd  Nd13  1  0.934151  0.563276  0.936115  1
  Nd  Nd14  1  0.563990  0.563990  0.936010  1
  Nd  Nd15  1  0.935236  0.935236  0.564764  1
  Cd  Cd16  1  0.580895  0.580895  0.579195  1
  Cd  Cd17  1  0.580895  0.580895  0.259017  1
  Cd  Cd18  1  0.581743  0.256790  0.580734  1
  Cd  Cd19  1  0.256790  0.581743  0.580734  1
  Ru  Ru20  1  0.142314  0.142314  0.135905  1
  Ru  Ru21  1  0.142314  0.142314  0.579467  1
  Pt  Pt22  1  0.146736  0.575312  0.138976  1
  Pt  Pt23  1  0.575312  0.146736  0.138976  1
