# generated using pymatgen
data_Hf8MnTcBi4
_symmetry_space_group_name_H-M   'P 1'
_cell_length_a   8.27988336
_cell_length_b   8.27992045
_cell_length_c   8.27988412
_cell_angle_alpha   96.21008874
_cell_angle_beta   96.20985529
_cell_angle_gamma   141.59610441
_symmetry_Int_Tables_number   1
_chemical_formula_structural   Hf8MnTcBi4
_chemical_formula_sum   'Hf8 Mn1 Tc1 Bi4'
_cell_volume   333.00271917
_cell_formula_units_Z   1
loop_
 _symmetry_equiv_pos_site_id
 _symmetry_equiv_pos_as_xyz
  1  'x, y, z'
loop_
 _atom_site_type_symbol
 _atom_site_label
 _atom_site_symmetry_multiplicity
 _atom_site_fract_x
 _atom_site_fract_y
 _atom_site_fract_z
 _atom_site_occupancy
  Hf  Hf0  1  0.699426  0.585730  0.278037  1
  Hf  Hf1  1  0.307678  0.421389  0.721959  1
  Hf  Hf2  1  0.585715  0.307684  0.886286  1
  Hf  Hf3  1  0.078602  0.192316  0.278031  1
  Hf  Hf4  1  0.800570  0.078611  0.886289  1
  Hf  Hf5  1  0.421387  0.699430  0.113693  1
  Hf  Hf6  1  0.914264  0.800570  0.721957  1
  Hf  Hf7  1  0.192307  0.914270  0.113696  1
  Mn  Mn8  1  0.750089  0.750000  0.000089  1
  Tc  Tc9  1  0.249995  0.250000  0.999995  1
  Bi  Bi10  1  0.138087  0.638094  0.776178  1
  Bi  Bi11  1  0.361900  0.138097  0.499994  1
  Bi  Bi12  1  0.861897  0.361903  0.223802  1
  Bi  Bi13  1  0.638083  0.861906  0.499993  1
