# generated using pymatgen
data_Li4CaTb3(Si2Sn)2
_symmetry_space_group_name_H-M   'P 1'
_cell_length_a   9.65495009
_cell_length_b   9.65495008
_cell_length_c   6.82250400
_cell_angle_alpha   90.00000000
_cell_angle_beta   90.00000000
_cell_angle_gamma   153.66436948
_symmetry_Int_Tables_number   1
_chemical_formula_structural   Li4CaTb3(Si2Sn)2
_chemical_formula_sum   'Li4 Ca1 Tb3 Si4 Sn2'
_cell_volume   282.13918288
_cell_formula_units_Z   1
loop_
 _symmetry_equiv_pos_site_id
 _symmetry_equiv_pos_as_xyz
  1  'x, y, z'
loop_
 _atom_site_type_symbol
 _atom_site_label
 _atom_site_symmetry_multiplicity
 _atom_site_fract_x
 _atom_site_fract_y
 _atom_site_fract_z
 _atom_site_occupancy
  Li  Li0  1  0.183086  0.816914  0.055556  1
  Li  Li1  1  0.183086  0.816914  0.444444  1
  Li  Li2  1  0.816566  0.183434  0.946849  1
  Li  Li3  1  0.816566  0.183434  0.553151  1
  Ca  Ca4  1  0.348200  0.651800  0.250000  1
  Tb  Tb5  1  0.650945  0.349055  0.750000  1
  Tb  Tb6  1  0.547070  0.452930  0.250000  1
  Tb  Tb7  1  0.452557  0.547443  0.750000  1
  Si  Si8  1  0.058175  0.941825  0.925201  1
  Si  Si9  1  0.944757  0.055243  0.073668  1
  Si  Si10  1  0.944757  0.055243  0.426332  1
  Si  Si11  1  0.058175  0.941825  0.574799  1
  Sn  Sn12  1  0.717253  0.282747  0.250000  1
  Sn  Sn13  1  0.278809  0.721191  0.750000  1
