# generated using pymatgen
data_PrHg3(Ir2O7)2
_symmetry_space_group_name_H-M   'P 1'
_cell_length_a   7.39861619
_cell_length_b   7.30460024
_cell_length_c   7.30460000
_cell_angle_alpha   60.00000108
_cell_angle_beta   60.41947024
_cell_angle_gamma   60.41946808
_symmetry_Int_Tables_number   1
_chemical_formula_structural   PrHg3(Ir2O7)2
_chemical_formula_sum   'Pr1 Hg3 Ir4 O14'
_cell_volume   280.90084137
_cell_formula_units_Z   1
loop_
 _symmetry_equiv_pos_site_id
 _symmetry_equiv_pos_as_xyz
  1  'x, y, z'
loop_
 _atom_site_type_symbol
 _atom_site_label
 _atom_site_symmetry_multiplicity
 _atom_site_fract_x
 _atom_site_fract_y
 _atom_site_fract_z
 _atom_site_occupancy
  Pr  Pr0  1  0.625000  0.125000  0.125000  1
  Hg  Hg1  1  0.125000  0.125000  0.625000  1
  Hg  Hg2  1  0.125000  0.125000  0.125000  1
  Hg  Hg3  1  0.125000  0.625000  0.125000  1
  Ir  Ir4  1  0.625000  0.625000  0.625000  1
  Ir  Ir5  1  0.125000  0.625000  0.625000  1
  Ir  Ir6  1  0.625000  0.125000  0.625000  1
  Ir  Ir7  1  0.625000  0.625000  0.125000  1
  O  O8  1  0.942881  0.556059  0.556059  1
  O  O9  1  0.307119  0.304998  0.693941  1
  O  O10  1  0.942881  0.556059  0.945002  1
  O  O11  1  0.695860  0.299162  0.299162  1
  O  O12  1  0.554140  0.544183  0.950838  1
  O  O13  1  0.554140  0.950838  0.544183  1
  O  O14  1  0.554140  0.950838  0.950838  1
  O  O15  1  0.228583  0.257139  0.257139  1
  O  O16  1  0.307119  0.693941  0.693941  1
  O  O17  1  0.695860  0.299162  0.705817  1
  O  O18  1  0.021417  0.992861  0.992861  1
  O  O19  1  0.942881  0.945002  0.556059  1
  O  O20  1  0.307119  0.693941  0.304998  1
  O  O21  1  0.695860  0.705817  0.299162  1
