# generated using pymatgen
data_Y7Sn23IrOs5
_symmetry_space_group_name_H-M   'P 1'
_cell_length_a   9.87883300
_cell_length_b   9.87685474
_cell_length_c   10.13213303
_cell_angle_alpha   90.04626374
_cell_angle_beta   90.00000000
_cell_angle_gamma   120.00663590
_symmetry_Int_Tables_number   1
_chemical_formula_structural   Y7Sn23IrOs5
_chemical_formula_sum   'Y7 Sn23 Ir1 Os5'
_cell_volume   856.10413063
_cell_formula_units_Z   1
loop_
 _symmetry_equiv_pos_site_id
 _symmetry_equiv_pos_as_xyz
  1  'x, y, z'
loop_
 _atom_site_type_symbol
 _atom_site_label
 _atom_site_symmetry_multiplicity
 _atom_site_fract_x
 _atom_site_fract_y
 _atom_site_fract_z
 _atom_site_occupancy
  Y  Y0  1  0.004506  0.009011  0.994144  1
  Y  Y1  1  0.033352  0.515259  0.304413  1
  Y  Y2  1  0.482959  0.965918  0.303505  1
  Y  Y3  1  0.481906  0.515259  0.304413  1
  Y  Y4  1  0.968024  0.483580  0.697063  1
  Y  Y5  1  0.515858  0.031715  0.697527  1
  Y  Y6  1  0.515557  0.483580  0.697063  1
  Sn  Sn7  1  0.999474  0.998949  0.498900  1
  Sn  Sn8  1  0.116810  0.883363  0.276318  1
  Sn  Sn9  1  0.766552  0.883363  0.276318  1
  Sn  Sn10  1  0.117101  0.234205  0.274794  1
  Sn  Sn11  1  0.882827  0.116629  0.721883  1
  Sn  Sn12  1  0.233802  0.116629  0.721883  1
  Sn  Sn13  1  0.882864  0.765726  0.725075  1
  Sn  Sn14  1  0.349828  0.000268  0.999993  1
  Sn  Sn15  1  0.648797  0.651230  0.000542  1
  Sn  Sn16  1  0.998999  0.350624  0.999939  1
  Sn  Sn17  1  0.351624  0.350624  0.999939  1
  Sn  Sn18  1  0.002434  0.651230  0.000542  1
  Sn  Sn19  1  0.650440  0.000268  0.999993  1
  Sn  Sn20  1  0.780250  0.560501  0.461488  1
  Sn  Sn21  1  0.779600  0.219173  0.460900  1
  Sn  Sn22  1  0.439573  0.219173  0.460900  1
  Sn  Sn23  1  0.219738  0.439477  0.540566  1
  Sn  Sn24  1  0.219275  0.780049  0.539526  1
  Sn  Sn25  1  0.560774  0.780049  0.539526  1
  Sn  Sn26  1  0.665239  0.330478  0.177072  1
  Sn  Sn27  1  0.333177  0.666357  0.824206  1
  Sn  Sn28  1  0.666808  0.333614  0.873785  1
  Sn  Sn29  1  0.333202  0.666406  0.126787  1
  Ir  Ir30  1  0.828843  0.657687  0.200797  1
  Os  Os31  1  0.169662  0.830450  0.798855  1
  Os  Os32  1  0.660788  0.830450  0.798855  1
  Os  Os33  1  0.168993  0.337984  0.800313  1
  Os  Os34  1  0.830537  0.170362  0.201087  1
  Os  Os35  1  0.339825  0.170362  0.201087  1
