# generated using pymatgen
data_Sr3ReI2O5
_symmetry_space_group_name_H-M   'P 1'
_cell_length_a   7.76280947
_cell_length_b   7.76280874
_cell_length_c   11.59075500
_cell_angle_alpha   90.00000000
_cell_angle_beta   90.00000000
_cell_angle_gamma   135.62345097
_symmetry_Int_Tables_number   1
_chemical_formula_structural   Sr3ReI2O5
_chemical_formula_sum   'Sr6 Re2 I4 O10'
_cell_volume   488.49156232
_cell_formula_units_Z   2
loop_
 _symmetry_equiv_pos_site_id
 _symmetry_equiv_pos_as_xyz
  1  'x, y, z'
loop_
 _atom_site_type_symbol
 _atom_site_label
 _atom_site_symmetry_multiplicity
 _atom_site_fract_x
 _atom_site_fract_y
 _atom_site_fract_z
 _atom_site_occupancy
  Sr  Sr0  1  0.665495  0.334505  0.529629  1
  Sr  Sr1  1  0.334505  0.665495  0.029629  1
  Sr  Sr2  1  0.665495  0.334505  0.970371  1
  Sr  Sr3  1  0.871201  0.128799  0.750000  1
  Sr  Sr4  1  0.334505  0.665495  0.470371  1
  Sr  Sr5  1  0.128799  0.871201  0.250000  1
  Re  Re6  1  0.767076  0.232924  0.250000  1
  Re  Re7  1  0.232924  0.767076  0.750000  1
  I  I8  1  0.502396  0.497604  0.250000  1
  I  I9  1  0.000000  0.000000  0.500000  1
  I  I10  1  0.497604  0.502396  0.750000  1
  I  I11  1  0.000000  0.000000  0.000000  1
  O  O12  1  0.504022  0.045693  0.364215  1
  O  O13  1  0.045693  0.504022  0.635785  1
  O  O14  1  0.495978  0.954307  0.864215  1
  O  O15  1  0.495978  0.954307  0.635785  1
  O  O16  1  0.113777  0.886223  0.750000  1
  O  O17  1  0.045693  0.504022  0.864215  1
  O  O18  1  0.504022  0.045693  0.135785  1
  O  O19  1  0.954307  0.495978  0.364215  1
  O  O20  1  0.886223  0.113777  0.250000  1
  O  O21  1  0.954307  0.495978  0.135785  1
