# generated using pymatgen
data_DyY3(CuPt)2
_symmetry_space_group_name_H-M   'P 1'
_cell_length_a   4.46081500
_cell_length_b   5.54598398
_cell_length_c   7.18130591
_cell_angle_alpha   89.88696834
_cell_angle_beta   90.00000000
_cell_angle_gamma   90.00000000
_symmetry_Int_Tables_number   1
_chemical_formula_structural   DyY3(CuPt)2
_chemical_formula_sum   'Dy1 Y3 Cu2 Pt2'
_cell_volume   177.66235125
_cell_formula_units_Z   1
loop_
 _symmetry_equiv_pos_site_id
 _symmetry_equiv_pos_as_xyz
  1  'x, y, z'
loop_
 _atom_site_type_symbol
 _atom_site_label
 _atom_site_symmetry_multiplicity
 _atom_site_fract_x
 _atom_site_fract_y
 _atom_site_fract_z
 _atom_site_occupancy
  Dy  Dy0  1  0.500000  0.606101  0.816217  1
  Y  Y1  1  0.000000  0.116145  0.683690  1
  Y  Y2  1  0.000000  0.883973  0.183746  1
  Y  Y3  1  0.500000  0.393580  0.316302  1
  Cu  Cu4  1  0.500000  0.889791  0.464681  1
  Cu  Cu5  1  0.500000  0.109675  0.963460  1
  Pt  Pt6  1  0.000000  0.616436  0.536705  1
  Pt  Pt7  1  0.000000  0.384298  0.035200  1
