# generated using pymatgen
data_Ho12CdNi4Pd
_symmetry_space_group_name_H-M   'P 1'
_cell_length_a   8.28450482
_cell_length_b   8.28446667
_cell_length_c   8.28450415
_cell_angle_alpha   111.75128768
_cell_angle_beta   109.82165718
_cell_angle_gamma   106.87780083
_symmetry_Int_Tables_number   1
_chemical_formula_structural   Ho12CdNi4Pd
_chemical_formula_sum   'Ho12 Cd1 Ni4 Pd1'
_cell_volume   436.89920697
_cell_formula_units_Z   1
loop_
 _symmetry_equiv_pos_site_id
 _symmetry_equiv_pos_as_xyz
  1  'x, y, z'
loop_
 _atom_site_type_symbol
 _atom_site_label
 _atom_site_symmetry_multiplicity
 _atom_site_fract_x
 _atom_site_fract_y
 _atom_site_fract_z
 _atom_site_occupancy
  Ho  Ho0  1  0.411480  0.217171  0.194299  1
  Ho  Ho1  1  0.588520  0.782829  0.805701  1
  Ho  Ho2  1  0.022871  0.217171  0.805692  1
  Ho  Ho3  1  0.977129  0.782829  0.194308  1
  Ho  Ho4  1  0.183735  0.296653  0.480387  1
  Ho  Ho5  1  0.816265  0.703347  0.519613  1
  Ho  Ho6  1  0.183735  0.703347  0.887083  1
  Ho  Ho7  1  0.816265  0.296653  0.112917  1
  Ho  Ho8  1  0.322570  0.626765  0.304195  1
  Ho  Ho9  1  0.677430  0.373235  0.695805  1
  Ho  Ho10  1  0.322566  0.018370  0.695804  1
  Ho  Ho11  1  0.677434  0.981630  0.304196  1
  Cd  Cd12  1  0.500000  0.500000  0.000000  1
  Ni  Ni13  1  0.364636  0.000000  0.364636  1
  Ni  Ni14  1  0.635364  0.000000  0.635364  1
  Ni  Ni15  1  0.125129  0.625127  0.499997  1
  Ni  Ni16  1  0.874871  0.374873  0.500003  1
  Pd  Pd17  1  0.000000  0.000000  0.000000  1
