# generated using pymatgen
data_Dy3YGa18Co5Ni
_symmetry_space_group_name_H-M   'P 1'
_cell_length_a   7.38241960
_cell_length_b   7.38244149
_cell_length_c   9.39732507
_cell_angle_alpha   89.94549890
_cell_angle_beta   89.93741704
_cell_angle_gamma   119.87277072
_symmetry_Int_Tables_number   1
_chemical_formula_structural   Dy3YGa18Co5Ni
_chemical_formula_sum   'Dy3 Y1 Ga18 Co5 Ni1'
_cell_volume   444.10746772
_cell_formula_units_Z   1
loop_
 _symmetry_equiv_pos_site_id
 _symmetry_equiv_pos_as_xyz
  1  'x, y, z'
loop_
 _atom_site_type_symbol
 _atom_site_label
 _atom_site_symmetry_multiplicity
 _atom_site_fract_x
 _atom_site_fract_y
 _atom_site_fract_z
 _atom_site_occupancy
  Dy  Dy0  1  0.996869  0.668018  0.749567  1
  Dy  Dy1  1  0.668077  0.996998  0.749576  1
  Dy  Dy2  1  0.003104  0.331968  0.250448  1
  Y  Y3  1  0.331947  0.003096  0.250439  1
  Ga  Ga4  1  0.336267  0.999399  0.926717  1
  Ga  Ga5  1  0.000519  0.663710  0.073184  1
  Ga  Ga6  1  0.333909  0.999336  0.571884  1
  Ga  Ga7  1  0.000609  0.666024  0.428199  1
  Ga  Ga8  1  0.663788  0.000577  0.073198  1
  Ga  Ga9  1  0.999405  0.336233  0.926754  1
  Ga  Ga10  1  0.666108  0.000664  0.428189  1
  Ga  Ga11  1  0.999335  0.333927  0.571869  1
  Ga  Ga12  1  0.663839  0.663828  0.941572  1
  Ga  Ga13  1  0.336181  0.336242  0.058381  1
  Ga  Ga14  1  0.666702  0.666674  0.557327  1
  Ga  Ga15  1  0.333288  0.333312  0.442717  1
  Ga  Ga16  1  0.121581  0.121584  0.748010  1
  Ga  Ga17  1  0.878331  0.878394  0.251935  1
  Ga  Ga18  1  0.449513  0.663935  0.250142  1
  Ga  Ga19  1  0.336002  0.550513  0.749878  1
  Ga  Ga20  1  0.550522  0.336011  0.749869  1
  Ga  Ga21  1  0.664064  0.449554  0.250127  1
  Co  Co22  1  0.999990  0.000002  0.500022  1
  Co  Co23  1  0.328974  0.671025  0.999993  1
  Co  Co24  1  0.328900  0.671082  0.500009  1
  Co  Co25  1  0.671049  0.328976  0.999983  1
  Co  Co26  1  0.671126  0.328918  0.500010  1
  Ni  Ni27  1  0.000002  0.999999  0.000000  1
