# generated using pymatgen
data_TbLu7(HfIr3)2
_symmetry_space_group_name_H-M   'P 1'
_cell_length_a   10.68015763
_cell_length_b   10.69439400
_cell_length_c   6.17826081
_cell_angle_alpha   90.00000000
_cell_angle_beta   89.83040114
_cell_angle_gamma   90.00000000
_symmetry_Int_Tables_number   1
_chemical_formula_structural   TbLu7(HfIr3)2
_chemical_formula_sum   'Tb2 Lu14 Hf4 Ir12'
_cell_volume   705.66435006
_cell_formula_units_Z   2
loop_
 _symmetry_equiv_pos_site_id
 _symmetry_equiv_pos_as_xyz
  1  'x, y, z'
loop_
 _atom_site_type_symbol
 _atom_site_label
 _atom_site_symmetry_multiplicity
 _atom_site_fract_x
 _atom_site_fract_y
 _atom_site_fract_z
 _atom_site_occupancy
  Tb  Tb0  1  0.087341  0.712482  0.631599  1
  Tb  Tb1  1  0.087341  0.287518  0.131599  1
  Lu  Lu2  1  0.291544  0.083268  0.373388  1
  Lu  Lu3  1  0.291544  0.916732  0.873388  1
  Lu  Lu4  1  0.709616  0.085449  0.869668  1
  Lu  Lu5  1  0.709616  0.914551  0.369668  1
  Lu  Lu6  1  0.585351  0.790048  0.871942  1
  Lu  Lu7  1  0.585351  0.209952  0.371942  1
  Lu  Lu8  1  0.415345  0.789717  0.370683  1
  Lu  Lu9  1  0.415345  0.210283  0.870683  1
  Lu  Lu10  1  0.210135  0.414218  0.629218  1
  Lu  Lu11  1  0.210135  0.585782  0.129218  1
  Lu  Lu12  1  0.789314  0.414599  0.129655  1
  Lu  Lu13  1  0.789314  0.585401  0.629655  1
  Lu  Lu14  1  0.913106  0.709350  0.128836  1
  Lu  Lu15  1  0.913106  0.290650  0.628836  1
  Hf  Hf16  1  0.998272  0.001401  0.496425  1
  Hf  Hf17  1  0.998272  0.998599  0.996425  1
  Hf  Hf18  1  0.500429  0.499834  0.000005  1
  Hf  Hf19  1  0.500429  0.500166  0.500005  1
  Ir  Ir20  1  0.851506  0.144924  0.250213  1
  Ir  Ir21  1  0.851506  0.855076  0.750213  1
  Ir  Ir22  1  0.146034  0.144537  0.745446  1
  Ir  Ir23  1  0.146034  0.855463  0.245446  1
  Ir  Ir24  1  0.646107  0.354281  0.749999  1
  Ir  Ir25  1  0.646107  0.645719  0.249999  1
  Ir  Ir26  1  0.356476  0.353760  0.251940  1
  Ir  Ir27  1  0.356476  0.646240  0.751940  1
  Ir  Ir28  1  0.500576  0.000009  0.117858  1
  Ir  Ir29  1  0.500576  0.999991  0.617858  1
  Ir  Ir30  1  0.998848  0.499631  0.883127  1
  Ir  Ir31  1  0.998848  0.500369  0.383127  1
