# generated using pymatgen
data_Zn3CrRh4
_symmetry_space_group_name_H-M   'P 1'
_cell_length_a   7.42259693
_cell_length_b   7.42259746
_cell_length_c   7.42259800
_cell_angle_alpha   33.57515044
_cell_angle_beta   33.57514428
_cell_angle_gamma   33.57516217
_symmetry_Int_Tables_number   1
_chemical_formula_structural   Zn3CrRh4
_chemical_formula_sum   'Zn3 Cr1 Rh4'
_cell_volume   111.40924399
_cell_formula_units_Z   1
loop_
 _symmetry_equiv_pos_site_id
 _symmetry_equiv_pos_as_xyz
  1  'x, y, z'
loop_
 _atom_site_type_symbol
 _atom_site_label
 _atom_site_symmetry_multiplicity
 _atom_site_fract_x
 _atom_site_fract_y
 _atom_site_fract_z
 _atom_site_occupancy
  Zn  Zn0  1  0.249664  0.249664  0.249664  1
  Zn  Zn1  1  0.750336  0.750336  0.750336  1
  Zn  Zn2  1  0.500000  0.500000  0.500000  1
  Cr  Cr3  1  0.000000  0.000000  0.000000  1
  Rh  Rh4  1  0.374032  0.374032  0.374032  1
  Rh  Rh5  1  0.876638  0.876638  0.876638  1
  Rh  Rh6  1  0.625968  0.625968  0.625968  1
  Rh  Rh7  1  0.123362  0.123362  0.123362  1
