# generated using pymatgen
data_Nd2Si4Tc3
_symmetry_space_group_name_H-M   'P 1'
_cell_length_a   8.17316600
_cell_length_b   5.69650837
_cell_length_c   7.04180590
_cell_angle_alpha   76.92835416
_cell_angle_beta   90.00000000
_cell_angle_gamma   90.00000000
_symmetry_Int_Tables_number   1
_chemical_formula_structural   Nd2Si4Tc3
_chemical_formula_sum   'Nd4 Si8 Tc6'
_cell_volume   319.36057971
_cell_formula_units_Z   2
loop_
 _symmetry_equiv_pos_site_id
 _symmetry_equiv_pos_as_xyz
  1  'x, y, z'
loop_
 _atom_site_type_symbol
 _atom_site_label
 _atom_site_symmetry_multiplicity
 _atom_site_fract_x
 _atom_site_fract_y
 _atom_site_fract_z
 _atom_site_occupancy
  Nd  Nd0  1  0.930421  0.563359  0.251946  1
  Nd  Nd1  1  0.430421  0.936641  0.748054  1
  Nd  Nd2  1  0.069579  0.436641  0.748054  1
  Nd  Nd3  1  0.569579  0.063359  0.251946  1
  Si  Si4  1  0.588323  0.611604  0.110244  1
  Si  Si5  1  0.088323  0.888396  0.889756  1
  Si  Si6  1  0.411677  0.388396  0.889756  1
  Si  Si7  1  0.911677  0.111604  0.110244  1
  Si  Si8  1  0.751931  0.717830  0.589035  1
  Si  Si9  1  0.251931  0.782170  0.410965  1
  Si  Si10  1  0.248069  0.282170  0.410965  1
  Si  Si11  1  0.748069  0.217830  0.589035  1
  Tc  Tc12  1  0.293132  0.609372  0.121627  1
  Tc  Tc13  1  0.793132  0.890628  0.878373  1
  Tc  Tc14  1  0.706868  0.390628  0.878373  1
  Tc  Tc15  1  0.206868  0.109372  0.121627  1
  Tc  Tc16  1  0.500000  0.500000  0.500000  1
  Tc  Tc17  1  0.000000  0.000000  0.500000  1
