# generated using pymatgen
data_Er8Nb12Si15As
_symmetry_space_group_name_H-M   'P 1'
_cell_length_a   6.85233981
_cell_length_b   7.04910583
_cell_length_c   13.37418369
_cell_angle_alpha   90.04411079
_cell_angle_beta   89.77551361
_cell_angle_gamma   90.08272689
_symmetry_Int_Tables_number   1
_chemical_formula_structural   Er8Nb12Si15As
_chemical_formula_sum   'Er8 Nb12 Si15 As1'
_cell_volume   646.00561498
_cell_formula_units_Z   1
loop_
 _symmetry_equiv_pos_site_id
 _symmetry_equiv_pos_as_xyz
  1  'x, y, z'
loop_
 _atom_site_type_symbol
 _atom_site_label
 _atom_site_symmetry_multiplicity
 _atom_site_fract_x
 _atom_site_fract_y
 _atom_site_fract_z
 _atom_site_occupancy
  Er  Er0  1  0.503337  0.328010  0.096181  1
  Er  Er1  1  0.001032  0.174192  0.404197  1
  Er  Er2  1  0.501511  0.674823  0.597213  1
  Er  Er3  1  0.996514  0.827695  0.904500  1
  Er  Er4  1  0.496928  0.671710  0.904284  1
  Er  Er5  1  0.997673  0.826603  0.595930  1
  Er  Er6  1  0.502309  0.325830  0.402495  1
  Er  Er7  1  0.003606  0.172188  0.095696  1
  Nb  Nb8  1  0.662710  0.006790  0.749567  1
  Nb  Nb9  1  0.163609  0.491804  0.751383  1
  Nb  Nb10  1  0.337494  0.993092  0.250374  1
  Nb  Nb11  1  0.836872  0.506967  0.250065  1
  Nb  Nb12  1  0.838029  0.326585  0.624571  1
  Nb  Nb13  1  0.336705  0.174374  0.874347  1
  Nb  Nb14  1  0.162330  0.674922  0.125900  1
  Nb  Nb15  1  0.660266  0.827155  0.373950  1
  Nb  Nb16  1  0.160358  0.675048  0.373893  1
  Nb  Nb17  1  0.662593  0.825321  0.125586  1
  Nb  Nb18  1  0.837504  0.325399  0.874258  1
  Nb  Nb19  1  0.340263  0.170398  0.626539  1
  Si  Si20  1  0.796508  0.628644  0.750567  1
  Si  Si21  1  0.295866  0.870633  0.751015  1
  Si  Si22  1  0.204018  0.371323  0.249539  1
  Si  Si23  1  0.704804  0.128550  0.249161  1
  Si  Si24  1  0.542251  0.377076  0.750258  1
  Si  Si25  1  0.040513  0.121735  0.749939  1
  Si  Si26  1  0.458256  0.621810  0.249817  1
  Si  Si27  1  0.958062  0.878063  0.249717  1
  Si  Si28  1  0.665417  0.037466  0.540263  1
  Si  Si29  1  0.163037  0.463550  0.959213  1
  Si  Si30  1  0.336873  0.963860  0.041032  1
  Si  Si31  1  0.824766  0.540073  0.457166  1
  Si  Si32  1  0.334870  0.963128  0.459279  1
  Si  Si33  1  0.836822  0.536215  0.041139  1
  Si  Si34  1  0.663037  0.036484  0.959231  1
  As  As35  1  0.173262  0.462487  0.541740  1
