# generated using pymatgen
data_La3Pr3NdRh3
_symmetry_space_group_name_H-M   'P 1'
_cell_length_a   6.44797700
_cell_length_b   10.22505106
_cell_length_c   10.22505201
_cell_angle_alpha   120.00797738
_cell_angle_beta   90.00000000
_cell_angle_gamma   90.00000000
_symmetry_Int_Tables_number   1
_chemical_formula_structural   La3Pr3NdRh3
_chemical_formula_sum   'La6 Pr6 Nd2 Rh6'
_cell_volume   583.78133593
_cell_formula_units_Z   2
loop_
 _symmetry_equiv_pos_site_id
 _symmetry_equiv_pos_as_xyz
  1  'x, y, z'
loop_
 _atom_site_type_symbol
 _atom_site_label
 _atom_site_symmetry_multiplicity
 _atom_site_fract_x
 _atom_site_fract_y
 _atom_site_fract_z
 _atom_site_occupancy
  La  La0  1  0.253198  0.126173  0.873827  1
  La  La1  1  0.253189  0.747672  0.873839  1
  La  La2  1  0.253189  0.126161  0.252328  1
  La  La3  1  0.753198  0.873827  0.126173  1
  La  La4  1  0.753189  0.252328  0.126161  1
  La  La5  1  0.753189  0.873839  0.747672  1
  Pr  Pr6  1  0.440227  0.541057  0.458943  1
  Pr  Pr7  1  0.440267  0.917862  0.458899  1
  Pr  Pr8  1  0.440267  0.541101  0.082138  1
  Pr  Pr9  1  0.940227  0.458943  0.541057  1
  Pr  Pr10  1  0.940267  0.082138  0.541101  1
  Pr  Pr11  1  0.940267  0.458899  0.917862  1
  Nd  Nd12  1  0.465747  0.333325  0.666675  1
  Nd  Nd13  1  0.965747  0.666675  0.333325  1
  Rh  Rh14  1  0.182378  0.812370  0.187630  1
  Rh  Rh15  1  0.182269  0.375351  0.187661  1
  Rh  Rh16  1  0.182269  0.812339  0.624649  1
  Rh  Rh17  1  0.682378  0.187630  0.812370  1
  Rh  Rh18  1  0.682269  0.624649  0.812339  1
  Rh  Rh19  1  0.682269  0.187661  0.375351  1
