# generated using pymatgen
data_Nd3Mg(P3Rh4)2
_symmetry_space_group_name_H-M   'P 1'
_cell_length_a   3.99120100
_cell_length_b   11.36890400
_cell_length_c   12.98528700
_cell_angle_alpha   90.00000000
_cell_angle_beta   90.00000000
_cell_angle_gamma   90.00000000
_symmetry_Int_Tables_number   1
_chemical_formula_structural   Nd3Mg(P3Rh4)2
_chemical_formula_sum   'Nd6 Mg2 P12 Rh16'
_cell_volume   589.21494225
_cell_formula_units_Z   2
loop_
 _symmetry_equiv_pos_site_id
 _symmetry_equiv_pos_as_xyz
  1  'x, y, z'
loop_
 _atom_site_type_symbol
 _atom_site_label
 _atom_site_symmetry_multiplicity
 _atom_site_fract_x
 _atom_site_fract_y
 _atom_site_fract_z
 _atom_site_occupancy
  Nd  Nd0  1  0.000000  0.500000  0.520204  1
  Nd  Nd1  1  0.500000  0.000000  0.479796  1
  Nd  Nd2  1  0.500000  0.820337  0.205246  1
  Nd  Nd3  1  0.500000  0.179663  0.205246  1
  Nd  Nd4  1  0.000000  0.679663  0.794754  1
  Nd  Nd5  1  0.000000  0.320337  0.794754  1
  Mg  Mg6  1  0.500000  0.500000  0.157868  1
  Mg  Mg7  1  0.000000  0.000000  0.842132  1
  P  P8  1  0.500000  0.500000  0.883280  1
  P  P9  1  0.000000  0.000000  0.116720  1
  P  P10  1  0.500000  0.500000  0.351771  1
  P  P11  1  0.000000  0.000000  0.648229  1
  P  P12  1  0.500000  0.310257  0.616054  1
  P  P13  1  0.500000  0.689743  0.616054  1
  P  P14  1  0.000000  0.189743  0.383946  1
  P  P15  1  0.000000  0.810257  0.383946  1
  P  P16  1  0.500000  0.840862  0.892335  1
  P  P17  1  0.500000  0.159138  0.892335  1
  P  P18  1  0.000000  0.659138  0.107665  1
  P  P19  1  0.000000  0.340862  0.107665  1
  Rh  Rh20  1  0.500000  0.500000  0.703567  1
  Rh  Rh21  1  0.000000  0.000000  0.296433  1
  Rh  Rh22  1  0.000000  0.500000  0.987098  1
  Rh  Rh23  1  0.500000  0.000000  0.012902  1
  Rh  Rh24  1  0.500000  0.333148  0.997343  1
  Rh  Rh25  1  0.500000  0.666852  0.997343  1
  Rh  Rh26  1  0.000000  0.166852  0.002657  1
  Rh  Rh27  1  0.000000  0.833148  0.002657  1
  Rh  Rh28  1  0.500000  0.292024  0.431353  1
  Rh  Rh29  1  0.500000  0.707976  0.431353  1
  Rh  Rh30  1  0.000000  0.207976  0.568647  1
  Rh  Rh31  1  0.000000  0.792024  0.568647  1
  Rh  Rh32  1  0.500000  0.875292  0.709867  1
  Rh  Rh33  1  0.500000  0.124708  0.709867  1
  Rh  Rh34  1  0.000000  0.624708  0.290133  1
  Rh  Rh35  1  0.000000  0.375292  0.290133  1
