# generated using pymatgen
data_Pm2Ga2AgPt3
_symmetry_space_group_name_H-M   'P 1'
_cell_length_a   6.88563600
_cell_length_b   5.62581168
_cell_length_c   4.29719000
_cell_angle_alpha   90.00000000
_cell_angle_beta   90.00000000
_cell_angle_gamma   110.55928269
_symmetry_Int_Tables_number   1
_chemical_formula_structural   Pm2Ga2AgPt3
_chemical_formula_sum   'Pm2 Ga2 Ag1 Pt3'
_cell_volume   155.85945786
_cell_formula_units_Z   1
loop_
 _symmetry_equiv_pos_site_id
 _symmetry_equiv_pos_as_xyz
  1  'x, y, z'
loop_
 _atom_site_type_symbol
 _atom_site_label
 _atom_site_symmetry_multiplicity
 _atom_site_fract_x
 _atom_site_fract_y
 _atom_site_fract_z
 _atom_site_occupancy
  Pm  Pm0  1  0.421796  0.709357  0.750000  1
  Pm  Pm1  1  0.587192  0.297100  0.250000  1
  Ga  Ga2  1  0.120251  0.860590  0.250000  1
  Ga  Ga3  1  0.871428  0.136836  0.750000  1
  Ag  Ag4  1  0.100360  0.377742  0.250000  1
  Pt  Pt5  1  0.746571  0.868237  0.250000  1
  Pt  Pt6  1  0.898748  0.615785  0.750000  1
  Pt  Pt7  1  0.253654  0.134353  0.750000  1
