# generated using pymatgen
data_Pr16Er4Ga5Sn11
_symmetry_space_group_name_H-M   'P 1'
_cell_length_a   7.92587036
_cell_length_b   8.58325463
_cell_length_c   15.98443400
_cell_angle_alpha   90.16354501
_cell_angle_beta   89.79779118
_cell_angle_gamma   90.03628981
_symmetry_Int_Tables_number   1
_chemical_formula_structural   Pr16Er4Ga5Sn11
_chemical_formula_sum   'Pr16 Er4 Ga5 Sn11'
_cell_volume   1087.40585137
_cell_formula_units_Z   1
loop_
 _symmetry_equiv_pos_site_id
 _symmetry_equiv_pos_as_xyz
  1  'x, y, z'
loop_
 _atom_site_type_symbol
 _atom_site_label
 _atom_site_symmetry_multiplicity
 _atom_site_fract_x
 _atom_site_fract_y
 _atom_site_fract_z
 _atom_site_occupancy
  Pr  Pr0  1  0.672319  0.168014  0.624458  1
  Pr  Pr1  1  0.166440  0.323521  0.870797  1
  Pr  Pr2  1  0.333045  0.824449  0.128970  1
  Pr  Pr3  1  0.826503  0.685685  0.375042  1
  Pr  Pr4  1  0.338198  0.826398  0.372351  1
  Pr  Pr5  1  0.834358  0.677254  0.129415  1
  Pr  Pr6  1  0.666657  0.175615  0.870818  1
  Pr  Pr7  1  0.167813  0.322531  0.627650  1
  Pr  Pr8  1  0.509135  0.686368  0.593659  1
  Pr  Pr9  1  0.007023  0.815133  0.904033  1
  Pr  Pr10  1  0.493042  0.316743  0.096326  1
  Pr  Pr11  1  0.985008  0.179969  0.406440  1
  Pr  Pr12  1  0.492726  0.312618  0.404875  1
  Pr  Pr13  1  0.993121  0.185736  0.095819  1
  Pr  Pr14  1  0.507114  0.683993  0.904259  1
  Pr  Pr15  1  0.008223  0.816907  0.595385  1
  Er  Er16  1  0.822412  0.507452  0.749122  1
  Er  Er17  1  0.324475  0.990615  0.749310  1
  Er  Er18  1  0.174869  0.491995  0.252244  1
  Er  Er19  1  0.677139  0.011040  0.251854  1
  Ga  Ga20  1  0.667096  0.969824  0.459152  1
  Ga  Ga21  1  0.471290  0.393468  0.748332  1
  Ga  Ga22  1  0.971050  0.101208  0.749122  1
  Ga  Ga23  1  0.529157  0.601980  0.249398  1
  Ga  Ga24  1  0.030310  0.897242  0.252768  1
  Sn  Sn25  1  0.175824  0.533344  0.038465  1
  Sn  Sn26  1  0.324187  0.033256  0.961478  1
  Sn  Sn27  1  0.825251  0.467027  0.539287  1
  Sn  Sn28  1  0.332695  0.031996  0.537767  1
  Sn  Sn29  1  0.824008  0.466713  0.961781  1
  Sn  Sn30  1  0.676260  0.967187  0.038661  1
  Sn  Sn31  1  0.173986  0.533151  0.460440  1
  Sn  Sn32  1  0.712535  0.862747  0.750041  1
  Sn  Sn33  1  0.212888  0.635048  0.749060  1
  Sn  Sn34  1  0.285739  0.136660  0.250163  1
  Sn  Sn35  1  0.788105  0.367115  0.251259  1
