# generated using pymatgen
data_CaDyMnRh3
_symmetry_space_group_name_H-M   'P 1'
_cell_length_a   5.18001129
_cell_length_b   5.53486860
_cell_length_c   5.53486900
_cell_angle_alpha   60.00000361
_cell_angle_beta   57.70676775
_cell_angle_gamma   57.70676319
_symmetry_Int_Tables_number   1
_chemical_formula_structural   CaDyMnRh3
_chemical_formula_sum   'Ca1 Dy1 Mn1 Rh3'
_cell_volume   108.16155815
_cell_formula_units_Z   1
loop_
 _symmetry_equiv_pos_site_id
 _symmetry_equiv_pos_as_xyz
  1  'x, y, z'
loop_
 _atom_site_type_symbol
 _atom_site_label
 _atom_site_symmetry_multiplicity
 _atom_site_fract_x
 _atom_site_fract_y
 _atom_site_fract_z
 _atom_site_occupancy
  Ca  Ca0  1  0.743521  0.752159  0.752159  1
  Dy  Dy1  1  0.508702  0.497100  0.497100  1
  Mn  Mn2  1  0.624696  0.125101  0.125101  1
  Rh  Rh3  1  0.124360  0.125132  0.625375  1
  Rh  Rh4  1  0.124360  0.625375  0.125132  1
  Rh  Rh5  1  0.124360  0.125132  0.125132  1
