# generated using pymatgen
data_Ti10Al2Sn3Bi
_symmetry_space_group_name_H-M   'P 1'
_cell_length_a   7.94888094
_cell_length_b   7.94888085
_cell_length_c   7.95653399
_cell_angle_alpha   96.17283224
_cell_angle_beta   96.17282813
_cell_angle_gamma   141.69636812
_symmetry_Int_Tables_number   1
_chemical_formula_structural   Ti10Al2Sn3Bi
_chemical_formula_sum   'Ti10 Al2 Sn3 Bi1'
_cell_volume   294.39479313
_cell_formula_units_Z   1
loop_
 _symmetry_equiv_pos_site_id
 _symmetry_equiv_pos_as_xyz
  1  'x, y, z'
loop_
 _atom_site_type_symbol
 _atom_site_label
 _atom_site_symmetry_multiplicity
 _atom_site_fract_x
 _atom_site_fract_y
 _atom_site_fract_z
 _atom_site_occupancy
  Ti  Ti0  1  0.215187  0.926630  0.141817  1
  Ti  Ti1  1  0.426630  0.715187  0.141817  1
  Ti  Ti2  1  0.077067  0.214204  0.291271  1
  Ti  Ti3  1  0.714204  0.577067  0.291271  1
  Ti  Ti4  1  0.750758  0.250758  0.506403  1
  Ti  Ti5  1  0.255643  0.755643  0.506403  1
  Ti  Ti6  1  0.282348  0.424603  0.706952  1
  Ti  Ti7  1  0.924603  0.782348  0.706952  1
  Ti  Ti8  1  0.781594  0.072753  0.854347  1
  Ti  Ti9  1  0.572752  0.281594  0.854346  1
  Al  Al10  1  0.249370  0.249370  0.998741  1
  Al  Al11  1  0.749370  0.749370  0.998741  1
  Sn  Sn12  1  0.334885  0.164173  0.499057  1
  Sn  Sn13  1  0.664173  0.834885  0.499057  1
  Sn  Sn14  1  0.165820  0.665820  0.831639  1
  Bi  Bi15  1  0.835592  0.335592  0.171184  1
