# generated using pymatgen
data_CePa7Ti9Nb3Ge16
_symmetry_space_group_name_H-M   'P 1'
_cell_length_a   7.07886226
_cell_length_b   7.11671709
_cell_length_c   13.56602359
_cell_angle_alpha   89.93788375
_cell_angle_beta   89.95394324
_cell_angle_gamma   89.96790807
_symmetry_Int_Tables_number   1
_chemical_formula_structural   CePa7Ti9Nb3Ge16
_chemical_formula_sum   'Ce1 Pa7 Ti9 Nb3 Ge16'
_cell_volume   683.43193531
_cell_formula_units_Z   1
loop_
 _symmetry_equiv_pos_site_id
 _symmetry_equiv_pos_as_xyz
  1  'x, y, z'
loop_
 _atom_site_type_symbol
 _atom_site_label
 _atom_site_symmetry_multiplicity
 _atom_site_fract_x
 _atom_site_fract_y
 _atom_site_fract_z
 _atom_site_occupancy
  Ce  Ce0  1  0.993291  0.832037  0.593693  1
  Pa  Pa1  1  0.493523  0.667942  0.594313  1
  Pa  Pa2  1  0.993938  0.831965  0.905161  1
  Pa  Pa3  1  0.507158  0.330738  0.093910  1
  Pa  Pa4  1  0.006697  0.170883  0.405207  1
  Pa  Pa5  1  0.506824  0.331625  0.406554  1
  Pa  Pa6  1  0.007324  0.170181  0.094311  1
  Pa  Pa7  1  0.491700  0.671668  0.905206  1
  Ti  Ti8  1  0.652539  0.167243  0.624979  1
  Ti  Ti9  1  0.159408  0.332688  0.876042  1
  Ti  Ti10  1  0.342509  0.834285  0.124570  1
  Ti  Ti11  1  0.838016  0.664527  0.375431  1
  Ti  Ti12  1  0.343349  0.833193  0.375309  1
  Ti  Ti13  1  0.841692  0.665957  0.124161  1
  Ti  Ti14  1  0.659420  0.163849  0.875868  1
  Ti  Ti15  1  0.164770  0.332461  0.624008  1
  Ti  Ti16  1  0.825599  0.501102  0.751562  1
  Nb  Nb17  1  0.329626  0.997776  0.750904  1
  Nb  Nb18  1  0.172346  0.497752  0.249625  1
  Nb  Nb19  1  0.672478  0.001867  0.250144  1
  Ge  Ge20  1  0.673745  0.954022  0.456713  1
  Ge  Ge21  1  0.175287  0.547917  0.042505  1
  Ge  Ge22  1  0.324651  0.048189  0.957181  1
  Ge  Ge23  1  0.826499  0.451524  0.545401  1
  Ge  Ge24  1  0.325347  0.045745  0.542483  1
  Ge  Ge25  1  0.823853  0.453749  0.955201  1
  Ge  Ge26  1  0.676318  0.953009  0.043151  1
  Ge  Ge27  1  0.174420  0.546261  0.456273  1
  Ge  Ge28  1  0.460658  0.366946  0.751330  1
  Ge  Ge29  1  0.957333  0.139136  0.749603  1
  Ge  Ge30  1  0.541639  0.634318  0.249740  1
  Ge  Ge31  1  0.042008  0.864992  0.250565  1
  Ge  Ge32  1  0.693589  0.865493  0.749379  1
  Ge  Ge33  1  0.185432  0.628845  0.749187  1
  Ge  Ge34  1  0.308837  0.131013  0.250359  1
  Ge  Ge35  1  0.808180  0.369102  0.249973  1
