# generated using pymatgen
data_DyThSc2(Al3Ir)6
_symmetry_space_group_name_H-M   'P 1'
_cell_length_a   7.54602600
_cell_length_b   7.55204162
_cell_length_c   9.41088800
_cell_angle_alpha   90.00000000
_cell_angle_beta   90.00000000
_cell_angle_gamma   119.55719251
_symmetry_Int_Tables_number   1
_chemical_formula_structural   DyThSc2(Al3Ir)6
_chemical_formula_sum   'Dy1 Th1 Sc2 Al18 Ir6'
_cell_volume   466.51380266
_cell_formula_units_Z   1
loop_
 _symmetry_equiv_pos_site_id
 _symmetry_equiv_pos_as_xyz
  1  'x, y, z'
loop_
 _atom_site_type_symbol
 _atom_site_label
 _atom_site_symmetry_multiplicity
 _atom_site_fract_x
 _atom_site_fract_y
 _atom_site_fract_z
 _atom_site_occupancy
  Dy  Dy0  1  0.672743  0.994514  0.250000  1
  Th  Th1  1  0.993907  0.671409  0.250000  1
  Sc  Sc2  1  0.002288  0.327983  0.750000  1
  Sc  Sc3  1  0.326249  0.003105  0.750000  1
  Al  Al4  1  0.133229  0.135440  0.250000  1
  Al  Al5  1  0.876971  0.879186  0.750000  1
  Al  Al6  1  0.002488  0.331581  0.067875  1
  Al  Al7  1  0.002985  0.664322  0.913046  1
  Al  Al8  1  0.002985  0.664322  0.586954  1
  Al  Al9  1  0.339708  0.005617  0.432138  1
  Al  Al10  1  0.002488  0.331581  0.432125  1
  Al  Al11  1  0.664680  0.003723  0.581949  1
  Al  Al12  1  0.664680  0.003723  0.918051  1
  Al  Al13  1  0.339708  0.005617  0.067862  1
  Al  Al14  1  0.329081  0.329153  0.563942  1
  Al  Al15  1  0.662103  0.665473  0.458170  1
  Al  Al16  1  0.662103  0.665473  0.041830  1
  Al  Al17  1  0.329081  0.329153  0.936058  1
  Al  Al18  1  0.344308  0.547596  0.250000  1
  Al  Al19  1  0.658056  0.444162  0.750000  1
  Al  Al20  1  0.542882  0.336068  0.250000  1
  Al  Al21  1  0.445047  0.660448  0.750000  1
  Ir  Ir22  1  0.673661  0.329477  0.999140  1
  Ir  Ir23  1  0.326524  0.671833  0.999043  1
  Ir  Ir24  1  0.326524  0.671833  0.500957  1
  Ir  Ir25  1  0.673661  0.329477  0.500860  1
  Ir  Ir26  1  0.000927  0.998863  0.999482  1
  Ir  Ir27  1  0.000927  0.998863  0.500518  1
