# generated using pymatgen
data_Ac7Yb4Pr9Si16
_symmetry_space_group_name_H-M   'P 1'
_cell_length_a   8.07285830
_cell_length_b   8.08177262
_cell_length_c   15.30905531
_cell_angle_alpha   90.13788371
_cell_angle_beta   89.92729131
_cell_angle_gamma   90.16126439
_symmetry_Int_Tables_number   1
_chemical_formula_structural   Ac7Yb4Pr9Si16
_chemical_formula_sum   'Ac7 Yb4 Pr9 Si16'
_cell_volume   998.80113034
_cell_formula_units_Z   1
loop_
 _symmetry_equiv_pos_site_id
 _symmetry_equiv_pos_as_xyz
  1  'x, y, z'
loop_
 _atom_site_type_symbol
 _atom_site_label
 _atom_site_symmetry_multiplicity
 _atom_site_fract_x
 _atom_site_fract_y
 _atom_site_fract_z
 _atom_site_occupancy
  Ac  Ac0  1  0.372031  0.011252  0.449482  1
  Ac  Ac1  1  0.487148  0.873202  0.700896  1
  Ac  Ac2  1  0.512237  0.127828  0.200459  1
  Ac  Ac3  1  0.871030  0.487117  0.297494  1
  Ac  Ac4  1  0.126575  0.513918  0.800443  1
  Ac  Ac5  1  0.628979  0.988279  0.952778  1
  Ac  Ac6  1  0.011518  0.372388  0.549076  1
  Yb  Yb7  1  0.308605  0.312349  0.999854  1
  Yb  Yb8  1  0.188289  0.808401  0.248878  1
  Yb  Yb9  1  0.810028  0.190651  0.750665  1
  Yb  Yb10  1  0.689614  0.689609  0.499509  1
  Pr  Pr11  1  0.994412  0.620663  0.053315  1
  Pr  Pr12  1  0.124728  0.986709  0.877656  1
  Pr  Pr13  1  0.512233  0.626009  0.126095  1
  Pr  Pr14  1  0.487089  0.373760  0.626542  1
  Pr  Pr15  1  0.627757  0.513954  0.874603  1
  Pr  Pr16  1  0.374270  0.487514  0.372690  1
  Pr  Pr17  1  0.874159  0.011447  0.375755  1
  Pr  Pr18  1  0.988458  0.124457  0.122964  1
  Pr  Pr19  1  0.012433  0.875114  0.623191  1
  Si  Si20  1  0.202987  0.163920  0.701224  1
  Si  Si21  1  0.331874  0.700156  0.951979  1
  Si  Si22  1  0.662667  0.296033  0.449634  1
  Si  Si23  1  0.709728  0.343180  0.051752  1
  Si  Si24  1  0.296692  0.663124  0.549324  1
  Si  Si25  1  0.799182  0.834460  0.196657  1
  Si  Si26  1  0.162520  0.203728  0.298776  1
  Si  Si27  1  0.835072  0.798923  0.799269  1
  Si  Si28  1  0.281750  0.914042  0.060496  1
  Si  Si29  1  0.583415  0.785271  0.308423  1
  Si  Si30  1  0.418732  0.214524  0.811243  1
  Si  Si31  1  0.785154  0.582212  0.689660  1
  Si  Si32  1  0.212362  0.419533  0.188683  1
  Si  Si33  1  0.713293  0.081638  0.559851  1
  Si  Si34  1  0.921787  0.291452  0.941409  1
  Si  Si35  1  0.081189  0.713183  0.439279  1
