# generated using pymatgen
data_Be3Fe6Si2P
_symmetry_space_group_name_H-M   'P 1'
_cell_length_a   3.79569600
_cell_length_b   5.35260200
_cell_length_c   11.39259201
_cell_angle_alpha   90.00000000
_cell_angle_beta   89.99595051
_cell_angle_gamma   90.00000000
_symmetry_Int_Tables_number   1
_chemical_formula_structural   Be3Fe6Si2P
_chemical_formula_sum   'Be6 Fe12 Si4 P2'
_cell_volume   231.46158250
_cell_formula_units_Z   2
loop_
 _symmetry_equiv_pos_site_id
 _symmetry_equiv_pos_as_xyz
  1  'x, y, z'
loop_
 _atom_site_type_symbol
 _atom_site_label
 _atom_site_symmetry_multiplicity
 _atom_site_fract_x
 _atom_site_fract_y
 _atom_site_fract_z
 _atom_site_occupancy
  Be  Be0  1  0.000002  0.000000  0.995069  1
  Be  Be1  1  0.499643  0.500001  0.171581  1
  Be  Be2  1  0.999656  0.000000  0.336727  1
  Be  Be3  1  0.499990  0.500001  0.498121  1
  Be  Be4  1  0.000377  0.000000  0.668671  1
  Be  Be5  1  0.500322  0.500001  0.829841  1
  Fe  Fe6  1  0.499983  0.255511  0.004230  1
  Fe  Fe7  1  0.499983  0.744489  0.004230  1
  Fe  Fe8  1  0.999770  0.244511  0.162401  1
  Fe  Fe9  1  0.999770  0.755488  0.162401  1
  Fe  Fe10  1  0.499722  0.245261  0.328796  1
  Fe  Fe11  1  0.499722  0.754741  0.328796  1
  Fe  Fe12  1  0.999992  0.251968  0.500060  1
  Fe  Fe13  1  0.999992  0.748031  0.500060  1
  Fe  Fe14  1  0.500287  0.248005  0.666707  1
  Fe  Fe15  1  0.500287  0.751997  0.666707  1
  Fe  Fe16  1  0.000247  0.254748  0.837795  1
  Fe  Fe17  1  0.000247  0.745251  0.837795  1
  Si  Si18  1  0.999697  0.500001  0.330408  1
  Si  Si19  1  0.499987  0.000000  0.498278  1
  Si  Si20  1  0.000320  0.500001  0.668525  1
  Si  Si21  1  0.500265  0.000000  0.836159  1
  P  P22  1  0.999985  0.500001  0.001134  1
  P  P23  1  0.499749  0.000000  0.165505  1
