# generated using pymatgen
data_Er3Tm13In2(HgRh2)2
_symmetry_space_group_name_H-M   'P 1'
_cell_length_a   9.53170278
_cell_length_b   9.50884328
_cell_length_c   9.50990048
_cell_angle_alpha   59.82679147
_cell_angle_beta   59.92085796
_cell_angle_gamma   59.93540475
_symmetry_Int_Tables_number   1
_chemical_formula_structural   Er3Tm13In2(HgRh2)2
_chemical_formula_sum   'Er3 Tm13 In2 Hg2 Rh4'
_cell_volume   608.01741830
_cell_formula_units_Z   1
loop_
 _symmetry_equiv_pos_site_id
 _symmetry_equiv_pos_as_xyz
  1  'x, y, z'
loop_
 _atom_site_type_symbol
 _atom_site_label
 _atom_site_symmetry_multiplicity
 _atom_site_fract_x
 _atom_site_fract_y
 _atom_site_fract_z
 _atom_site_occupancy
  Er  Er0  1  0.060497  0.064813  0.438024  1
  Er  Er1  1  0.436567  0.065206  0.437741  1
  Er  Er2  1  0.060812  0.437994  0.064889  1
  Tm  Tm3  1  0.050298  0.649688  0.649768  1
  Tm  Tm4  1  0.436710  0.438117  0.064778  1
  Tm  Tm5  1  0.649140  0.053194  0.648338  1
  Tm  Tm6  1  0.189443  0.811359  0.190023  1
  Tm  Tm7  1  0.189333  0.190089  0.811598  1
  Tm  Tm8  1  0.808979  0.811564  0.190099  1
  Tm  Tm9  1  0.437387  0.062903  0.062622  1
  Tm  Tm10  1  0.811049  0.188847  0.188686  1
  Tm  Tm11  1  0.062548  0.437785  0.437482  1
  Tm  Tm12  1  0.808812  0.190218  0.811713  1
  Tm  Tm13  1  0.190840  0.809080  0.809384  1
  Tm  Tm14  1  0.649148  0.648176  0.053308  1
  Tm  Tm15  1  0.650157  0.649711  0.649869  1
  In  In16  1  0.418394  0.746407  0.416871  1
  In  In17  1  0.418310  0.416814  0.746748  1
  Hg  Hg18  1  0.413639  0.414230  0.413799  1
  Hg  Hg19  1  0.757953  0.414202  0.414211  1
  Rh  Rh20  1  0.857542  0.857103  0.427840  1
  Rh  Rh21  1  0.856827  0.857379  0.857448  1
  Rh  Rh22  1  0.428417  0.857139  0.857500  1
  Rh  Rh23  1  0.857195  0.427984  0.857261  1
