# generated using pymatgen
data_La3Pr13Cd4(CoPt)2
_symmetry_space_group_name_H-M   'P 1'
_cell_length_a   9.98322215
_cell_length_b   10.00874214
_cell_length_c   10.06183400
_cell_angle_alpha   59.82437125
_cell_angle_beta   59.73917341
_cell_angle_gamma   60.48375838
_symmetry_Int_Tables_number   1
_chemical_formula_structural   La3Pr13Cd4(CoPt)2
_chemical_formula_sum   'La3 Pr13 Cd4 Co2 Pt2'
_cell_volume   711.08820914
_cell_formula_units_Z   1
loop_
 _symmetry_equiv_pos_site_id
 _symmetry_equiv_pos_as_xyz
  1  'x, y, z'
loop_
 _atom_site_type_symbol
 _atom_site_label
 _atom_site_symmetry_multiplicity
 _atom_site_fract_x
 _atom_site_fract_y
 _atom_site_fract_z
 _atom_site_occupancy
  La  La0  1  0.341453  0.342825  0.359215  1
  La  La1  1  0.341453  0.342825  0.956509  1
  La  La2  1  0.337042  0.962098  0.350430  1
  Pr  Pr3  1  0.954655  0.342430  0.351458  1
  Pr  Pr4  1  0.820845  0.189248  0.189024  1
  Pr  Pr5  1  0.190184  0.819590  0.801631  1
  Pr  Pr6  1  0.190184  0.819590  0.188595  1
  Pr  Pr7  1  0.820845  0.189248  0.800883  1
  Pr  Pr8  1  0.188971  0.187852  0.811589  1
  Pr  Pr9  1  0.808148  0.807941  0.191956  1
  Pr  Pr10  1  0.936799  0.562331  0.564103  1
  Pr  Pr11  1  0.562152  0.936362  0.937044  1
  Pr  Pr12  1  0.562152  0.936362  0.564442  1
  Pr  Pr13  1  0.936799  0.562331  0.936766  1
  Pr  Pr14  1  0.560237  0.560085  0.939839  1
  Pr  Pr15  1  0.934771  0.934381  0.565424  1
  Cd  Cd16  1  0.580291  0.579741  0.578513  1
  Cd  Cd17  1  0.580291  0.579741  0.261452  1
  Cd  Cd18  1  0.582073  0.258996  0.579465  1
  Cd  Cd19  1  0.258906  0.581406  0.579843  1
  Co  Co20  1  0.145845  0.142897  0.140035  1
  Co  Co21  1  0.145845  0.142897  0.571223  1
  Pt  Pt22  1  0.145600  0.573329  0.140536  1
  Pt  Pt23  1  0.574461  0.145495  0.140022  1
