# generated using pymatgen
data_AlAsCl14
_symmetry_space_group_name_H-M   'P 1'
_cell_length_a   10.50148701
_cell_length_b   10.87687265
_cell_length_c   11.24959205
_cell_angle_alpha   82.32520646
_cell_angle_beta   90.00349661
_cell_angle_gamma   89.99534958
_symmetry_Int_Tables_number   1
_chemical_formula_structural   AlAsCl14
_chemical_formula_sum   'Al2 As2 Cl28'
_cell_volume   1273.45527315
_cell_formula_units_Z   2
loop_
 _symmetry_equiv_pos_site_id
 _symmetry_equiv_pos_as_xyz
  1  'x, y, z'
loop_
 _atom_site_type_symbol
 _atom_site_label
 _atom_site_symmetry_multiplicity
 _atom_site_fract_x
 _atom_site_fract_y
 _atom_site_fract_z
 _atom_site_occupancy
  Al  Al0  1  0.246321  0.331818  0.080940  1
  Al  Al1  1  0.746306  0.668182  0.419038  1
  As  As2  1  0.754871  0.677209  0.912935  1
  As  As3  1  0.254877  0.322789  0.587079  1
  Cl  Cl4  1  0.232442  0.761705  0.362417  1
  Cl  Cl5  1  0.732466  0.238298  0.137551  1
  Cl  Cl6  1  0.747760  0.249828  0.638235  1
  Cl  Cl7  1  0.247727  0.750178  0.861786  1
  Cl  Cl8  1  0.570695  0.051462  0.034952  1
  Cl  Cl9  1  0.070700  0.948551  0.465037  1
  Cl  Cl10  1  0.442788  0.940310  0.965536  1
  Cl  Cl11  1  0.942788  0.059696  0.534472  1
  Cl  Cl12  1  0.811554  0.169880  0.294679  1
  Cl  Cl13  1  0.311570  0.830115  0.205320  1
  Cl  Cl14  1  0.184999  0.829457  0.700022  1
  Cl  Cl15  1  0.684998  0.170550  0.799973  1
  Cl  Cl16  1  0.332471  0.217051  0.227316  1
  Cl  Cl17  1  0.832469  0.782943  0.272687  1
  Cl  Cl18  1  0.668816  0.730295  0.739112  1
  Cl  Cl19  1  0.168819  0.269698  0.760889  1
  Cl  Cl20  1  0.382258  0.407904  0.948833  1
  Cl  Cl21  1  0.882252  0.592086  0.551173  1
  Cl  Cl22  1  0.633217  0.628370  0.062133  1
  Cl  Cl23  1  0.133224  0.371614  0.437859  1
  Cl  Cl24  1  0.873400  0.520746  0.904250  1
  Cl  Cl25  1  0.373402  0.479241  0.595753  1
  Cl  Cl26  1  0.130176  0.474809  0.140003  1
  Cl  Cl27  1  0.630148  0.525201  0.360007  1
  Cl  Cl28  1  0.112491  0.211278  0.994400  1
  Cl  Cl29  1  0.612512  0.788741  0.505600  1
  Cl  Cl30  1  0.875735  0.824037  0.949842  1
  Cl  Cl31  1  0.375749  0.175956  0.550168  1
