# generated using pymatgen
data_LiTb4Al17Pt6
_symmetry_space_group_name_H-M   'P 1'
_cell_length_a   7.60067415
_cell_length_b   7.60067427
_cell_length_c   9.46730900
_cell_angle_alpha   90.00000000
_cell_angle_beta   90.00000000
_cell_angle_gamma   119.46904054
_symmetry_Int_Tables_number   1
_chemical_formula_structural   LiTb4Al17Pt6
_chemical_formula_sum   'Li1 Tb4 Al17 Pt6'
_cell_volume   476.16804716
_cell_formula_units_Z   1
loop_
 _symmetry_equiv_pos_site_id
 _symmetry_equiv_pos_as_xyz
  1  'x, y, z'
loop_
 _atom_site_type_symbol
 _atom_site_label
 _atom_site_symmetry_multiplicity
 _atom_site_fract_x
 _atom_site_fract_y
 _atom_site_fract_z
 _atom_site_occupancy
  Li  Li0  1  0.129684  0.129684  0.250000  1
  Tb  Tb1  1  0.994973  0.665929  0.250000  1
  Tb  Tb2  1  0.007377  0.330168  0.750000  1
  Tb  Tb3  1  0.665929  0.994973  0.250000  1
  Tb  Tb4  1  0.330168  0.007377  0.750000  1
  Al  Al5  1  0.867523  0.867523  0.750000  1
  Al  Al6  1  0.001569  0.328124  0.080486  1
  Al  Al7  1  0.000582  0.665387  0.923792  1
  Al  Al8  1  0.000582  0.665387  0.576208  1
  Al  Al9  1  0.328124  0.001569  0.419514  1
  Al  Al10  1  0.001569  0.328124  0.419514  1
  Al  Al11  1  0.665387  0.000582  0.576208  1
  Al  Al12  1  0.665387  0.000582  0.923792  1
  Al  Al13  1  0.328124  0.001569  0.080486  1
  Al  Al14  1  0.334134  0.334134  0.548543  1
  Al  Al15  1  0.670766  0.670766  0.439847  1
  Al  Al16  1  0.670766  0.670766  0.060153  1
  Al  Al17  1  0.334134  0.334134  0.951457  1
  Al  Al18  1  0.340422  0.541823  0.250000  1
  Al  Al19  1  0.659350  0.452705  0.750000  1
  Al  Al20  1  0.541823  0.340422  0.250000  1
  Al  Al21  1  0.452705  0.659350  0.750000  1
  Pt  Pt22  1  0.674831  0.329634  0.000157  1
  Pt  Pt23  1  0.329634  0.674831  0.000157  1
  Pt  Pt24  1  0.329634  0.674831  0.499843  1
  Pt  Pt25  1  0.674831  0.329634  0.499843  1
  Pt  Pt26  1  0.999994  0.999994  0.993851  1
  Pt  Pt27  1  0.999994  0.999994  0.506149  1
