# generated using pymatgen
data_EuLu(AgSn)2
_symmetry_space_group_name_H-M   'P 1'
_cell_length_a   4.78961000
_cell_length_b   4.78961106
_cell_length_c   7.56882200
_cell_angle_alpha   90.00000000
_cell_angle_beta   90.00000000
_cell_angle_gamma   120.00002033
_symmetry_Int_Tables_number   1
_chemical_formula_structural   EuLu(AgSn)2
_chemical_formula_sum   'Eu1 Lu1 Ag2 Sn2'
_cell_volume   150.36931945
_cell_formula_units_Z   1
loop_
 _symmetry_equiv_pos_site_id
 _symmetry_equiv_pos_as_xyz
  1  'x, y, z'
loop_
 _atom_site_type_symbol
 _atom_site_label
 _atom_site_symmetry_multiplicity
 _atom_site_fract_x
 _atom_site_fract_y
 _atom_site_fract_z
 _atom_site_occupancy
  Eu  Eu0  1  0.000000  0.000000  0.494190  1
  Lu  Lu1  1  0.000000  0.000000  0.995395  1
  Ag  Ag2  1  0.666667  0.333333  0.171493  1
  Ag  Ag3  1  0.333333  0.666667  0.722486  1
  Sn  Sn4  1  0.333333  0.666667  0.261029  1
  Sn  Sn5  1  0.666667  0.333333  0.783406  1
