# generated using pymatgen
data_Pr4Nd2Si2GeSe14
_symmetry_space_group_name_H-M   'P 1'
_cell_length_a   10.74105105
_cell_length_b   10.75057275
_cell_length_c   6.06397041
_cell_angle_alpha   89.95930645
_cell_angle_beta   90.01058163
_cell_angle_gamma   119.97097335
_symmetry_Int_Tables_number   1
_chemical_formula_structural   Pr4Nd2Si2GeSe14
_chemical_formula_sum   'Pr4 Nd2 Si2 Ge1 Se14'
_cell_volume   606.58675583
_cell_formula_units_Z   1
loop_
 _symmetry_equiv_pos_site_id
 _symmetry_equiv_pos_as_xyz
  1  'x, y, z'
loop_
 _atom_site_type_symbol
 _atom_site_label
 _atom_site_symmetry_multiplicity
 _atom_site_fract_x
 _atom_site_fract_y
 _atom_site_fract_z
 _atom_site_occupancy
  Pr  Pr0  1  0.895745  0.691435  0.245944  1
  Pr  Pr1  1  0.308337  0.204606  0.245846  1
  Pr  Pr2  1  0.796018  0.104170  0.246023  1
  Pr  Pr3  1  0.437651  0.974677  0.749649  1
  Nd  Nd4  1  0.025179  0.462827  0.749133  1
  Nd  Nd5  1  0.537241  0.562367  0.749203  1
  Si  Si6  1  0.999755  0.000175  0.833264  1
  Si  Si7  1  0.333229  0.666386  0.337988  1
  Ge  Ge8  1  0.666997  0.333799  0.481865  1
  Se  Se9  1  0.000047  0.999994  0.459316  1
  Se  Se10  1  0.332895  0.665437  0.963294  1
  Se  Se11  1  0.773664  0.854329  0.979836  1
  Se  Se12  1  0.145198  0.919531  0.980404  1
  Se  Se13  1  0.080443  0.226145  0.979794  1
  Se  Se14  1  0.559180  0.810637  0.485872  1
  Se  Se15  1  0.187625  0.746406  0.485979  1
  Se  Se16  1  0.252609  0.441259  0.487603  1
  Se  Se17  1  0.828301  0.587920  0.724511  1
  Se  Se18  1  0.411940  0.241715  0.724690  1
  Se  Se19  1  0.761218  0.172602  0.724260  1
  Se  Se20  1  0.500755  0.076178  0.234788  1
  Se  Se21  1  0.924172  0.424602  0.233408  1
  Se  Se22  1  0.575134  0.499470  0.233385  1
