# generated using pymatgen
data_Pa3Fe8CoP6
_symmetry_space_group_name_H-M   'P 1'
_cell_length_a   3.72598000
_cell_length_b   10.55772800
_cell_length_c   12.13833800
_cell_angle_alpha   90.00000000
_cell_angle_beta   90.00000000
_cell_angle_gamma   90.00000000
_symmetry_Int_Tables_number   1
_chemical_formula_structural   Pa3Fe8CoP6
_chemical_formula_sum   'Pa6 Fe16 Co2 P12'
_cell_volume   477.49652459
_cell_formula_units_Z   2
loop_
 _symmetry_equiv_pos_site_id
 _symmetry_equiv_pos_as_xyz
  1  'x, y, z'
loop_
 _atom_site_type_symbol
 _atom_site_label
 _atom_site_symmetry_multiplicity
 _atom_site_fract_x
 _atom_site_fract_y
 _atom_site_fract_z
 _atom_site_occupancy
  Pa  Pa0  1  0.750000  0.250000  0.475967  1
  Pa  Pa1  1  0.250000  0.750000  0.524033  1
  Pa  Pa2  1  0.250000  0.934222  0.794787  1
  Pa  Pa3  1  0.250000  0.565778  0.794787  1
  Pa  Pa4  1  0.750000  0.065778  0.205213  1
  Pa  Pa5  1  0.750000  0.434222  0.205213  1
  Fe  Fe6  1  0.250000  0.250000  0.848427  1
  Fe  Fe7  1  0.750000  0.750000  0.151573  1
  Fe  Fe8  1  0.750000  0.250000  0.015635  1
  Fe  Fe9  1  0.250000  0.750000  0.984365  1
  Fe  Fe10  1  0.250000  0.416459  0.007642  1
  Fe  Fe11  1  0.250000  0.083541  0.007642  1
  Fe  Fe12  1  0.750000  0.583541  0.992358  1
  Fe  Fe13  1  0.750000  0.916459  0.992358  1
  Fe  Fe14  1  0.250000  0.447372  0.571603  1
  Fe  Fe15  1  0.250000  0.052628  0.571603  1
  Fe  Fe16  1  0.750000  0.552628  0.428397  1
  Fe  Fe17  1  0.750000  0.947372  0.428397  1
  Fe  Fe18  1  0.250000  0.870533  0.283643  1
  Fe  Fe19  1  0.250000  0.629467  0.283643  1
  Fe  Fe20  1  0.750000  0.129467  0.716357  1
  Fe  Fe21  1  0.750000  0.370533  0.716357  1
  Co  Co22  1  0.250000  0.250000  0.299610  1
  Co  Co23  1  0.750000  0.750000  0.700390  1
  P  P24  1  0.250000  0.250000  0.115036  1
  P  P25  1  0.750000  0.750000  0.884964  1
  P  P26  1  0.250000  0.250000  0.661965  1
  P  P27  1  0.750000  0.750000  0.338035  1
  P  P28  1  0.250000  0.446287  0.387308  1
  P  P29  1  0.250000  0.053713  0.387308  1
  P  P30  1  0.750000  0.553713  0.612692  1
  P  P31  1  0.750000  0.946287  0.612692  1
  P  P32  1  0.250000  0.901731  0.101542  1
  P  P33  1  0.250000  0.598269  0.101542  1
  P  P34  1  0.750000  0.098269  0.898458  1
  P  P35  1  0.750000  0.401731  0.898458  1
