# generated using pymatgen
data_Lu3Mg3RuAu2
_symmetry_space_group_name_H-M   'P 1'
_cell_length_a   7.53811000
_cell_length_b   7.53811021
_cell_length_c   3.92890100
_cell_angle_alpha   90.00000000
_cell_angle_beta   90.00000000
_cell_angle_gamma   119.99999907
_symmetry_Int_Tables_number   1
_chemical_formula_structural   Lu3Mg3RuAu2
_chemical_formula_sum   'Lu3 Mg3 Ru1 Au2'
_cell_volume   193.34220834
_cell_formula_units_Z   1
loop_
 _symmetry_equiv_pos_site_id
 _symmetry_equiv_pos_as_xyz
  1  'x, y, z'
loop_
 _atom_site_type_symbol
 _atom_site_label
 _atom_site_symmetry_multiplicity
 _atom_site_fract_x
 _atom_site_fract_y
 _atom_site_fract_z
 _atom_site_occupancy
  Lu  Lu0  1  0.572596  0.967958  0.000000  1
  Lu  Lu1  1  0.032042  0.604638  0.000000  1
  Lu  Lu2  1  0.395362  0.427404  0.000000  1
  Mg  Mg3  1  0.256198  0.999901  0.500000  1
  Mg  Mg4  1  0.000099  0.256297  0.500000  1
  Mg  Mg5  1  0.743703  0.743802  0.500000  1
  Ru  Ru6  1  0.333333  0.666667  0.500000  1
  Au  Au7  1  0.666667  0.333333  0.500000  1
  Au  Au8  1  0.000000  0.000000  0.000000  1
