# generated using pymatgen
data_Ca3YSc6(Si5Ir2)4
_symmetry_space_group_name_H-M   'P 1'
_cell_length_a   12.53249563
_cell_length_b   12.53249479
_cell_length_c   4.16294900
_cell_angle_alpha   90.00000000
_cell_angle_beta   90.00000000
_cell_angle_gamma   90.03233625
_symmetry_Int_Tables_number   1
_chemical_formula_structural   Ca3YSc6(Si5Ir2)4
_chemical_formula_sum   'Ca3 Y1 Sc6 Si20 Ir8'
_cell_volume   653.84697062
_cell_formula_units_Z   1
loop_
 _symmetry_equiv_pos_site_id
 _symmetry_equiv_pos_as_xyz
  1  'x, y, z'
loop_
 _atom_site_type_symbol
 _atom_site_label
 _atom_site_symmetry_multiplicity
 _atom_site_fract_x
 _atom_site_fract_y
 _atom_site_fract_z
 _atom_site_occupancy
  Ca  Ca0  1  0.115939  0.615676  0.500000  1
  Ca  Ca1  1  0.884324  0.384061  0.500000  1
  Ca  Ca2  1  0.614863  0.885137  0.500000  1
  Y  Y3  1  0.384032  0.115968  0.500000  1
  Sc  Sc4  1  0.673513  0.172565  0.500000  1
  Sc  Sc5  1  0.327435  0.826487  0.500000  1
  Sc  Sc6  1  0.174030  0.325970  0.500000  1
  Sc  Sc7  1  0.827211  0.672789  0.500000  1
  Sc  Sc8  1  0.000266  0.999912  0.000000  1
  Sc  Sc9  1  0.500088  0.499734  0.000000  1
  Si  Si10  1  0.567962  0.068174  0.000000  1
  Si  Si11  1  0.431826  0.932038  0.000000  1
  Si  Si12  1  0.068722  0.431278  0.000000  1
  Si  Si13  1  0.931531  0.568469  0.000000  1
  Si  Si14  1  0.200604  0.165208  0.000000  1
  Si  Si15  1  0.799111  0.835132  0.000000  1
  Si  Si16  1  0.165438  0.800284  0.000000  1
  Si  Si17  1  0.699716  0.334562  0.000000  1
  Si  Si18  1  0.834669  0.200742  0.000000  1
  Si  Si19  1  0.299258  0.665331  0.000000  1
  Si  Si20  1  0.664868  0.700889  0.000000  1
  Si  Si21  1  0.334792  0.299396  0.000000  1
  Si  Si22  1  0.008197  0.149300  0.500000  1
  Si  Si23  1  0.991892  0.850438  0.500000  1
  Si  Si24  1  0.150727  0.991149  0.500000  1
  Si  Si25  1  0.508851  0.349273  0.500000  1
  Si  Si26  1  0.849924  0.009830  0.500000  1
  Si  Si27  1  0.490170  0.650076  0.500000  1
  Si  Si28  1  0.649562  0.508108  0.500000  1
  Si  Si29  1  0.350700  0.491803  0.500000  1
  Ir  Ir30  1  0.022372  0.242286  0.000000  1
  Ir  Ir31  1  0.977769  0.757678  0.000000  1
  Ir  Ir32  1  0.244089  0.979694  0.000000  1
  Ir  Ir33  1  0.520306  0.255911  0.000000  1
  Ir  Ir34  1  0.757053  0.021850  0.000000  1
  Ir  Ir35  1  0.478150  0.742947  0.000000  1
  Ir  Ir36  1  0.742322  0.522231  0.000000  1
  Ir  Ir37  1  0.257714  0.477628  0.000000  1
