# generated using pymatgen
data_CeNdLu6(CdRu)2
_symmetry_space_group_name_H-M   'P 1'
_cell_length_a   9.62871422
_cell_length_b   9.50820528
_cell_length_c   9.51674061
_cell_angle_alpha   59.54338579
_cell_angle_beta   59.26138267
_cell_angle_gamma   59.57302737
_symmetry_Int_Tables_number   1
_chemical_formula_structural   CeNdLu6(CdRu)2
_chemical_formula_sum   'Ce2 Nd2 Lu12 Cd4 Ru4'
_cell_volume   608.49476087
_cell_formula_units_Z   2
loop_
 _symmetry_equiv_pos_site_id
 _symmetry_equiv_pos_as_xyz
  1  'x, y, z'
loop_
 _atom_site_type_symbol
 _atom_site_label
 _atom_site_symmetry_multiplicity
 _atom_site_fract_x
 _atom_site_fract_y
 _atom_site_fract_z
 _atom_site_occupancy
  Ce  Ce0  1  0.968987  0.341240  0.341819  1
  Ce  Ce1  1  0.348495  0.340771  0.341330  1
  Nd  Nd2  1  0.561789  0.563758  0.935918  1
  Nd  Nd3  1  0.939245  0.563194  0.936707  1
  Lu  Lu4  1  0.557008  0.945555  0.939243  1
  Lu  Lu5  1  0.936951  0.939743  0.559872  1
  Lu  Lu6  1  0.563289  0.939766  0.560391  1
  Lu  Lu7  1  0.940670  0.561028  0.556435  1
  Lu  Lu8  1  0.190773  0.184883  0.812570  1
  Lu  Lu9  1  0.810518  0.185446  0.812983  1
  Lu  Lu10  1  0.187076  0.814263  0.812103  1
  Lu  Lu11  1  0.808716  0.814251  0.188421  1
  Lu  Lu12  1  0.187077  0.814630  0.188606  1
  Lu  Lu13  1  0.813346  0.182345  0.190169  1
  Lu  Lu14  1  0.348097  0.348777  0.954768  1
  Lu  Lu15  1  0.349120  0.951016  0.352021  1
  Cd  Cd16  1  0.579582  0.580917  0.259788  1
  Cd  Cd17  1  0.582335  0.254298  0.580812  1
  Cd  Cd18  1  0.259950  0.580445  0.578402  1
  Cd  Cd19  1  0.581169  0.580742  0.577612  1
  Ru  Ru20  1  0.138282  0.150988  0.574297  1
  Ru  Ru21  1  0.136203  0.575664  0.152335  1
  Ru  Ru22  1  0.574434  0.143409  0.146722  1
  Ru  Ru23  1  0.136883  0.142872  0.146673  1
