# generated using pymatgen
data_Tm8TlAgIr2
_symmetry_space_group_name_H-M   'P 1'
_cell_length_a   9.47406523
_cell_length_b   9.47406446
_cell_length_c   9.50551800
_cell_angle_alpha   59.89012262
_cell_angle_beta   59.89012532
_cell_angle_gamma   59.79216449
_symmetry_Int_Tables_number   1
_chemical_formula_structural   Tm8TlAgIr2
_chemical_formula_sum   'Tm16 Tl2 Ag2 Ir4'
_cell_volume   601.34776079
_cell_formula_units_Z   2
loop_
 _symmetry_equiv_pos_site_id
 _symmetry_equiv_pos_as_xyz
  1  'x, y, z'
loop_
 _atom_site_type_symbol
 _atom_site_label
 _atom_site_symmetry_multiplicity
 _atom_site_fract_x
 _atom_site_fract_y
 _atom_site_fract_z
 _atom_site_occupancy
  Tm  Tm0  1  0.600643  0.600643  0.600873  1
  Tm  Tm1  1  0.600643  0.600643  0.197841  1
  Tm  Tm2  1  0.601442  0.199220  0.599669  1
  Tm  Tm3  1  0.199220  0.601442  0.599669  1
  Tm  Tm4  1  0.059589  0.439335  0.441276  1
  Tm  Tm5  1  0.439335  0.059589  0.059800  1
  Tm  Tm6  1  0.439335  0.059589  0.441276  1
  Tm  Tm7  1  0.059589  0.439335  0.059800  1
  Tm  Tm8  1  0.440814  0.440814  0.059186  1
  Tm  Tm9  1  0.060156  0.060156  0.439844  1
  Tm  Tm10  1  0.184255  0.809812  0.813269  1
  Tm  Tm11  1  0.809812  0.184255  0.192662  1
  Tm  Tm12  1  0.809812  0.184255  0.813269  1
  Tm  Tm13  1  0.184255  0.809812  0.192662  1
  Tm  Tm14  1  0.809560  0.809560  0.190440  1
  Tm  Tm15  1  0.186878  0.186878  0.813122  1
  Tl  Tl16  1  0.837518  0.499748  0.831368  1
  Tl  Tl17  1  0.499748  0.837518  0.831368  1
  Ag  Ag18  1  0.836433  0.836433  0.830882  1
  Ag  Ag19  1  0.836433  0.836433  0.496251  1
  Ir  Ir20  1  0.393056  0.393056  0.389813  1
  Ir  Ir21  1  0.393056  0.393056  0.824075  1
  Ir  Ir22  1  0.393986  0.824432  0.390790  1
  Ir  Ir23  1  0.824432  0.393986  0.390790  1
