# generated using pymatgen
data_DyY3Ga18(RuPt2)2
_symmetry_space_group_name_H-M   'P 1'
_cell_length_a   7.63848713
_cell_length_b   7.63861474
_cell_length_c   9.50685402
_cell_angle_alpha   89.99986813
_cell_angle_beta   90.00691697
_cell_angle_gamma   119.77765289
_symmetry_Int_Tables_number   1
_chemical_formula_structural   DyY3Ga18(RuPt2)2
_chemical_formula_sum   'Dy1 Y3 Ga18 Ru2 Pt4'
_cell_volume   481.45766029
_cell_formula_units_Z   1
loop_
 _symmetry_equiv_pos_site_id
 _symmetry_equiv_pos_as_xyz
  1  'x, y, z'
loop_
 _atom_site_type_symbol
 _atom_site_label
 _atom_site_symmetry_multiplicity
 _atom_site_fract_x
 _atom_site_fract_y
 _atom_site_fract_z
 _atom_site_occupancy
  Dy  Dy0  1  0.997760  0.673522  0.249705  1
  Y  Y1  1  0.326427  0.002233  0.750300  1
  Y  Y2  1  0.673516  0.997737  0.250262  1
  Y  Y3  1  0.002320  0.326512  0.749704  1
  Ga  Ga4  1  0.864167  0.864135  0.750024  1
  Ga  Ga5  1  0.135822  0.135778  0.250010  1
  Ga  Ga6  1  0.662015  0.667753  0.432330  1
  Ga  Ga7  1  0.338072  0.332243  0.932392  1
  Ga  Ga8  1  0.667838  0.661960  0.067667  1
  Ga  Ga9  1  0.332273  0.338088  0.567607  1
  Ga  Ga10  1  0.450107  0.660950  0.746726  1
  Ga  Ga11  1  0.549997  0.339144  0.246754  1
  Ga  Ga12  1  0.660937  0.450101  0.753235  1
  Ga  Ga13  1  0.338958  0.549878  0.253269  1
  Ga  Ga14  1  0.994093  0.335727  0.081964  1
  Ga  Ga15  1  0.005873  0.664347  0.581834  1
  Ga  Ga16  1  0.335606  0.994020  0.418060  1
  Ga  Ga17  1  0.664351  0.005922  0.918093  1
  Ga  Ga18  1  0.994604  0.658177  0.918632  1
  Ga  Ga19  1  0.005403  0.341944  0.418503  1
  Ga  Ga20  1  0.658107  0.994559  0.581463  1
  Ga  Ga21  1  0.341805  0.005333  0.081495  1
  Ru  Ru22  1  0.328312  0.671635  0.499951  1
  Ru  Ru23  1  0.671654  0.328415  0.999998  1
  Pt  Pt24  1  0.000304  0.999654  0.499985  1
  Pt  Pt25  1  0.999687  0.000259  0.000030  1
  Pt  Pt26  1  0.671594  0.328445  0.499991  1
  Pt  Pt27  1  0.328399  0.671526  0.000018  1
