# generated using pymatgen
data_Dy2Ho5Er3(In2Ni)4
_symmetry_space_group_name_H-M   'P 1'
_cell_length_a   3.57800400
_cell_length_b   7.99750107
_cell_length_c   17.89798915
_cell_angle_alpha   90.00008448
_cell_angle_beta   90.00000000
_cell_angle_gamma   90.00000000
_symmetry_Int_Tables_number   1
_chemical_formula_structural   Dy2Ho5Er3(In2Ni)4
_chemical_formula_sum   'Dy2 Ho5 Er3 In8 Ni4'
_cell_volume   512.15258478
_cell_formula_units_Z   1
loop_
 _symmetry_equiv_pos_site_id
 _symmetry_equiv_pos_as_xyz
  1  'x, y, z'
loop_
 _atom_site_type_symbol
 _atom_site_label
 _atom_site_symmetry_multiplicity
 _atom_site_fract_x
 _atom_site_fract_y
 _atom_site_fract_z
 _atom_site_occupancy
  Dy  Dy0  1  0.000000  0.499752  0.499867  1
  Dy  Dy1  1  0.000000  0.999605  0.000242  1
  Ho  Ho2  1  0.000000  0.752647  0.279066  1
  Ho  Ho3  1  0.000000  0.247357  0.721024  1
  Ho  Ho4  1  0.000000  0.747801  0.778290  1
  Ho  Ho5  1  0.000000  0.252267  0.221850  1
  Ho  Ho6  1  0.000000  0.621088  0.089175  1
  Er  Er7  1  0.000000  0.378640  0.910760  1
  Er  Er8  1  0.000000  0.878596  0.588909  1
  Er  Er9  1  0.000000  0.121327  0.410702  1
  In  In10  1  0.500000  0.699539  0.931166  1
  In  In11  1  0.500000  0.298965  0.068706  1
  In  In12  1  0.500000  0.800278  0.432186  1
  In  In13  1  0.500000  0.199773  0.568081  1
  In  In14  1  0.500000  0.566067  0.651902  1
  In  In15  1  0.500000  0.434002  0.348400  1
  In  In16  1  0.500000  0.933766  0.152500  1
  In  In17  1  0.500000  0.066373  0.847768  1
  Ni  Ni18  1  0.500000  0.525081  0.196097  1
  Ni  Ni19  1  0.500000  0.476809  0.803927  1
  Ni  Ni20  1  0.500000  0.976234  0.695324  1
  Ni  Ni21  1  0.500000  0.024028  0.304054  1
