# generated using pymatgen
data_Tb2ErRh9
_symmetry_space_group_name_H-M   'P 1'
_cell_length_a   5.26371600
_cell_length_b   5.26371620
_cell_length_c   17.56514900
_cell_angle_alpha   90.00000000
_cell_angle_beta   90.00000000
_cell_angle_gamma   119.99999877
_symmetry_Int_Tables_number   1
_chemical_formula_structural   Tb2ErRh9
_chemical_formula_sum   'Tb4 Er2 Rh18'
_cell_volume   421.47070116
_cell_formula_units_Z   2
loop_
 _symmetry_equiv_pos_site_id
 _symmetry_equiv_pos_as_xyz
  1  'x, y, z'
loop_
 _atom_site_type_symbol
 _atom_site_label
 _atom_site_symmetry_multiplicity
 _atom_site_fract_x
 _atom_site_fract_y
 _atom_site_fract_z
 _atom_site_occupancy
  Tb  Tb0  1  0.333333  0.666666  0.041669  1
  Tb  Tb1  1  0.333333  0.666666  0.250000  1
  Tb  Tb2  1  0.333333  0.666666  0.458331  1
  Tb  Tb3  1  0.666667  0.333334  0.750000  1
  Er  Er4  1  0.666667  0.333334  0.542005  1
  Er  Er5  1  0.666667  0.333334  0.957995  1
  Rh  Rh6  1  0.000000  0.000000  0.999522  1
  Rh  Rh7  1  0.334397  0.167199  0.125327  1
  Rh  Rh8  1  0.832800  0.167199  0.125327  1
  Rh  Rh9  1  0.832801  0.665603  0.125327  1
  Rh  Rh10  1  0.000000  0.000000  0.250000  1
  Rh  Rh11  1  0.666667  0.333334  0.250000  1
  Rh  Rh12  1  0.334397  0.167199  0.374674  1
  Rh  Rh13  1  0.832800  0.167199  0.374674  1
  Rh  Rh14  1  0.832801  0.665603  0.374674  1
  Rh  Rh15  1  0.000000  0.000000  0.500478  1
  Rh  Rh16  1  0.167237  0.334472  0.625666  1
  Rh  Rh17  1  0.167238  0.832763  0.625666  1
  Rh  Rh18  1  0.665528  0.832763  0.625666  1
  Rh  Rh19  1  0.000000  0.000000  0.750000  1
  Rh  Rh20  1  0.333333  0.666666  0.750000  1
  Rh  Rh21  1  0.167237  0.334472  0.874334  1
  Rh  Rh22  1  0.167238  0.832763  0.874334  1
  Rh  Rh23  1  0.665528  0.832763  0.874334  1
