# generated using pymatgen
data_Ca4TbSn3F
_symmetry_space_group_name_H-M   'P 1'
_cell_length_a   9.46646467
_cell_length_b   9.46646363
_cell_length_c   9.46411844
_cell_angle_alpha   129.24109767
_cell_angle_beta   129.24110315
_cell_angle_gamma   74.64157659
_symmetry_Int_Tables_number   1
_chemical_formula_structural   Ca4TbSn3F
_chemical_formula_sum   'Ca8 Tb2 Sn6 F2'
_cell_volume   495.61923259
_cell_formula_units_Z   2
loop_
 _symmetry_equiv_pos_site_id
 _symmetry_equiv_pos_as_xyz
  1  'x, y, z'
loop_
 _atom_site_type_symbol
 _atom_site_label
 _atom_site_symmetry_multiplicity
 _atom_site_fract_x
 _atom_site_fract_y
 _atom_site_fract_z
 _atom_site_occupancy
  Ca  Ca0  1  0.500731  0.500731  0.000000  1
  Ca  Ca1  1  0.000731  0.000731  0.000000  1
  Ca  Ca2  1  0.007608  0.188082  0.500000  1
  Ca  Ca3  1  0.688082  0.507608  0.500000  1
  Ca  Ca4  1  0.489332  0.989332  0.180329  1
  Ca  Ca5  1  0.809003  0.309003  0.819671  1
  Ca  Ca6  1  0.988578  0.811026  0.500000  1
  Ca  Ca7  1  0.311026  0.488578  0.500000  1
  Tb  Tb8  1  0.518853  0.018853  0.829525  1
  Tb  Tb9  1  0.189329  0.689329  0.170475  1
  Sn  Sn10  1  0.254301  0.254301  0.000000  1
  Sn  Sn11  1  0.754301  0.754301  0.000000  1
  Sn  Sn12  1  0.868954  0.368954  0.240535  1
  Sn  Sn13  1  0.128421  0.628421  0.759465  1
  Sn  Sn14  1  0.366130  0.122876  0.500000  1
  Sn  Sn15  1  0.622876  0.866130  0.500000  1
  F  F16  1  0.254730  0.754730  0.500000  1
  F  F17  1  0.747014  0.247014  0.500000  1
