# generated using pymatgen
data_Ca4Ni5As7Ir3
_symmetry_space_group_name_H-M   'P 1'
_cell_length_a   4.00556300
_cell_length_b   13.01732761
_cell_length_c   13.20481125
_cell_angle_alpha   81.70094006
_cell_angle_beta   90.00000000
_cell_angle_gamma   90.00000000
_symmetry_Int_Tables_number   1
_chemical_formula_structural   Ca4Ni5As7Ir3
_chemical_formula_sum   'Ca8 Ni10 As14 Ir6'
_cell_volume   681.31155790
_cell_formula_units_Z   2
loop_
 _symmetry_equiv_pos_site_id
 _symmetry_equiv_pos_as_xyz
  1  'x, y, z'
loop_
 _atom_site_type_symbol
 _atom_site_label
 _atom_site_symmetry_multiplicity
 _atom_site_fract_x
 _atom_site_fract_y
 _atom_site_fract_z
 _atom_site_occupancy
  Ca  Ca0  1  0.250000  0.103202  0.798153  1
  Ca  Ca1  1  0.750000  0.896798  0.201847  1
  Ca  Ca2  1  0.250000  0.283939  0.106578  1
  Ca  Ca3  1  0.750000  0.716061  0.893422  1
  Ca  Ca4  1  0.250000  0.517928  0.297625  1
  Ca  Ca5  1  0.750000  0.482072  0.702375  1
  Ca  Ca6  1  0.250000  0.215695  0.437196  1
  Ca  Ca7  1  0.750000  0.784305  0.562804  1
  Ni  Ni8  1  0.250000  0.054708  0.278833  1
  Ni  Ni9  1  0.750000  0.945292  0.721167  1
  Ni  Ni10  1  0.250000  0.421506  0.532169  1
  Ni  Ni11  1  0.750000  0.578494  0.467831  1
  Ni  Ni12  1  0.250000  0.914265  0.998373  1
  Ni  Ni13  1  0.750000  0.085735  0.001627  1
  Ni  Ni14  1  0.250000  0.722683  0.397102  1
  Ni  Ni15  1  0.750000  0.277317  0.602898  1
  Ni  Ni16  1  0.250000  0.342841  0.861093  1
  Ni  Ni17  1  0.750000  0.657159  0.138907  1
  As  As18  1  0.250000  0.052829  0.097423  1
  As  As19  1  0.750000  0.947171  0.902577  1
  As  As20  1  0.250000  0.311424  0.688160  1
  As  As21  1  0.750000  0.688576  0.311840  1
  As  As22  1  0.250000  0.603715  0.556551  1
  As  As23  1  0.750000  0.396285  0.443449  1
  As  As24  1  0.250000  0.847722  0.722532  1
  As  As25  1  0.750000  0.152278  0.277468  1
  As  As26  1  0.750000  0.255553  0.917634  1
  As  As27  1  0.250000  0.744447  0.082366  1
  As  As28  1  0.750000  0.097252  0.590830  1
  As  As29  1  0.250000  0.902748  0.409170  1
  As  As30  1  0.750000  0.475041  0.131964  1
  As  As31  1  0.250000  0.524959  0.868036  1
  Ir  Ir32  1  0.250000  0.986942  0.575568  1
  Ir  Ir33  1  0.750000  0.013058  0.424432  1
  Ir  Ir34  1  0.250000  0.664550  0.726955  1
  Ir  Ir35  1  0.750000  0.335450  0.273045  1
  Ir  Ir36  1  0.250000  0.560381  0.047232  1
  Ir  Ir37  1  0.750000  0.439619  0.952768  1
