# generated using pymatgen
data_Hf6InBiC4
_symmetry_space_group_name_H-M   'P 1'
_cell_length_a   3.35678400
_cell_length_b   3.35678381
_cell_length_c   19.95720900
_cell_angle_alpha   90.00000000
_cell_angle_beta   90.00000000
_cell_angle_gamma   120.00000187
_symmetry_Int_Tables_number   1
_chemical_formula_structural   Hf6InBiC4
_chemical_formula_sum   'Hf6 In1 Bi1 C4'
_cell_volume   194.74987938
_cell_formula_units_Z   1
loop_
 _symmetry_equiv_pos_site_id
 _symmetry_equiv_pos_as_xyz
  1  'x, y, z'
loop_
 _atom_site_type_symbol
 _atom_site_label
 _atom_site_symmetry_multiplicity
 _atom_site_fract_x
 _atom_site_fract_y
 _atom_site_fract_z
 _atom_site_occupancy
  Hf  Hf0  1  0.000000  0.000000  0.000878  1
  Hf  Hf1  1  0.333333  0.666666  0.126391  1
  Hf  Hf2  1  0.333333  0.666666  0.373609  1
  Hf  Hf3  1  0.000000  0.000000  0.499122  1
  Hf  Hf4  1  0.666665  0.333333  0.625198  1
  Hf  Hf5  1  0.666665  0.333333  0.874802  1
  In  In6  1  0.000000  0.000000  0.750000  1
  Bi  Bi7  1  0.000000  0.000000  0.250000  1
  C  C8  1  0.666665  0.333333  0.069413  1
  C  C9  1  0.666665  0.333333  0.430587  1
  C  C10  1  0.333333  0.666666  0.568697  1
  C  C11  1  0.333333  0.666666  0.931303  1
