# generated using pymatgen
data_AlPb4W3O13
_symmetry_space_group_name_H-M   'P 1'
_cell_length_a   7.37399189
_cell_length_b   7.37394109
_cell_length_c   7.37326467
_cell_angle_alpha   61.56982837
_cell_angle_beta   61.58453662
_cell_angle_gamma   61.57390093
_symmetry_Int_Tables_number   1
_chemical_formula_structural   AlPb4W3O13
_chemical_formula_sum   'Al1 Pb4 W3 O13'
_cell_volume   293.52061789
_cell_formula_units_Z   1
loop_
 _symmetry_equiv_pos_site_id
 _symmetry_equiv_pos_as_xyz
  1  'x, y, z'
loop_
 _atom_site_type_symbol
 _atom_site_label
 _atom_site_symmetry_multiplicity
 _atom_site_fract_x
 _atom_site_fract_y
 _atom_site_fract_z
 _atom_site_occupancy
  Al  Al0  1  0.499871  0.499684  0.499789  1
  Pb  Pb1  1  0.996372  0.997003  0.996840  1
  Pb  Pb2  1  0.503199  0.998292  0.998183  1
  Pb  Pb3  1  0.998565  0.997906  0.503265  1
  Pb  Pb4  1  0.997510  0.503602  0.998313  1
  W  W5  1  0.000955  0.499548  0.499536  1
  W  W6  1  0.499503  0.499580  0.000848  1
  W  W7  1  0.499614  0.000852  0.499629  1
  O  O8  1  0.809982  0.437749  0.437708  1
  O  O9  1  0.424353  0.827284  0.827311  1
  O  O10  1  0.438066  0.437702  0.809795  1
  O  O11  1  0.827285  0.827250  0.424464  1
  O  O12  1  0.827323  0.424453  0.827291  1
  O  O13  1  0.437685  0.809990  0.437709  1
  O  O14  1  0.192013  0.560174  0.560145  1
  O  O15  1  0.572648  0.175900  0.175982  1
  O  O16  1  0.560344  0.559962  0.191948  1
  O  O17  1  0.176036  0.175919  0.572494  1
  O  O18  1  0.175985  0.572487  0.175917  1
  O  O19  1  0.560221  0.191798  0.560332  1
  O  O20  1  0.127468  0.127866  0.127502  1
