# generated using pymatgen
data_PrSmNpO6
_symmetry_space_group_name_H-M   'P 1'
_cell_length_a   5.71687900
_cell_length_b   8.04420278
_cell_length_c   12.09537829
_cell_angle_alpha   74.58253356
_cell_angle_beta   90.00000000
_cell_angle_gamma   90.00000000
_symmetry_Int_Tables_number   1
_chemical_formula_structural   PrSmNpO6
_chemical_formula_sum   'Pr4 Sm4 Np4 O24'
_cell_volume   536.22244627
_cell_formula_units_Z   4
loop_
 _symmetry_equiv_pos_site_id
 _symmetry_equiv_pos_as_xyz
  1  'x, y, z'
loop_
 _atom_site_type_symbol
 _atom_site_label
 _atom_site_symmetry_multiplicity
 _atom_site_fract_x
 _atom_site_fract_y
 _atom_site_fract_z
 _atom_site_occupancy
  Pr  Pr0  1  0.744487  0.000000  0.750000  1
  Pr  Pr1  1  0.255513  0.000000  0.250000  1
  Pr  Pr2  1  0.693026  0.500000  0.750000  1
  Pr  Pr3  1  0.306974  0.500000  0.250000  1
  Sm  Sm4  1  0.186424  0.792548  0.579049  1
  Sm  Sm5  1  0.813576  0.792548  0.079049  1
  Sm  Sm6  1  0.186424  0.207452  0.920951  1
  Sm  Sm7  1  0.813576  0.207452  0.420951  1
  Np  Np8  1  0.253664  0.722757  0.886485  1
  Np  Np9  1  0.746336  0.722757  0.386485  1
  Np  Np10  1  0.253664  0.277243  0.613515  1
  Np  Np11  1  0.746336  0.277243  0.113515  1
  O  O12  1  0.051461  0.940821  0.898207  1
  O  O13  1  0.544964  0.842473  0.934024  1
  O  O14  1  0.948539  0.940821  0.398207  1
  O  O15  1  0.443330  0.795775  0.729600  1
  O  O16  1  0.455036  0.842473  0.434024  1
  O  O17  1  0.971615  0.714301  0.768623  1
  O  O18  1  0.556670  0.795775  0.229600  1
  O  O19  1  0.870813  0.631442  0.550537  1
  O  O20  1  0.376761  0.487720  0.885396  1
  O  O21  1  0.028385  0.714301  0.268623  1
  O  O22  1  0.376761  0.512280  0.614604  1
  O  O23  1  0.870813  0.368558  0.949463  1
  O  O24  1  0.129187  0.631442  0.050537  1
  O  O25  1  0.623239  0.487720  0.385396  1
  O  O26  1  0.971615  0.285699  0.731377  1
  O  O27  1  0.623239  0.512280  0.114604  1
  O  O28  1  0.129187  0.368558  0.449463  1
  O  O29  1  0.443330  0.204225  0.770400  1
  O  O30  1  0.028385  0.285699  0.231377  1
  O  O31  1  0.544964  0.157527  0.565976  1
  O  O32  1  0.556670  0.204225  0.270400  1
  O  O33  1  0.051461  0.059179  0.601793  1
  O  O34  1  0.455036  0.157527  0.065976  1
  O  O35  1  0.948539  0.059179  0.101793  1
