# generated using pymatgen
data_Sc6CuSn6Rh5
_symmetry_space_group_name_H-M   'P 1'
_cell_length_a   7.55259500
_cell_length_b   7.55259427
_cell_length_c   6.94715800
_cell_angle_alpha   90.00000000
_cell_angle_beta   90.00000000
_cell_angle_gamma   120.00000759
_symmetry_Int_Tables_number   1
_chemical_formula_structural   Sc6CuSn6Rh5
_chemical_formula_sum   'Sc6 Cu1 Sn6 Rh5'
_cell_volume   343.18644504
_cell_formula_units_Z   1
loop_
 _symmetry_equiv_pos_site_id
 _symmetry_equiv_pos_as_xyz
  1  'x, y, z'
loop_
 _atom_site_type_symbol
 _atom_site_label
 _atom_site_symmetry_multiplicity
 _atom_site_fract_x
 _atom_site_fract_y
 _atom_site_fract_z
 _atom_site_occupancy
  Sc  Sc0  1  0.388802  0.992541  0.245359  1
  Sc  Sc1  1  0.603739  0.611198  0.245359  1
  Sc  Sc2  1  0.007459  0.396261  0.245359  1
  Sc  Sc3  1  0.388500  0.991693  0.754661  1
  Sc  Sc4  1  0.603194  0.611500  0.754661  1
  Sc  Sc5  1  0.008307  0.396806  0.754661  1
  Cu  Cu6  1  0.666667  0.333333  0.501442  1
  Sn  Sn7  1  0.281668  0.279211  0.999994  1
  Sn  Sn8  1  0.997545  0.718332  0.999994  1
  Sn  Sn9  1  0.997301  0.726806  0.499895  1
  Sn  Sn10  1  0.729503  0.002699  0.499895  1
  Sn  Sn11  1  0.273194  0.270497  0.499895  1
  Sn  Sn12  1  0.720789  0.002455  0.999994  1
  Rh  Rh13  1  0.000000  0.000000  0.761209  1
  Rh  Rh14  1  0.000000  0.000000  0.238643  1
  Rh  Rh15  1  0.666667  0.333333  0.999108  1
  Rh  Rh16  1  0.333333  0.666667  0.498888  1
  Rh  Rh17  1  0.333333  0.666667  0.000983  1
