# generated using pymatgen
data_Dy9Y11Si15Pt
_symmetry_space_group_name_H-M   'P 1'
_cell_length_a   7.40631403
_cell_length_b   7.73287915
_cell_length_c   14.65785000
_cell_angle_alpha   90.00000000
_cell_angle_beta   90.00000000
_cell_angle_gamma   90.08745647
_symmetry_Int_Tables_number   1
_chemical_formula_structural   Dy9Y11Si15Pt
_chemical_formula_sum   'Dy9 Y11 Si15 Pt1'
_cell_volume   839.48533214
_cell_formula_units_Z   1
loop_
 _symmetry_equiv_pos_site_id
 _symmetry_equiv_pos_as_xyz
  1  'x, y, z'
loop_
 _atom_site_type_symbol
 _atom_site_label
 _atom_site_symmetry_multiplicity
 _atom_site_fract_x
 _atom_site_fract_y
 _atom_site_fract_z
 _atom_site_occupancy
  Dy  Dy0  1  0.679829  0.179096  0.622793  1
  Dy  Dy1  1  0.187031  0.323476  0.876755  1
  Dy  Dy2  1  0.317738  0.820202  0.123233  1
  Dy  Dy3  1  0.817506  0.678022  0.376523  1
  Dy  Dy4  1  0.317738  0.820202  0.376767  1
  Dy  Dy5  1  0.817506  0.678022  0.123477  1
  Dy  Dy6  1  0.679829  0.179096  0.877207  1
  Dy  Dy7  1  0.187031  0.323476  0.623245  1
  Dy  Dy8  1  0.843856  0.508638  0.750000  1
  Y  Y9  1  0.525331  0.681889  0.594106  1
  Y  Y10  1  0.026999  0.817624  0.904277  1
  Y  Y11  1  0.473202  0.316052  0.097547  1
  Y  Y12  1  0.973108  0.182981  0.402459  1
  Y  Y13  1  0.473202  0.316052  0.402453  1
  Y  Y14  1  0.973108  0.182981  0.097541  1
  Y  Y15  1  0.525331  0.681889  0.905894  1
  Y  Y16  1  0.026999  0.817624  0.595723  1
  Y  Y17  1  0.356019  0.984739  0.750000  1
  Y  Y18  1  0.148426  0.486229  0.250000  1
  Y  Y19  1  0.648719  0.012657  0.250000  1
  Si  Si20  1  0.646352  0.971702  0.458930  1
  Si  Si21  1  0.146061  0.527963  0.040309  1
  Si  Si22  1  0.351882  0.026102  0.960448  1
  Si  Si23  1  0.852326  0.472477  0.539701  1
  Si  Si24  1  0.351882  0.026102  0.539552  1
  Si  Si25  1  0.852326  0.472477  0.960299  1
  Si  Si26  1  0.646352  0.971702  0.041070  1
  Si  Si27  1  0.146061  0.527963  0.459691  1
  Si  Si28  1  0.979702  0.101967  0.750000  1
  Si  Si29  1  0.521849  0.603460  0.250000  1
  Si  Si30  1  0.021858  0.895261  0.250000  1
  Si  Si31  1  0.741669  0.875873  0.750000  1
  Si  Si32  1  0.229263  0.631171  0.750000  1
  Si  Si33  1  0.266755  0.126733  0.250000  1
  Si  Si34  1  0.766153  0.373322  0.250000  1
  Pt  Pt35  1  0.480994  0.404780  0.750000  1
