# generated using pymatgen
data_Tm8AlPd24
_symmetry_space_group_name_H-M   'P 1'
_cell_length_a   8.29686800
_cell_length_b   8.29686800
_cell_length_c   8.29686800
_cell_angle_alpha   90.00000000
_cell_angle_beta   90.00000000
_cell_angle_gamma   90.00000000
_symmetry_Int_Tables_number   1
_chemical_formula_structural   Tm8AlPd24
_chemical_formula_sum   'Tm8 Al1 Pd24'
_cell_volume   571.13995378
_cell_formula_units_Z   1
loop_
 _symmetry_equiv_pos_site_id
 _symmetry_equiv_pos_as_xyz
  1  'x, y, z'
loop_
 _atom_site_type_symbol
 _atom_site_label
 _atom_site_symmetry_multiplicity
 _atom_site_fract_x
 _atom_site_fract_y
 _atom_site_fract_z
 _atom_site_occupancy
  Tm  Tm0  1  0.251519  0.251519  0.251519  1
  Tm  Tm1  1  0.748481  0.748481  0.748481  1
  Tm  Tm2  1  0.748481  0.748481  0.251519  1
  Tm  Tm3  1  0.748481  0.251519  0.748481  1
  Tm  Tm4  1  0.251519  0.251519  0.748481  1
  Tm  Tm5  1  0.251519  0.748481  0.251519  1
  Tm  Tm6  1  0.251519  0.748481  0.748481  1
  Tm  Tm7  1  0.748481  0.251519  0.251519  1
  Al  Al8  1  0.000000  0.000000  0.000000  1
  Pd  Pd9  1  0.259759  0.500000  0.000000  1
  Pd  Pd10  1  0.740241  0.500000  0.000000  1
  Pd  Pd11  1  0.000000  0.259759  0.500000  1
  Pd  Pd12  1  0.500000  0.259759  0.000000  1
  Pd  Pd13  1  0.000000  0.740241  0.500000  1
  Pd  Pd14  1  0.500000  0.740241  0.000000  1
  Pd  Pd15  1  0.500000  0.000000  0.259759  1
  Pd  Pd16  1  0.259759  0.000000  0.500000  1
  Pd  Pd17  1  0.500000  0.000000  0.740241  1
  Pd  Pd18  1  0.740241  0.000000  0.500000  1
  Pd  Pd19  1  0.000000  0.500000  0.259759  1
  Pd  Pd20  1  0.000000  0.500000  0.740241  1
  Pd  Pd21  1  0.252602  0.500000  0.500000  1
  Pd  Pd22  1  0.747398  0.500000  0.500000  1
  Pd  Pd23  1  0.500000  0.252602  0.500000  1
  Pd  Pd24  1  0.500000  0.747398  0.500000  1
  Pd  Pd25  1  0.500000  0.500000  0.252602  1
  Pd  Pd26  1  0.500000  0.500000  0.747398  1
  Pd  Pd27  1  0.288934  0.000000  0.000000  1
  Pd  Pd28  1  0.711066  0.000000  0.000000  1
  Pd  Pd29  1  0.000000  0.288934  0.000000  1
  Pd  Pd30  1  0.000000  0.711066  0.000000  1
  Pd  Pd31  1  0.000000  0.000000  0.288934  1
  Pd  Pd32  1  0.000000  0.000000  0.711066  1
