# generated using pymatgen
data_Tb20Ir8PdAu3
_symmetry_space_group_name_H-M   'P 1'
_cell_length_a   11.15456129
_cell_length_b   11.16740163
_cell_length_c   6.34421670
_cell_angle_alpha   89.98139246
_cell_angle_beta   89.96178324
_cell_angle_gamma   90.51734718
_symmetry_Int_Tables_number   1
_chemical_formula_structural   Tb20Ir8PdAu3
_chemical_formula_sum   'Tb20 Ir8 Pd1 Au3'
_cell_volume   790.25056330
_cell_formula_units_Z   1
loop_
 _symmetry_equiv_pos_site_id
 _symmetry_equiv_pos_as_xyz
  1  'x, y, z'
loop_
 _atom_site_type_symbol
 _atom_site_label
 _atom_site_symmetry_multiplicity
 _atom_site_fract_x
 _atom_site_fract_y
 _atom_site_fract_z
 _atom_site_occupancy
  Tb  Tb0  1  0.296465  0.084819  0.359432  1
  Tb  Tb1  1  0.294177  0.904646  0.873972  1
  Tb  Tb2  1  0.700121  0.093070  0.864486  1
  Tb  Tb3  1  0.697057  0.913617  0.361870  1
  Tb  Tb4  1  0.576318  0.791698  0.868750  1
  Tb  Tb5  1  0.580238  0.211721  0.377991  1
  Tb  Tb6  1  0.403415  0.792395  0.378729  1
  Tb  Tb7  1  0.416826  0.209940  0.874704  1
  Tb  Tb8  1  0.211135  0.420563  0.623407  1
  Tb  Tb9  1  0.211399  0.591604  0.122171  1
  Tb  Tb10  1  0.792292  0.413549  0.121083  1
  Tb  Tb11  1  0.792798  0.580162  0.632930  1
  Tb  Tb12  1  0.922354  0.704640  0.142705  1
  Tb  Tb13  1  0.909120  0.299051  0.634254  1
  Tb  Tb14  1  0.096884  0.704118  0.626272  1
  Tb  Tb15  1  0.094114  0.303899  0.136047  1
  Tb  Tb16  1  0.003470  0.992854  0.499901  1
  Tb  Tb17  1  0.005967  0.996858  0.000023  1
  Tb  Tb18  1  0.497518  0.496523  0.000835  1
  Tb  Tb19  1  0.499159  0.499288  0.499171  1
  Ir  Ir20  1  0.151263  0.847767  0.249126  1
  Ir  Ir21  1  0.653456  0.347629  0.750646  1
  Ir  Ir22  1  0.345767  0.342277  0.252708  1
  Ir  Ir23  1  0.348226  0.652151  0.749016  1
  Ir  Ir24  1  0.500045  0.998384  0.113896  1
  Ir  Ir25  1  0.499501  0.999505  0.616372  1
  Ir  Ir26  1  0.999923  0.501266  0.884409  1
  Ir  Ir27  1  0.998930  0.499825  0.386174  1
  Pd  Pd28  1  0.657251  0.654545  0.247553  1
  Au  Au29  1  0.846691  0.152356  0.250879  1
  Au  Au30  1  0.840778  0.841439  0.752161  1
  Au  Au31  1  0.157343  0.157837  0.748328  1
