# generated using pymatgen
data_Tb10In8Pd3Ru
_symmetry_space_group_name_H-M   'P 1'
_cell_length_a   8.16639764
_cell_length_b   18.39943149
_cell_length_c   3.63282800
_cell_angle_alpha   90.00000000
_cell_angle_beta   90.00000000
_cell_angle_gamma   90.04577784
_symmetry_Int_Tables_number   1
_chemical_formula_structural   Tb10In8Pd3Ru
_chemical_formula_sum   'Tb10 In8 Pd3 Ru1'
_cell_volume   545.85793116
_cell_formula_units_Z   1
loop_
 _symmetry_equiv_pos_site_id
 _symmetry_equiv_pos_as_xyz
  1  'x, y, z'
loop_
 _atom_site_type_symbol
 _atom_site_label
 _atom_site_symmetry_multiplicity
 _atom_site_fract_x
 _atom_site_fract_y
 _atom_site_fract_z
 _atom_site_occupancy
  Tb  Tb0  1  0.500041  0.499258  0.000000  1
  Tb  Tb1  1  0.000630  0.000930  0.000000  1
  Tb  Tb2  1  0.732688  0.277350  0.000000  1
  Tb  Tb3  1  0.257011  0.720119  0.000000  1
  Tb  Tb4  1  0.756769  0.779507  0.000000  1
  Tb  Tb5  1  0.253687  0.220850  0.000000  1
  Tb  Tb6  1  0.616665  0.086546  0.000000  1
  Tb  Tb7  1  0.382344  0.916762  0.000000  1
  Tb  Tb8  1  0.882288  0.582832  0.000000  1
  Tb  Tb9  1  0.119078  0.415753  0.000000  1
  In  In10  1  0.709896  0.930991  0.500000  1
  In  In11  1  0.293419  0.070239  0.500000  1
  In  In12  1  0.790969  0.431555  0.500000  1
  In  In13  1  0.208866  0.568484  0.500000  1
  In  In14  1  0.576602  0.649601  0.500000  1
  In  In15  1  0.427275  0.349567  0.500000  1
  In  In16  1  0.923907  0.150104  0.500000  1
  In  In17  1  0.076255  0.850496  0.500000  1
  Pd  Pd18  1  0.475018  0.803912  0.500000  1
  Pd  Pd19  1  0.974658  0.695885  0.500000  1
  Pd  Pd20  1  0.021876  0.303814  0.500000  1
  Ru  Ru21  1  0.520059  0.195443  0.500000  1
