# generated using pymatgen
data_CsRb(POs)2
_symmetry_space_group_name_H-M   'P 1'
_cell_length_a   4.04020400
_cell_length_b   4.04020400
_cell_length_c   11.46936700
_cell_angle_alpha   90.00000000
_cell_angle_beta   90.00000000
_cell_angle_gamma   90.00000000
_symmetry_Int_Tables_number   1
_chemical_formula_structural   CsRb(POs)2
_chemical_formula_sum   'Cs1 Rb1 P2 Os2'
_cell_volume   187.21732609
_cell_formula_units_Z   1
loop_
 _symmetry_equiv_pos_site_id
 _symmetry_equiv_pos_as_xyz
  1  'x, y, z'
loop_
 _atom_site_type_symbol
 _atom_site_label
 _atom_site_symmetry_multiplicity
 _atom_site_fract_x
 _atom_site_fract_y
 _atom_site_fract_z
 _atom_site_occupancy
  Cs  Cs0  1  0.500000  0.000000  0.285909  1
  Rb  Rb1  1  0.000000  0.500000  0.723988  1
  P  P2  1  0.000000  0.500000  0.104534  1
  P  P3  1  0.500000  0.000000  0.890855  1
  Os  Os4  1  0.500000  0.500000  0.997357  1
  Os  Os5  1  0.000000  0.000000  0.997357  1
