# generated using pymatgen
data_Ho2Ni3B4Ir
_symmetry_space_group_name_H-M   'P 1'
_cell_length_a   5.00782448
_cell_length_b   4.99945778
_cell_length_c   7.06047488
_cell_angle_alpha   58.75081466
_cell_angle_beta   59.68132267
_cell_angle_gamma   63.44289422
_symmetry_Int_Tables_number   1
_chemical_formula_structural   Ho2Ni3B4Ir
_chemical_formula_sum   'Ho2 Ni3 B4 Ir1'
_cell_volume   126.27898421
_cell_formula_units_Z   1
loop_
 _symmetry_equiv_pos_site_id
 _symmetry_equiv_pos_as_xyz
  1  'x, y, z'
loop_
 _atom_site_type_symbol
 _atom_site_label
 _atom_site_symmetry_multiplicity
 _atom_site_fract_x
 _atom_site_fract_y
 _atom_site_fract_z
 _atom_site_occupancy
  Ho  Ho0  1  0.116091  0.885596  0.746396  1
  Ho  Ho1  1  0.880639  0.121336  0.247735  1
  Ni  Ni2  1  0.472949  0.268114  0.698044  1
  Ni  Ni3  1  0.534556  0.716409  0.300876  1
  Ni  Ni4  1  0.268824  0.466470  0.208549  1
  B  B5  1  0.166501  0.501664  0.515149  1
  B  B6  1  0.490187  0.845833  0.988528  1
  B  B7  1  0.845683  0.494132  0.469990  1
  B  B8  1  0.504049  0.154801  0.028350  1
  Ir  Ir9  1  0.720521  0.545645  0.796385  1
