# generated using pymatgen
data_CaSc(NbSe2)6
_symmetry_space_group_name_H-M   'P 1'
_cell_length_a   6.08286900
_cell_length_b   6.08286955
_cell_length_c   14.27353800
_cell_angle_alpha   90.00000000
_cell_angle_beta   90.00000000
_cell_angle_gamma   119.99999160
_symmetry_Int_Tables_number   1
_chemical_formula_structural   CaSc(NbSe2)6
_chemical_formula_sum   'Ca1 Sc1 Nb6 Se12'
_cell_volume   457.38221175
_cell_formula_units_Z   1
loop_
 _symmetry_equiv_pos_site_id
 _symmetry_equiv_pos_as_xyz
  1  'x, y, z'
loop_
 _atom_site_type_symbol
 _atom_site_label
 _atom_site_symmetry_multiplicity
 _atom_site_fract_x
 _atom_site_fract_y
 _atom_site_fract_z
 _atom_site_occupancy
  Ca  Ca0  1  0.333333  0.666667  0.250000  1
  Sc  Sc1  1  0.666667  0.333333  0.750000  1
  Nb  Nb2  1  0.000000  0.000000  0.511073  1
  Nb  Nb3  1  0.000000  0.000000  0.988927  1
  Nb  Nb4  1  0.333333  0.666667  0.990075  1
  Nb  Nb5  1  0.666667  0.333333  0.987986  1
  Nb  Nb6  1  0.666667  0.333333  0.512014  1
  Nb  Nb7  1  0.333333  0.666667  0.509925  1
  Se  Se8  1  0.333854  0.327910  0.393944  1
  Se  Se9  1  0.672090  0.005943  0.393944  1
  Se  Se10  1  0.994057  0.666146  0.393944  1
  Se  Se11  1  0.328497  0.334528  0.628413  1
  Se  Se12  1  0.006030  0.671503  0.628413  1
  Se  Se13  1  0.665472  0.993970  0.628413  1
  Se  Se14  1  0.665472  0.671503  0.871587  1
  Se  Se15  1  0.328497  0.993970  0.871587  1
  Se  Se16  1  0.006030  0.334528  0.871587  1
  Se  Se17  1  0.672090  0.666146  0.106056  1
  Se  Se18  1  0.994057  0.327910  0.106056  1
  Se  Se19  1  0.333854  0.005943  0.106056  1
