# generated using pymatgen
data_NaCaIrO4
_symmetry_space_group_name_H-M   'P 1'
_cell_length_a   9.57378039
_cell_length_b   9.57378042
_cell_length_c   3.22053700
_cell_angle_alpha   90.00000000
_cell_angle_beta   90.00000000
_cell_angle_gamma   119.45269231
_symmetry_Int_Tables_number   1
_chemical_formula_structural   NaCaIrO4
_chemical_formula_sum   'Na3 Ca3 Ir3 O12'
_cell_volume   257.03642694
_cell_formula_units_Z   3
loop_
 _symmetry_equiv_pos_site_id
 _symmetry_equiv_pos_as_xyz
  1  'x, y, z'
loop_
 _atom_site_type_symbol
 _atom_site_label
 _atom_site_symmetry_multiplicity
 _atom_site_fract_x
 _atom_site_fract_y
 _atom_site_fract_z
 _atom_site_occupancy
  Na  Na0  1  0.987470  0.987470  0.000000  1
  Na  Na1  1  0.692785  0.997104  0.500000  1
  Na  Na2  1  0.997104  0.692785  0.500000  1
  Ca  Ca3  1  0.672570  0.335305  0.500000  1
  Ca  Ca4  1  0.335305  0.672570  0.500000  1
  Ca  Ca5  1  0.304030  0.304030  0.500000  1
  Ir  Ir6  1  0.670750  0.670750  0.000000  1
  Ir  Ir7  1  0.326340  0.001281  0.000000  1
  Ir  Ir8  1  0.001281  0.326340  0.000000  1
  O  O9  1  0.548521  0.780832  0.000000  1
  O  O10  1  0.215611  0.772298  0.000000  1
  O  O11  1  0.238881  0.444842  0.000000  1
  O  O12  1  0.780832  0.548521  0.000000  1
  O  O13  1  0.772298  0.215611  0.000000  1
  O  O14  1  0.444842  0.238881  0.000000  1
  O  O15  1  0.541728  0.541728  0.500000  1
  O  O16  1  0.456416  0.004885  0.500000  1
  O  O17  1  0.004885  0.456416  0.500000  1
  O  O18  1  0.804026  0.804026  0.500000  1
  O  O19  1  0.194495  0.009929  0.500000  1
  O  O20  1  0.009929  0.194495  0.500000  1
