# generated using pymatgen
data_Tm2LuAl3Zn2Pt
_symmetry_space_group_name_H-M   'P 1'
_cell_length_a   6.93014028
_cell_length_b   6.92709538
_cell_length_c   4.22235200
_cell_angle_alpha   90.00000000
_cell_angle_beta   90.00000000
_cell_angle_gamma   119.98546093
_symmetry_Int_Tables_number   1
_chemical_formula_structural   Tm2LuAl3Zn2Pt
_chemical_formula_sum   'Tm2 Lu1 Al3 Zn2 Pt1'
_cell_volume   175.56658799
_cell_formula_units_Z   1
loop_
 _symmetry_equiv_pos_site_id
 _symmetry_equiv_pos_as_xyz
  1  'x, y, z'
loop_
 _atom_site_type_symbol
 _atom_site_label
 _atom_site_symmetry_multiplicity
 _atom_site_fract_x
 _atom_site_fract_y
 _atom_site_fract_z
 _atom_site_occupancy
  Tm  Tm0  1  0.417900  0.418481  0.500000  1
  Tm  Tm1  1  0.582100  0.000580  0.500000  1
  Lu  Lu2  1  0.000000  0.582948  0.500000  1
  Al  Al3  1  0.763798  0.764113  0.000000  1
  Al  Al4  1  0.236202  0.000314  0.000000  1
  Al  Al5  1  0.000000  0.235898  0.000000  1
  Zn  Zn6  1  0.667951  0.334178  0.000000  1
  Zn  Zn7  1  0.332049  0.666229  0.000000  1
  Pt  Pt8  1  0.000000  0.997258  0.500000  1
