# generated using pymatgen
data_Cs2MoCl5O
_symmetry_space_group_name_H-M   'P 1'
_cell_length_a   7.48205000
_cell_length_b   10.68473700
_cell_length_c   14.90869700
_cell_angle_alpha   90.00000000
_cell_angle_beta   90.00000000
_cell_angle_gamma   90.00000000
_symmetry_Int_Tables_number   1
_chemical_formula_structural   Cs2MoCl5O
_chemical_formula_sum   'Cs8 Mo4 Cl20 O4'
_cell_volume   1191.85694409
_cell_formula_units_Z   4
loop_
 _symmetry_equiv_pos_site_id
 _symmetry_equiv_pos_as_xyz
  1  'x, y, z'
loop_
 _atom_site_type_symbol
 _atom_site_label
 _atom_site_symmetry_multiplicity
 _atom_site_fract_x
 _atom_site_fract_y
 _atom_site_fract_z
 _atom_site_occupancy
  Cs  Cs0  1  0.699216  0.999155  0.140072  1
  Cs  Cs1  1  0.800784  0.500845  0.640072  1
  Cs  Cs2  1  0.300784  0.499155  0.859928  1
  Cs  Cs3  1  0.199216  0.000845  0.359928  1
  Cs  Cs4  1  0.300784  0.000845  0.859928  1
  Cs  Cs5  1  0.199216  0.499155  0.359928  1
  Cs  Cs6  1  0.699216  0.500845  0.140072  1
  Cs  Cs7  1  0.800784  0.999155  0.640072  1
  Mo  Mo8  1  0.690644  0.750000  0.398112  1
  Mo  Mo9  1  0.809356  0.750000  0.898112  1
  Mo  Mo10  1  0.309356  0.250000  0.601888  1
  Mo  Mo11  1  0.190644  0.250000  0.101888  1
  Cl  Cl12  1  0.954232  0.750000  0.494872  1
  Cl  Cl13  1  0.545768  0.750000  0.994872  1
  Cl  Cl14  1  0.045768  0.250000  0.505128  1
  Cl  Cl15  1  0.454232  0.250000  0.005128  1
  Cl  Cl16  1  0.921324  0.750000  0.268114  1
  Cl  Cl17  1  0.578676  0.750000  0.768114  1
  Cl  Cl18  1  0.078676  0.250000  0.731886  1
  Cl  Cl19  1  0.421324  0.250000  0.231886  1
  Cl  Cl20  1  0.472657  0.750000  0.275561  1
  Cl  Cl21  1  0.027343  0.750000  0.775561  1
  Cl  Cl22  1  0.527343  0.250000  0.724439  1
  Cl  Cl23  1  0.972657  0.250000  0.224439  1
  Cl  Cl24  1  0.708469  0.977985  0.388791  1
  Cl  Cl25  1  0.791531  0.522015  0.888792  1
  Cl  Cl26  1  0.291531  0.477985  0.611208  1
  Cl  Cl27  1  0.208469  0.022015  0.111209  1
  Cl  Cl28  1  0.291531  0.022015  0.611208  1
  Cl  Cl29  1  0.208469  0.477985  0.111209  1
  Cl  Cl30  1  0.708469  0.522015  0.388791  1
  Cl  Cl31  1  0.791531  0.977985  0.888792  1
  O  O32  1  0.535380  0.750000  0.482480  1
  O  O33  1  0.964620  0.750000  0.982480  1
  O  O34  1  0.464620  0.250000  0.517520  1
  O  O35  1  0.035380  0.250000  0.017520  1
