# generated using pymatgen
data_Nd3Si2IrPd
_symmetry_space_group_name_H-M   'P 1'
_cell_length_a   5.78090654
_cell_length_b   5.78090714
_cell_length_c   13.76462100
_cell_angle_alpha   90.00000000
_cell_angle_beta   90.00000000
_cell_angle_gamma   137.82735973
_symmetry_Int_Tables_number   1
_chemical_formula_structural   Nd3Si2IrPd
_chemical_formula_sum   'Nd6 Si4 Ir2 Pd2'
_cell_volume   308.82755174
_cell_formula_units_Z   2
loop_
 _symmetry_equiv_pos_site_id
 _symmetry_equiv_pos_as_xyz
  1  'x, y, z'
loop_
 _atom_site_type_symbol
 _atom_site_label
 _atom_site_symmetry_multiplicity
 _atom_site_fract_x
 _atom_site_fract_y
 _atom_site_fract_z
 _atom_site_occupancy
  Nd  Nd0  1  0.774667  0.225333  0.599694  1
  Nd  Nd1  1  0.516676  0.483324  0.250000  1
  Nd  Nd2  1  0.225333  0.774667  0.400306  1
  Nd  Nd3  1  0.774667  0.225333  0.900306  1
  Nd  Nd4  1  0.483324  0.516676  0.750000  1
  Nd  Nd5  1  0.225333  0.774667  0.099694  1
  Si  Si6  1  0.059398  0.940602  0.585915  1
  Si  Si7  1  0.059398  0.940602  0.914085  1
  Si  Si8  1  0.940602  0.059398  0.414085  1
  Si  Si9  1  0.940602  0.059398  0.085915  1
  Ir  Ir10  1  0.500000  0.500000  0.000000  1
  Ir  Ir11  1  0.500000  0.500000  0.500000  1
  Pd  Pd12  1  0.814359  0.185641  0.250000  1
  Pd  Pd13  1  0.185641  0.814359  0.750000  1
