# generated using pymatgen
data_Yb8Sm2PdRu3
_symmetry_space_group_name_H-M   'P 1'
_cell_length_a   8.54394949
_cell_length_b   8.57704662
_cell_length_c   7.46627307
_cell_angle_alpha   83.10667230
_cell_angle_beta   82.96846167
_cell_angle_gamma   44.17992193
_symmetry_Int_Tables_number   1
_chemical_formula_structural   Yb8Sm2PdRu3
_chemical_formula_sum   'Yb8 Sm2 Pd1 Ru3'
_cell_volume   378.03209863
_cell_formula_units_Z   1
loop_
 _symmetry_equiv_pos_site_id
 _symmetry_equiv_pos_as_xyz
  1  'x, y, z'
loop_
 _atom_site_type_symbol
 _atom_site_label
 _atom_site_symmetry_multiplicity
 _atom_site_fract_x
 _atom_site_fract_y
 _atom_site_fract_z
 _atom_site_occupancy
  Yb  Yb0  1  0.024251  0.805773  0.923736  1
  Yb  Yb1  1  0.203890  0.978525  0.580587  1
  Yb  Yb2  1  0.981007  0.196305  0.084185  1
  Yb  Yb3  1  0.791929  0.037652  0.416079  1
  Yb  Yb4  1  0.367869  0.193780  0.826419  1
  Yb  Yb5  1  0.791575  0.638353  0.677900  1
  Yb  Yb6  1  0.638489  0.795620  0.179400  1
  Yb  Yb7  1  0.200525  0.360669  0.314970  1
  Sm  Sm8  1  0.575737  0.428251  0.755771  1
  Sm  Sm9  1  0.436335  0.568744  0.239698  1
  Pd  Pd10  1  0.173240  0.599420  0.578940  1
  Ru  Ru11  1  0.399133  0.815554  0.918932  1
  Ru  Ru12  1  0.816848  0.395389  0.426274  1
  Ru  Ru13  1  0.599172  0.185963  0.077108  1
