# generated using pymatgen
data_Tb2ThP4Pd7
_symmetry_space_group_name_H-M   'P 1'
_cell_length_a   8.02264610
_cell_length_b   8.02264703
_cell_length_c   9.54124381
_cell_angle_alpha   55.46501979
_cell_angle_beta   55.46501619
_cell_angle_gamma   29.09766935
_symmetry_Int_Tables_number   1
_chemical_formula_structural   Tb2ThP4Pd7
_chemical_formula_sum   'Tb2 Th1 P4 Pd7'
_cell_volume   242.05621986
_cell_formula_units_Z   1
loop_
 _symmetry_equiv_pos_site_id
 _symmetry_equiv_pos_as_xyz
  1  'x, y, z'
loop_
 _atom_site_type_symbol
 _atom_site_label
 _atom_site_symmetry_multiplicity
 _atom_site_fract_x
 _atom_site_fract_y
 _atom_site_fract_z
 _atom_site_occupancy
  Tb  Tb0  1  0.679245  0.679245  0.324271  1
  Tb  Tb1  1  0.320755  0.320755  0.675729  1
  Th  Th2  1  0.000000  0.000000  0.000000  1
  P  P3  1  0.339618  0.339618  0.253856  1
  P  P4  1  0.660382  0.660382  0.746144  1
  P  P5  1  0.893118  0.893118  0.818837  1
  P  P6  1  0.106882  0.106882  0.181163  1
  Pd  Pd7  1  0.305927  0.305927  0.028066  1
  Pd  Pd8  1  0.694073  0.694073  0.971934  1
  Pd  Pd9  1  0.509484  0.509484  0.714106  1
  Pd  Pd10  1  0.832458  0.832458  0.423716  1
  Pd  Pd11  1  0.490516  0.490516  0.285894  1
  Pd  Pd12  1  0.167542  0.167542  0.576284  1
  Pd  Pd13  1  0.000000  0.000000  0.500000  1
