# generated using pymatgen
data_Dy3Lu3ScCo17P12
_symmetry_space_group_name_H-M   'P 1'
_cell_length_a   3.68134500
_cell_length_b   10.52805423
_cell_length_c   12.19341126
_cell_angle_alpha   90.02385514
_cell_angle_beta   90.00000000
_cell_angle_gamma   90.00000000
_symmetry_Int_Tables_number   1
_chemical_formula_structural   Dy3Lu3ScCo17P12
_chemical_formula_sum   'Dy3 Lu3 Sc1 Co17 P12'
_cell_volume   472.58487424
_cell_formula_units_Z   1
loop_
 _symmetry_equiv_pos_site_id
 _symmetry_equiv_pos_as_xyz
  1  'x, y, z'
loop_
 _atom_site_type_symbol
 _atom_site_label
 _atom_site_symmetry_multiplicity
 _atom_site_fract_x
 _atom_site_fract_y
 _atom_site_fract_z
 _atom_site_occupancy
  Dy  Dy0  1  0.000000  0.500099  0.528564  1
  Dy  Dy1  1  0.500000  0.999712  0.477269  1
  Dy  Dy2  1  0.500000  0.178111  0.207317  1
  Lu  Lu3  1  0.500000  0.821631  0.207363  1
  Lu  Lu4  1  0.000000  0.681997  0.795565  1
  Lu  Lu5  1  0.000000  0.318099  0.796019  1
  Sc  Sc6  1  0.500000  0.500508  0.152626  1
  Co  Co7  1  0.000000  0.999849  0.836739  1
  Co  Co8  1  0.500000  0.500253  0.704721  1
  Co  Co9  1  0.000000  0.998255  0.295093  1
  Co  Co10  1  0.000000  0.500715  0.983538  1
  Co  Co11  1  0.500000  0.999226  0.012863  1
  Co  Co12  1  0.500000  0.327295  0.988371  1
  Co  Co13  1  0.500000  0.673464  0.989049  1
  Co  Co14  1  0.000000  0.162223  0.000836  1
  Co  Co15  1  0.000000  0.837008  0.001046  1
  Co  Co16  1  0.500000  0.294799  0.435028  1
  Co  Co17  1  0.500000  0.705330  0.434192  1
  Co  Co18  1  0.000000  0.202018  0.571895  1
  Co  Co19  1  0.000000  0.797829  0.571294  1
  Co  Co20  1  0.500000  0.879401  0.708379  1
  Co  Co21  1  0.500000  0.120508  0.708686  1
  Co  Co22  1  0.000000  0.624060  0.294917  1
  Co  Co23  1  0.000000  0.377676  0.296364  1
  P  P24  1  0.500000  0.500408  0.882079  1
  P  P25  1  0.000000  0.998575  0.116043  1
  P  P26  1  0.500000  0.499827  0.358357  1
  P  P27  1  0.000000  0.999947  0.654565  1
  P  P28  1  0.500000  0.310036  0.619949  1
  P  P29  1  0.500000  0.690233  0.619387  1
  P  P30  1  0.000000  0.188500  0.386468  1
  P  P31  1  0.000000  0.811323  0.384989  1
  P  P32  1  0.500000  0.850494  0.887590  1
  P  P33  1  0.500000  0.149202  0.888093  1
  P  P34  1  0.000000  0.664438  0.103236  1
  P  P35  1  0.000000  0.336953  0.101510  1
