# generated using pymatgen
data_Lu6PuFe22
_symmetry_space_group_name_H-M   'P 1'
_cell_length_a   8.44664204
_cell_length_b   8.44651737
_cell_length_c   8.44664204
_cell_angle_alpha   119.99528126
_cell_angle_beta   89.99956542
_cell_angle_gamma   119.99527350
_symmetry_Int_Tables_number   1
_chemical_formula_structural   Lu6PuFe22
_chemical_formula_sum   'Lu6 Pu1 Fe22'
_cell_volume   426.18140496
_cell_formula_units_Z   1
loop_
 _symmetry_equiv_pos_site_id
 _symmetry_equiv_pos_as_xyz
  1  'x, y, z'
loop_
 _atom_site_type_symbol
 _atom_site_label
 _atom_site_symmetry_multiplicity
 _atom_site_fract_x
 _atom_site_fract_y
 _atom_site_fract_z
 _atom_site_occupancy
  Lu  Lu0  1  0.706167  0.999836  0.293540  1
  Lu  Lu1  1  0.293622  0.999833  0.293622  1
  Lu  Lu2  1  0.293666  0.587462  0.293666  1
  Lu  Lu3  1  0.706257  0.999837  0.706257  1
  Lu  Lu4  1  0.293540  0.999836  0.706167  1
  Lu  Lu5  1  0.706311  0.412747  0.706311  1
  Pu  Pu6  1  0.999945  0.999839  0.999945  1
  Fe  Fe7  1  0.499957  0.999863  0.000016  1
  Fe  Fe8  1  0.000152  0.500201  0.000152  1
  Fe  Fe9  1  0.499984  0.500136  0.999997  1
  Fe  Fe10  1  0.674343  0.348664  0.022986  1
  Fe  Fe11  1  0.369813  0.246512  0.123233  1
  Fe  Fe12  1  0.876760  0.246544  0.123281  1
  Fe  Fe13  1  0.876762  0.753475  0.123274  1
  Fe  Fe14  1  0.674388  0.348645  0.325682  1
  Fe  Fe15  1  0.674403  0.651462  0.325696  1
  Fe  Fe16  1  0.977000  0.651385  0.325715  1
  Fe  Fe17  1  0.123233  0.246512  0.369813  1
  Fe  Fe18  1  0.000016  0.999863  0.499957  1
  Fe  Fe19  1  0.999997  0.500136  0.499984  1
  Fe  Fe20  1  0.500093  0.500072  0.500093  1
  Fe  Fe21  1  0.876780  0.753477  0.630171  1
  Fe  Fe22  1  0.022986  0.348664  0.674343  1
  Fe  Fe23  1  0.325682  0.348645  0.674388  1
  Fe  Fe24  1  0.325696  0.651462  0.674403  1
  Fe  Fe25  1  0.123281  0.246544  0.876760  1
  Fe  Fe26  1  0.123274  0.753475  0.876762  1
  Fe  Fe27  1  0.630171  0.753477  0.876780  1
  Fe  Fe28  1  0.325715  0.651385  0.977000  1
