# generated using pymatgen
data_Er3P4Rh7
_symmetry_space_group_name_H-M   'P 1'
_cell_length_a   7.72293916
_cell_length_b   7.72293958
_cell_length_c   9.14989084
_cell_angle_alpha   56.85196909
_cell_angle_beta   56.85196854
_cell_angle_gamma   29.45998085
_symmetry_Int_Tables_number   1
_chemical_formula_structural   Er3P4Rh7
_chemical_formula_sum   'Er3 P4 Rh7'
_cell_volume   221.38395541
_cell_formula_units_Z   1
loop_
 _symmetry_equiv_pos_site_id
 _symmetry_equiv_pos_as_xyz
  1  'x, y, z'
loop_
 _atom_site_type_symbol
 _atom_site_label
 _atom_site_symmetry_multiplicity
 _atom_site_fract_x
 _atom_site_fract_y
 _atom_site_fract_z
 _atom_site_occupancy
  Er  Er0  1  0.500000  0.500000  0.500000  1
  Er  Er1  1  0.828602  0.828602  0.168772  1
  Er  Er2  1  0.171398  0.171398  0.831228  1
  P  P3  1  0.391239  0.391239  0.324906  1
  P  P4  1  0.608761  0.608761  0.675094  1
  P  P5  1  0.832901  0.832901  0.773641  1
  P  P6  1  0.167099  0.167099  0.226359  1
  Rh  Rh7  1  0.668595  0.668595  0.078292  1
  Rh  Rh8  1  0.007349  0.007349  0.229521  1
  Rh  Rh9  1  0.992651  0.992651  0.770479  1
  Rh  Rh10  1  0.500000  0.500000  0.000000  1
  Rh  Rh11  1  0.197500  0.197500  0.454256  1
  Rh  Rh12  1  0.802500  0.802500  0.545744  1
  Rh  Rh13  1  0.331405  0.331405  0.921708  1
