# generated using pymatgen
data_Ti24Si2(AsSe)3
_symmetry_space_group_name_H-M   'P 1'
_cell_length_a   10.13477817
_cell_length_b   10.18082372
_cell_length_c   5.09095363
_cell_angle_alpha   89.84226574
_cell_angle_beta   90.04349900
_cell_angle_gamma   90.09270291
_symmetry_Int_Tables_number   1
_chemical_formula_structural   Ti24Si2(AsSe)3
_chemical_formula_sum   'Ti24 Si2 As3 Se3'
_cell_volume   525.28375389
_cell_formula_units_Z   1
loop_
 _symmetry_equiv_pos_site_id
 _symmetry_equiv_pos_as_xyz
  1  'x, y, z'
loop_
 _atom_site_type_symbol
 _atom_site_label
 _atom_site_symmetry_multiplicity
 _atom_site_fract_x
 _atom_site_fract_y
 _atom_site_fract_z
 _atom_site_occupancy
  Ti  Ti0  1  0.216386  0.683034  0.992641  1
  Ti  Ti1  1  0.784078  0.317948  0.992796  1
  Ti  Ti2  1  0.184159  0.284745  0.496953  1
  Ti  Ti3  1  0.815792  0.715113  0.494693  1
  Ti  Ti4  1  0.287133  0.816981  0.507382  1
  Ti  Ti5  1  0.712934  0.182396  0.508639  1
  Ti  Ti6  1  0.317678  0.215516  0.001686  1
  Ti  Ti7  1  0.682299  0.784665  0.003309  1
  Ti  Ti8  1  0.639060  0.527286  0.715692  1
  Ti  Ti9  1  0.360870  0.473692  0.715517  1
  Ti  Ti10  1  0.027611  0.858706  0.211819  1
  Ti  Ti11  1  0.972113  0.142332  0.214191  1
  Ti  Ti12  1  0.858489  0.972174  0.787861  1
  Ti  Ti13  1  0.141862  0.026477  0.786238  1
  Ti  Ti14  1  0.472279  0.643554  0.285477  1
  Ti  Ti15  1  0.527578  0.356490  0.284474  1
  Ti  Ti16  1  0.104193  0.581540  0.466368  1
  Ti  Ti17  1  0.896221  0.418305  0.467748  1
  Ti  Ti18  1  0.080779  0.397206  0.960673  1
  Ti  Ti19  1  0.918444  0.603258  0.963247  1
  Ti  Ti20  1  0.396432  0.916510  0.030371  1
  Ti  Ti21  1  0.603929  0.083280  0.029399  1
  Ti  Ti22  1  0.419672  0.105010  0.542566  1
  Ti  Ti23  1  0.580519  0.894390  0.541936  1
  Si  Si24  1  0.459383  0.705477  0.788266  1
  Si  Si25  1  0.540500  0.294861  0.787771  1
  As  As26  1  0.959717  0.206107  0.711428  1
  As  As27  1  0.792634  0.959884  0.288886  1
  As  As28  1  0.207453  0.040653  0.288220  1
  Se  Se29  1  0.706763  0.540198  0.212114  1
  Se  Se30  1  0.293047  0.459619  0.211282  1
  Se  Se31  1  0.039996  0.792592  0.710359  1
