# generated using pymatgen
data_Pr16MgCd3(CoIr)2
_symmetry_space_group_name_H-M   'P 1'
_cell_length_a   9.99219262
_cell_length_b   9.99194332
_cell_length_c   9.92883103
_cell_angle_alpha   60.22065307
_cell_angle_beta   60.22059279
_cell_angle_gamma   60.34075516
_symmetry_Int_Tables_number   1
_chemical_formula_structural   Pr16MgCd3(CoIr)2
_chemical_formula_sum   'Pr16 Mg1 Cd3 Co2 Ir2'
_cell_volume   705.09478839
_cell_formula_units_Z   1
loop_
 _symmetry_equiv_pos_site_id
 _symmetry_equiv_pos_as_xyz
  1  'x, y, z'
loop_
 _atom_site_type_symbol
 _atom_site_label
 _atom_site_symmetry_multiplicity
 _atom_site_fract_x
 _atom_site_fract_y
 _atom_site_fract_z
 _atom_site_occupancy
  Pr  Pr0  1  0.344327  0.344325  0.353258  1
  Pr  Pr1  1  0.344609  0.344604  0.958383  1
  Pr  Pr2  1  0.340680  0.960387  0.350474  1
  Pr  Pr3  1  0.960381  0.340684  0.350484  1
  Pr  Pr4  1  0.814690  0.192172  0.188534  1
  Pr  Pr5  1  0.189569  0.815618  0.805494  1
  Pr  Pr6  1  0.192179  0.814683  0.188531  1
  Pr  Pr7  1  0.815620  0.189572  0.805487  1
  Pr  Pr8  1  0.190485  0.190484  0.809216  1
  Pr  Pr9  1  0.810764  0.810770  0.187731  1
  Pr  Pr10  1  0.939456  0.564117  0.558640  1
  Pr  Pr11  1  0.561146  0.939539  0.940178  1
  Pr  Pr12  1  0.564118  0.939457  0.558638  1
  Pr  Pr13  1  0.939542  0.561140  0.940190  1
  Pr  Pr14  1  0.560176  0.560167  0.940691  1
  Pr  Pr15  1  0.937443  0.937442  0.561637  1
  Mg  Mg16  1  0.575495  0.575507  0.574075  1
  Cd  Cd17  1  0.580576  0.580578  0.259675  1
  Cd  Cd18  1  0.581269  0.258494  0.580696  1
  Cd  Cd19  1  0.258493  0.581266  0.580693  1
  Co  Co20  1  0.140030  0.140055  0.143316  1
  Co  Co21  1  0.141406  0.141397  0.577790  1
  Ir  Ir22  1  0.141314  0.576227  0.143092  1
  Ir  Ir23  1  0.576229  0.141314  0.143093  1
