# generated using pymatgen
data_Y12TcRu3
_symmetry_space_group_name_H-M   'P 1'
_cell_length_a   6.33798311
_cell_length_b   7.38787012
_cell_length_c   9.22597200
_cell_angle_alpha   90.00000000
_cell_angle_beta   90.00000000
_cell_angle_gamma   89.97893142
_symmetry_Int_Tables_number   1
_chemical_formula_structural   Y12TcRu3
_chemical_formula_sum   'Y12 Tc1 Ru3'
_cell_volume   431.99869247
_cell_formula_units_Z   1
loop_
 _symmetry_equiv_pos_site_id
 _symmetry_equiv_pos_as_xyz
  1  'x, y, z'
loop_
 _atom_site_type_symbol
 _atom_site_label
 _atom_site_symmetry_multiplicity
 _atom_site_fract_x
 _atom_site_fract_y
 _atom_site_fract_z
 _atom_site_occupancy
  Y  Y0  1  0.632995  0.041720  0.250000  1
  Y  Y1  1  0.364891  0.956273  0.750000  1
  Y  Y2  1  0.134532  0.456409  0.750000  1
  Y  Y3  1  0.870747  0.543178  0.250000  1
  Y  Y4  1  0.167578  0.175611  0.064821  1
  Y  Y5  1  0.831417  0.824018  0.935300  1
  Y  Y6  1  0.666372  0.324862  0.936687  1
  Y  Y7  1  0.831417  0.824018  0.564700  1
  Y  Y8  1  0.331947  0.675879  0.064366  1
  Y  Y9  1  0.167578  0.175611  0.435179  1
  Y  Y10  1  0.331947  0.675879  0.435634  1
  Y  Y11  1  0.666372  0.324862  0.563313  1
  Tc  Tc12  1  0.462289  0.385502  0.250000  1
  Ru  Ru13  1  0.539206  0.616382  0.750000  1
  Ru  Ru14  1  0.962122  0.115029  0.750000  1
  Ru  Ru15  1  0.038592  0.884769  0.250000  1
