# generated using pymatgen
data_Nd4TlRu
_symmetry_space_group_name_H-M   'P 1'
_cell_length_a   9.99340783
_cell_length_b   9.99340832
_cell_length_c   9.99340800
_cell_angle_alpha   60.00000107
_cell_angle_beta   59.99999943
_cell_angle_gamma   60.00000317
_symmetry_Int_Tables_number   1
_chemical_formula_structural   Nd4TlRu
_chemical_formula_sum   'Nd16 Tl4 Ru4'
_cell_volume   705.70935862
_cell_formula_units_Z   4
loop_
 _symmetry_equiv_pos_site_id
 _symmetry_equiv_pos_as_xyz
  1  'x, y, z'
loop_
 _atom_site_type_symbol
 _atom_site_label
 _atom_site_symmetry_multiplicity
 _atom_site_fract_x
 _atom_site_fract_y
 _atom_site_fract_z
 _atom_site_occupancy
  Nd  Nd0  1  0.558260  0.558260  0.941740  1
  Nd  Nd1  1  0.191169  0.808831  0.191169  1
  Nd  Nd2  1  0.808831  0.808831  0.191169  1
  Nd  Nd3  1  0.191169  0.191169  0.808831  1
  Nd  Nd4  1  0.403260  0.790221  0.403260  1
  Nd  Nd5  1  0.808831  0.191169  0.808831  1
  Nd  Nd6  1  0.941740  0.941740  0.558260  1
  Nd  Nd7  1  0.808831  0.191169  0.191169  1
  Nd  Nd8  1  0.941740  0.558260  0.941740  1
  Nd  Nd9  1  0.790221  0.403260  0.403260  1
  Nd  Nd10  1  0.558260  0.941740  0.941740  1
  Nd  Nd11  1  0.191169  0.808831  0.808831  1
  Nd  Nd12  1  0.558260  0.941740  0.558260  1
  Nd  Nd13  1  0.403260  0.403260  0.403260  1
  Nd  Nd14  1  0.941740  0.558260  0.558260  1
  Nd  Nd15  1  0.403260  0.403260  0.790221  1
  Tl  Tl16  1  0.166508  0.500476  0.166508  1
  Tl  Tl17  1  0.166508  0.166508  0.500476  1
  Tl  Tl18  1  0.500476  0.166508  0.166508  1
  Tl  Tl19  1  0.166508  0.166508  0.166508  1
  Ru  Ru20  1  0.163552  0.612149  0.612149  1
  Ru  Ru21  1  0.612149  0.612149  0.163552  1
  Ru  Ru22  1  0.612149  0.612149  0.612149  1
  Ru  Ru23  1  0.612149  0.163552  0.612149  1
