# generated using pymatgen
data_Ca4SnPd4Pb
_symmetry_space_group_name_H-M   'P 1'
_cell_length_a   5.88808643
_cell_length_b   5.88808740
_cell_length_c   8.26711511
_cell_angle_alpha   77.75404535
_cell_angle_beta   77.75405356
_cell_angle_gamma   58.75645557
_symmetry_Int_Tables_number   1
_chemical_formula_structural   Ca4SnPd4Pb
_chemical_formula_sum   'Ca4 Sn1 Pd4 Pb1'
_cell_volume   237.67898571
_cell_formula_units_Z   1
loop_
 _symmetry_equiv_pos_site_id
 _symmetry_equiv_pos_as_xyz
  1  'x, y, z'
loop_
 _atom_site_type_symbol
 _atom_site_label
 _atom_site_symmetry_multiplicity
 _atom_site_fract_x
 _atom_site_fract_y
 _atom_site_fract_z
 _atom_site_occupancy
  Ca  Ca0  1  0.501323  0.798587  0.347430  1
  Ca  Ca1  1  0.201413  0.498677  0.152570  1
  Ca  Ca2  1  0.500423  0.198800  0.648210  1
  Ca  Ca3  1  0.801200  0.499577  0.851790  1
  Sn  Sn4  1  0.837356  0.162644  0.250000  1
  Pd  Pd5  1  0.728651  0.007567  0.998220  1
  Pd  Pd6  1  0.992433  0.271349  0.501780  1
  Pd  Pd7  1  0.267413  0.003865  0.009871  1
  Pd  Pd8  1  0.996135  0.732587  0.490129  1
  Pb  Pb9  1  0.173653  0.826347  0.750000  1
