# generated using pymatgen
data_TmLuFe12P7
_symmetry_space_group_name_H-M   'P 1'
_cell_length_a   3.63388600
_cell_length_b   8.91333338
_cell_length_c   8.91313709
_cell_angle_alpha   119.98841429
_cell_angle_beta   90.00000000
_cell_angle_gamma   90.00000000
_symmetry_Int_Tables_number   1
_chemical_formula_structural   TmLuFe12P7
_chemical_formula_sum   'Tm1 Lu1 Fe12 P7'
_cell_volume   250.04798389
_cell_formula_units_Z   1
loop_
 _symmetry_equiv_pos_site_id
 _symmetry_equiv_pos_as_xyz
  1  'x, y, z'
loop_
 _atom_site_type_symbol
 _atom_site_label
 _atom_site_symmetry_multiplicity
 _atom_site_fract_x
 _atom_site_fract_y
 _atom_site_fract_z
 _atom_site_occupancy
  Tm  Tm0  1  0.000000  0.666619  0.333281  1
  Lu  Lu1  1  0.500000  0.333415  0.666809  1
  Fe  Fe2  1  0.000000  0.370798  0.943638  1
  Fe  Fe3  1  0.000000  0.056360  0.427161  1
  Fe  Fe4  1  0.000000  0.572791  0.629174  1
  Fe  Fe5  1  0.000000  0.881049  0.724571  1
  Fe  Fe6  1  0.000000  0.275322  0.156447  1
  Fe  Fe7  1  0.000000  0.843609  0.118910  1
  Fe  Fe8  1  0.500000  0.952224  0.567569  1
  Fe  Fe9  1  0.500000  0.432340  0.384652  1
  Fe  Fe10  1  0.500000  0.615418  0.047827  1
  Fe  Fe11  1  0.500000  0.119863  0.905237  1
  Fe  Fe12  1  0.500000  0.094795  0.214620  1
  Fe  Fe13  1  0.500000  0.785327  0.880100  1
  P  P14  1  0.000000  0.115750  0.702891  1
  P  P15  1  0.000000  0.297086  0.412882  1
  P  P16  1  0.000000  0.587293  0.884396  1
  P  P17  1  0.500000  0.710789  0.597277  1
  P  P18  1  0.500000  0.402628  0.113549  1
  P  P19  1  0.500000  0.886462  0.289057  1
  P  P20  1  0.000000  0.000062  0.999954  1
