# generated using pymatgen
data_Y2ErGaCo3
_symmetry_space_group_name_H-M   'P 1'
_cell_length_a   5.37873092
_cell_length_b   5.37873081
_cell_length_c   12.82045000
_cell_angle_alpha   90.00000000
_cell_angle_beta   90.00000000
_cell_angle_gamma   134.87429640
_symmetry_Int_Tables_number   1
_chemical_formula_structural   Y2ErGaCo3
_chemical_formula_sum   'Y4 Er2 Ga2 Co6'
_cell_volume   262.84433925
_cell_formula_units_Z   2
loop_
 _symmetry_equiv_pos_site_id
 _symmetry_equiv_pos_as_xyz
  1  'x, y, z'
loop_
 _atom_site_type_symbol
 _atom_site_label
 _atom_site_symmetry_multiplicity
 _atom_site_fract_x
 _atom_site_fract_y
 _atom_site_fract_z
 _atom_site_occupancy
  Y  Y0  1  0.707327  0.292673  0.603403  1
  Y  Y1  1  0.292673  0.707327  0.396597  1
  Y  Y2  1  0.292673  0.707327  0.103403  1
  Y  Y3  1  0.707327  0.292673  0.896597  1
  Er  Er4  1  0.002059  0.997941  0.250000  1
  Er  Er5  1  0.997941  0.002059  0.750000  1
  Ga  Ga6  1  0.000000  0.000000  0.000000  1
  Ga  Ga7  1  0.000000  0.000000  0.500000  1
  Co  Co8  1  0.696322  0.303678  0.250000  1
  Co  Co9  1  0.303678  0.696322  0.750000  1
  Co  Co10  1  0.419077  0.580923  0.596470  1
  Co  Co11  1  0.580923  0.419077  0.403530  1
  Co  Co12  1  0.580923  0.419077  0.096470  1
  Co  Co13  1  0.419077  0.580923  0.903530  1
