# generated using pymatgen
data_Ta4CrP4Rh3
_symmetry_space_group_name_H-M   'P 1'
_cell_length_a   3.69364300
_cell_length_b   6.30585534
_cell_length_c   7.25445885
_cell_angle_alpha   89.46223349
_cell_angle_beta   90.00000000
_cell_angle_gamma   90.00000000
_symmetry_Int_Tables_number   1
_chemical_formula_structural   Ta4CrP4Rh3
_chemical_formula_sum   'Ta4 Cr1 P4 Rh3'
_cell_volume   168.96035496
_cell_formula_units_Z   1
loop_
 _symmetry_equiv_pos_site_id
 _symmetry_equiv_pos_as_xyz
  1  'x, y, z'
loop_
 _atom_site_type_symbol
 _atom_site_label
 _atom_site_symmetry_multiplicity
 _atom_site_fract_x
 _atom_site_fract_y
 _atom_site_fract_z
 _atom_site_occupancy
  Ta  Ta0  1  0.250000  0.035142  0.835400  1
  Ta  Ta1  1  0.250000  0.519148  0.675487  1
  Ta  Ta2  1  0.750000  0.975228  0.162869  1
  Ta  Ta3  1  0.750000  0.471700  0.326082  1
  Cr  Cr4  1  0.750000  0.357447  0.940962  1
  P  P5  1  0.250000  0.760674  0.374441  1
  P  P6  1  0.250000  0.266562  0.117394  1
  P  P7  1  0.750000  0.239025  0.637191  1
  P  P8  1  0.750000  0.727483  0.871507  1
  Rh  Rh9  1  0.250000  0.148639  0.430708  1
  Rh  Rh10  1  0.250000  0.643124  0.064045  1
  Rh  Rh11  1  0.750000  0.855827  0.563914  1
