# generated using pymatgen
data_Dy7Y(B6Os)4
_symmetry_space_group_name_H-M   'P 1'
_cell_length_a   9.16623301
_cell_length_b   11.54297701
_cell_length_c   3.65626500
_cell_angle_alpha   90.00000000
_cell_angle_beta   90.00000000
_cell_angle_gamma   90.00473671
_symmetry_Int_Tables_number   1
_chemical_formula_structural   Dy7Y(B6Os)4
_chemical_formula_sum   'Dy7 Y1 B24 Os4'
_cell_volume   386.85337247
_cell_formula_units_Z   1
loop_
 _symmetry_equiv_pos_site_id
 _symmetry_equiv_pos_as_xyz
  1  'x, y, z'
loop_
 _atom_site_type_symbol
 _atom_site_label
 _atom_site_symmetry_multiplicity
 _atom_site_fract_x
 _atom_site_fract_y
 _atom_site_fract_z
 _atom_site_occupancy
  Dy  Dy0  1  0.443827  0.126997  0.000000  1
  Dy  Dy1  1  0.943864  0.373030  0.000000  1
  Dy  Dy2  1  0.322632  0.413677  0.000000  1
  Dy  Dy3  1  0.677381  0.586321  0.000000  1
  Dy  Dy4  1  0.056143  0.626980  0.000000  1
  Dy  Dy5  1  0.556115  0.872981  0.000000  1
  Dy  Dy6  1  0.177384  0.913670  0.000000  1
  Y  Y7  1  0.822439  0.086327  0.000000  1
  B  B8  1  0.609462  0.030424  0.499999  1
  B  B9  1  0.053863  0.066969  0.499999  1
  B  B10  1  0.247234  0.079972  0.499999  1
  B  B11  1  0.631810  0.185844  0.499999  1
  B  B12  1  0.983413  0.213183  0.499999  1
  B  B13  1  0.290765  0.233130  0.499999  1
  B  B14  1  0.790721  0.267023  0.499999  1
  B  B15  1  0.483258  0.286927  0.499999  1
  B  B16  1  0.131988  0.314282  0.499999  1
  B  B17  1  0.747209  0.420055  0.499999  1
  B  B18  1  0.553676  0.433017  0.499999  1
  B  B19  1  0.109587  0.469548  0.499999  1
  B  B20  1  0.890419  0.530450  0.499999  1
  B  B21  1  0.446311  0.567008  0.499999  1
  B  B22  1  0.252804  0.579978  0.499999  1
  B  B23  1  0.868043  0.685726  0.499999  1
  B  B24  1  0.516708  0.713076  0.499999  1
  B  B25  1  0.209261  0.733107  0.499999  1
  B  B26  1  0.709235  0.766861  0.499999  1
  B  B27  1  0.016740  0.786894  0.499999  1
  B  B28  1  0.368041  0.814253  0.499999  1
  B  B29  1  0.752759  0.919864  0.499999  1
  B  B30  1  0.946431  0.932875  0.499999  1
  B  B31  1  0.390428  0.969542  0.499999  1
  Os  Os32  1  0.137289  0.178485  0.000000  1
  Os  Os33  1  0.637069  0.321667  0.000000  1
  Os  Os34  1  0.362842  0.678437  0.000000  1
  Os  Os35  1  0.862848  0.821423  0.000000  1
