# generated using pymatgen
data_LuSc7Be4(SiMo)12
_symmetry_space_group_name_H-M   'P 1'
_cell_length_a   6.53414409
_cell_length_b   6.67151840
_cell_length_c   12.67834564
_cell_angle_alpha   90.03571528
_cell_angle_beta   90.00827871
_cell_angle_gamma   90.01662451
_symmetry_Int_Tables_number   1
_chemical_formula_structural   LuSc7Be4(SiMo)12
_chemical_formula_sum   'Lu1 Sc7 Be4 Si12 Mo12'
_cell_volume   552.68270599
_cell_formula_units_Z   1
loop_
 _symmetry_equiv_pos_site_id
 _symmetry_equiv_pos_as_xyz
  1  'x, y, z'
loop_
 _atom_site_type_symbol
 _atom_site_label
 _atom_site_symmetry_multiplicity
 _atom_site_fract_x
 _atom_site_fract_y
 _atom_site_fract_z
 _atom_site_occupancy
  Lu  Lu0  1  0.000060  0.167216  0.094747  1
  Sc  Sc1  1  0.500055  0.330673  0.095646  1
  Sc  Sc2  1  0.999651  0.169566  0.404413  1
  Sc  Sc3  1  0.500286  0.669645  0.595494  1
  Sc  Sc4  1  0.000469  0.829870  0.903033  1
  Sc  Sc5  1  0.500952  0.669229  0.903486  1
  Sc  Sc6  1  0.000308  0.830503  0.595578  1
  Sc  Sc7  1  0.499652  0.330956  0.405469  1
  Be  Be8  1  0.542716  0.375514  0.749786  1
  Be  Be9  1  0.042796  0.124689  0.749953  1
  Be  Be10  1  0.457270  0.624655  0.250385  1
  Be  Be11  1  0.956444  0.873726  0.251433  1
  Si  Si12  1  0.667325  0.038369  0.541244  1
  Si  Si13  1  0.167771  0.464153  0.957569  1
  Si  Si14  1  0.337361  0.958108  0.040266  1
  Si  Si15  1  0.833083  0.538169  0.459044  1
  Si  Si16  1  0.332586  0.961886  0.459140  1
  Si  Si17  1  0.831595  0.541775  0.040355  1
  Si  Si18  1  0.666150  0.037654  0.957432  1
  Si  Si19  1  0.167156  0.461559  0.541314  1
  Si  Si20  1  0.790790  0.630149  0.749454  1
  Si  Si21  1  0.291023  0.870282  0.749661  1
  Si  Si22  1  0.211236  0.371836  0.251461  1
  Si  Si23  1  0.705963  0.129674  0.251744  1
  Mo  Mo24  1  0.838054  0.328919  0.627474  1
  Mo  Mo25  1  0.337786  0.170868  0.872348  1
  Mo  Mo26  1  0.161553  0.671017  0.127934  1
  Mo  Mo27  1  0.661411  0.828331  0.373020  1
  Mo  Mo28  1  0.162011  0.671144  0.373089  1
  Mo  Mo29  1  0.661420  0.828619  0.128224  1
  Mo  Mo30  1  0.837373  0.330134  0.871947  1
  Mo  Mo31  1  0.338061  0.171154  0.627594  1
  Mo  Mo32  1  0.666000  0.009340  0.749502  1
  Mo  Mo33  1  0.166120  0.491049  0.749668  1
  Mo  Mo34  1  0.333997  0.990275  0.250681  1
  Mo  Mo35  1  0.833513  0.509294  0.250413  1
