# generated using pymatgen
data_Ta2Se2O11
_symmetry_space_group_name_H-M   'P 1'
_cell_length_a   9.31224351
_cell_length_b   9.31224320
_cell_length_c   9.31224279
_cell_angle_alpha   34.41937621
_cell_angle_beta   34.41938017
_cell_angle_gamma   34.41937592
_symmetry_Int_Tables_number   1
_chemical_formula_structural   Ta2Se2O11
_chemical_formula_sum   'Ta2 Se2 O11'
_cell_volume   230.14618258
_cell_formula_units_Z   1
loop_
 _symmetry_equiv_pos_site_id
 _symmetry_equiv_pos_as_xyz
  1  'x, y, z'
loop_
 _atom_site_type_symbol
 _atom_site_label
 _atom_site_symmetry_multiplicity
 _atom_site_fract_x
 _atom_site_fract_y
 _atom_site_fract_z
 _atom_site_occupancy
  Ta  Ta0  1  0.373594  0.373594  0.373594  1
  Ta  Ta1  1  0.626368  0.626368  0.626368  1
  Se  Se2  1  0.886750  0.886750  0.886750  1
  Se  Se3  1  0.113245  0.113245  0.113245  1
  O  O4  1  0.748763  0.237002  0.748763  1
  O  O5  1  0.237002  0.748763  0.748763  1
  O  O6  1  0.748763  0.748763  0.237002  1
  O  O7  1  0.762969  0.251335  0.251335  1
  O  O8  1  0.251335  0.762969  0.251335  1
  O  O9  1  0.251335  0.251335  0.762969  1
  O  O10  1  0.174656  0.174656  0.174656  1
  O  O11  1  0.825334  0.825334  0.825334  1
  O  O12  1  0.499903  0.499903  0.000078  1
  O  O13  1  0.499903  0.000078  0.499903  1
  O  O14  1  0.000078  0.499903  0.499903  1
