# generated using pymatgen
data_MoF17
_symmetry_space_group_name_H-M   'P 1'
_cell_length_a   8.83580598
_cell_length_b   8.63372349
_cell_length_c   10.16546360
_cell_angle_alpha   84.00373742
_cell_angle_beta   87.59477956
_cell_angle_gamma   68.63505143
_symmetry_Int_Tables_number   1
_chemical_formula_structural   MoF17
_chemical_formula_sum   'Mo2 F34'
_cell_volume   718.23190960
_cell_formula_units_Z   2
loop_
 _symmetry_equiv_pos_site_id
 _symmetry_equiv_pos_as_xyz
  1  'x, y, z'
loop_
 _atom_site_type_symbol
 _atom_site_label
 _atom_site_symmetry_multiplicity
 _atom_site_fract_x
 _atom_site_fract_y
 _atom_site_fract_z
 _atom_site_occupancy
  Mo  Mo0  1  0.860862  0.250428  0.762939  1
  Mo  Mo1  1  0.139138  0.749572  0.237061  1
  F  F2  1  0.594212  0.200988  0.494238  1
  F  F3  1  0.405788  0.799012  0.505762  1
  F  F4  1  0.820736  0.694431  0.713370  1
  F  F5  1  0.179264  0.305569  0.286630  1
  F  F6  1  0.074670  0.787782  0.852531  1
  F  F7  1  0.925330  0.212218  0.147469  1
  F  F8  1  0.551368  0.141664  0.380588  1
  F  F9  1  0.448632  0.858336  0.619412  1
  F  F10  1  0.645033  0.311240  0.709575  1
  F  F11  1  0.354967  0.688760  0.290425  1
  F  F12  1  0.933090  0.075417  0.654824  1
  F  F13  1  0.066910  0.924583  0.345176  1
  F  F14  1  0.900237  0.383573  0.619169  1
  F  F15  1  0.099763  0.616427  0.380831  1
  F  F16  1  0.853895  0.807658  0.614641  1
  F  F17  1  0.146105  0.192342  0.385359  1
  F  F18  1  0.796733  0.433713  0.863395  1
  F  F19  1  0.203267  0.566287  0.136605  1
  F  F20  1  0.210265  0.687297  0.780328  1
  F  F21  1  0.789735  0.312703  0.219672  1
  F  F22  1  0.930591  0.808720  0.169071  1
  F  F23  1  0.069409  0.191280  0.830929  1
  F  F24  1  0.817852  0.108982  0.899413  1
  F  F25  1  0.182148  0.891018  0.100587  1
  F  F26  1  0.477796  0.586162  0.976965  1
  F  F27  1  0.522204  0.413838  0.023035  1
  F  F28  1  0.466164  0.073517  0.868075  1
  F  F29  1  0.533836  0.926483  0.131925  1
  F  F30  1  0.287760  0.223257  0.622653  1
  F  F31  1  0.712240  0.776743  0.377347  1
  F  F32  1  0.255876  0.380403  0.672854  1
  F  F33  1  0.744124  0.619597  0.327146  1
  F  F34  1  0.562303  0.907325  0.840759  1
  F  F35  1  0.437697  0.092675  0.159241  1
