# generated using pymatgen
data_TbYbU2F12
_symmetry_space_group_name_H-M   'P 1'
_cell_length_a   4.53625681
_cell_length_b   6.56058017
_cell_length_c   7.07549400
_cell_angle_alpha   90.00000000
_cell_angle_beta   90.00000000
_cell_angle_gamma   89.45002146
_symmetry_Int_Tables_number   1
_chemical_formula_structural   TbYbU2F12
_chemical_formula_sum   'Tb1 Yb1 U2 F12'
_cell_volume   210.56037192
_cell_formula_units_Z   1
loop_
 _symmetry_equiv_pos_site_id
 _symmetry_equiv_pos_as_xyz
  1  'x, y, z'
loop_
 _atom_site_type_symbol
 _atom_site_label
 _atom_site_symmetry_multiplicity
 _atom_site_fract_x
 _atom_site_fract_y
 _atom_site_fract_z
 _atom_site_occupancy
  Tb  Tb0  1  0.944647  0.627046  0.750000  1
  Yb  Yb1  1  0.049457  0.368744  0.250000  1
  U  U2  1  0.431490  0.861574  0.250000  1
  U  U3  1  0.557014  0.139099  0.750000  1
  F  F4  1  0.088691  0.970442  0.750000  1
  F  F5  1  0.600656  0.535186  0.250000  1
  F  F6  1  0.414442  0.487819  0.750000  1
  F  F7  1  0.905878  0.015283  0.250000  1
  F  F8  1  0.373144  0.166139  0.063905  1
  F  F9  1  0.881344  0.339003  0.932575  1
  F  F10  1  0.122843  0.660986  0.442028  1
  F  F11  1  0.626531  0.831276  0.567584  1
  F  F12  1  0.626531  0.831276  0.932416  1
  F  F13  1  0.122843  0.660986  0.057972  1
  F  F14  1  0.881344  0.339003  0.567425  1
  F  F15  1  0.373144  0.166139  0.436095  1
