# generated using pymatgen
data_CaHo3Er2(Si3Ru)8
_symmetry_space_group_name_H-M   'P 1'
_cell_length_a   10.12995991
_cell_length_b   10.12995993
_cell_length_c   8.13725024
_cell_angle_alpha   89.90883117
_cell_angle_beta   90.09117622
_cell_angle_gamma   132.63128574
_symmetry_Int_Tables_number   1
_chemical_formula_structural   CaHo3Er2(Si3Ru)8
_chemical_formula_sum   'Ca1 Ho3 Er2 Si24 Ru8'
_cell_volume   614.34083937
_cell_formula_units_Z   1
loop_
 _symmetry_equiv_pos_site_id
 _symmetry_equiv_pos_as_xyz
  1  'x, y, z'
loop_
 _atom_site_type_symbol
 _atom_site_label
 _atom_site_symmetry_multiplicity
 _atom_site_fract_x
 _atom_site_fract_y
 _atom_site_fract_z
 _atom_site_occupancy
  Ca  Ca0  1  0.498157  0.998157  0.250000  1
  Ho  Ho1  1  0.001192  0.501192  0.750000  1
  Ho  Ho2  1  0.502799  0.002799  0.750000  1
  Ho  Ho3  1  0.997262  0.497262  0.250000  1
  Er  Er4  1  0.499798  0.499667  0.499422  1
  Er  Er5  1  0.999667  0.999798  0.000578  1
  Si  Si6  1  0.388387  0.155210  0.002220  1
  Si  Si7  1  0.655210  0.888387  0.497780  1
  Si  Si8  1  0.111770  0.344717  0.505057  1
  Si  Si9  1  0.844717  0.611770  0.994943  1
  Si  Si10  1  0.612086  0.845691  0.993255  1
  Si  Si11  1  0.345691  0.112086  0.506745  1
  Si  Si12  1  0.888045  0.655547  0.494854  1
  Si  Si13  1  0.155547  0.388045  0.005146  1
  Si  Si14  1  0.614265  0.380109  0.228252  1
  Si  Si15  1  0.880109  0.114265  0.271748  1
  Si  Si16  1  0.888285  0.121694  0.727878  1
  Si  Si17  1  0.621694  0.388285  0.772122  1
  Si  Si18  1  0.388523  0.621712  0.771491  1
  Si  Si19  1  0.121712  0.888523  0.728509  1
  Si  Si20  1  0.704972  0.294242  0.000798  1
  Si  Si21  1  0.794242  0.204972  0.499202  1
  Si  Si22  1  0.295281  0.705740  0.999954  1
  Si  Si23  1  0.205740  0.795281  0.500046  1
  Si  Si24  1  0.166246  0.167456  0.332976  1
  Si  Si25  1  0.667456  0.666246  0.167024  1
  Si  Si26  1  0.332946  0.331560  0.833114  1
  Si  Si27  1  0.831560  0.832946  0.666886  1
  Si  Si28  1  0.376040  0.609853  0.228464  1
  Si  Si29  1  0.109853  0.876040  0.271536  1
  Ru  Ru30  1  0.626016  0.626506  0.873172  1
  Ru  Ru31  1  0.126506  0.126016  0.626828  1
  Ru  Ru32  1  0.873020  0.873449  0.372803  1
  Ru  Ru33  1  0.373449  0.373020  0.127197  1
  Ru  Ru34  1  0.329341  0.668270  0.501163  1
  Ru  Ru35  1  0.168270  0.829341  0.998837  1
  Ru  Ru36  1  0.671166  0.332980  0.502007  1
  Ru  Ru37  1  0.832980  0.171166  0.997993  1
