# generated using pymatgen
data_Ho2Si(PRu2)6
_symmetry_space_group_name_H-M   'P 1'
_cell_length_a   9.42059300
_cell_length_b   9.42059237
_cell_length_c   3.96027900
_cell_angle_alpha   90.00000000
_cell_angle_beta   90.00000000
_cell_angle_gamma   119.99999166
_symmetry_Int_Tables_number   1
_chemical_formula_structural   Ho2Si(PRu2)6
_chemical_formula_sum   'Ho2 Si1 P6 Ru12'
_cell_volume   304.37775168
_cell_formula_units_Z   1
loop_
 _symmetry_equiv_pos_site_id
 _symmetry_equiv_pos_as_xyz
  1  'x, y, z'
loop_
 _atom_site_type_symbol
 _atom_site_label
 _atom_site_symmetry_multiplicity
 _atom_site_fract_x
 _atom_site_fract_y
 _atom_site_fract_z
 _atom_site_occupancy
  Ho  Ho0  1  0.666667  0.333333  0.500000  1
  Ho  Ho1  1  0.333333  0.666667  0.000000  1
  Si  Si2  1  0.000000  0.000000  0.000000  1
  P  P3  1  0.601990  0.719433  0.500000  1
  P  P4  1  0.280567  0.882556  0.500000  1
  P  P5  1  0.117444  0.398010  0.500000  1
  P  P6  1  0.886173  0.575111  0.000000  1
  P  P7  1  0.424889  0.311061  0.000000  1
  P  P8  1  0.688939  0.113827  0.000000  1
  Ru  Ru9  1  0.554855  0.950416  0.500000  1
  Ru  Ru10  1  0.395564  0.445145  0.500000  1
  Ru  Ru11  1  0.912499  0.120827  0.500000  1
  Ru  Ru12  1  0.208328  0.087501  0.500000  1
  Ru  Ru13  1  0.879173  0.791672  0.500000  1
  Ru  Ru14  1  0.720578  0.886945  0.000000  1
  Ru  Ru15  1  0.113055  0.833632  0.000000  1
  Ru  Ru16  1  0.166368  0.279422  0.000000  1
  Ru  Ru17  1  0.424667  0.067612  0.000000  1
  Ru  Ru18  1  0.932388  0.357056  0.000000  1
  Ru  Ru19  1  0.642944  0.575333  0.000000  1
  Ru  Ru20  1  0.049584  0.604436  0.500000  1
