# generated using pymatgen
data_DyLu2(NiRh2)3
_symmetry_space_group_name_H-M   'P 1'
_cell_length_a   5.25251279
_cell_length_b   5.25251226
_cell_length_c   8.67661885
_cell_angle_alpha   72.38124359
_cell_angle_beta   72.38124437
_cell_angle_gamma   60.00001365
_symmetry_Int_Tables_number   1
_chemical_formula_structural   DyLu2(NiRh2)3
_chemical_formula_sum   'Dy1 Lu2 Ni3 Rh6'
_cell_volume   194.23356951
_cell_formula_units_Z   1
loop_
 _symmetry_equiv_pos_site_id
 _symmetry_equiv_pos_as_xyz
  1  'x, y, z'
loop_
 _atom_site_type_symbol
 _atom_site_label
 _atom_site_symmetry_multiplicity
 _atom_site_fract_x
 _atom_site_fract_y
 _atom_site_fract_z
 _atom_site_occupancy
  Dy  Dy0  1  0.000000  0.000000  0.000000  1
  Lu  Lu1  1  0.140711  0.140711  0.577867  1
  Lu  Lu2  1  0.859289  0.859289  0.422133  1
  Ni  Ni3  1  0.333215  0.333215  0.000355  1
  Ni  Ni4  1  0.666785  0.666785  0.999645  1
  Ni  Ni5  1  0.500000  0.500000  0.500000  1
  Rh  Rh6  1  0.080989  0.584159  0.750695  1
  Rh  Rh7  1  0.584159  0.584159  0.750695  1
  Rh  Rh8  1  0.584159  0.080989  0.750695  1
  Rh  Rh9  1  0.919011  0.415841  0.249305  1
  Rh  Rh10  1  0.415841  0.415841  0.249305  1
  Rh  Rh11  1  0.415841  0.919011  0.249305  1
