# generated using pymatgen
data_Y2Ni2B4IrRh
_symmetry_space_group_name_H-M   'P 1'
_cell_length_a   5.07478588
_cell_length_b   5.07161269
_cell_length_c   7.24050318
_cell_angle_alpha   58.79627197
_cell_angle_beta   58.73480429
_cell_angle_gamma   62.41301701
_symmetry_Int_Tables_number   1
_chemical_formula_structural   Y2Ni2B4IrRh
_chemical_formula_sum   'Y2 Ni2 B4 Ir1 Rh1'
_cell_volume   131.34942029
_cell_formula_units_Z   1
loop_
 _symmetry_equiv_pos_site_id
 _symmetry_equiv_pos_as_xyz
  1  'x, y, z'
loop_
 _atom_site_type_symbol
 _atom_site_label
 _atom_site_symmetry_multiplicity
 _atom_site_fract_x
 _atom_site_fract_y
 _atom_site_fract_z
 _atom_site_occupancy
  Y  Y0  1  0.114724  0.887775  0.242602  1
  Y  Y1  1  0.879113  0.125634  0.747149  1
  Ni  Ni2  1  0.529135  0.728097  0.795600  1
  Ni  Ni3  1  0.269001  0.469139  0.709481  1
  B  B4  1  0.162122  0.503773  0.007449  1
  B  B5  1  0.505352  0.830475  0.494674  1
  B  B6  1  0.837545  0.498095  0.971027  1
  B  B7  1  0.514162  0.153358  0.530376  1
  Ir  Ir8  1  0.727028  0.536828  0.301933  1
  Rh  Rh9  1  0.461817  0.266826  0.199708  1
