# generated using pymatgen
data_Ho4Er4Si8Pd3Pt5
_symmetry_space_group_name_H-M   'P 1'
_cell_length_a   4.26047800
_cell_length_b   7.48614860
_cell_length_c   13.95202013
_cell_angle_alpha   89.98491001
_cell_angle_beta   90.00000000
_cell_angle_gamma   90.00000000
_symmetry_Int_Tables_number   1
_chemical_formula_structural   Ho4Er4Si8Pd3Pt5
_chemical_formula_sum   'Ho4 Er4 Si8 Pd3 Pt5'
_cell_volume   444.99368701
_cell_formula_units_Z   1
loop_
 _symmetry_equiv_pos_site_id
 _symmetry_equiv_pos_as_xyz
  1  'x, y, z'
loop_
 _atom_site_type_symbol
 _atom_site_label
 _atom_site_symmetry_multiplicity
 _atom_site_fract_x
 _atom_site_fract_y
 _atom_site_fract_z
 _atom_site_occupancy
  Ho  Ho0  1  0.000000  0.299538  0.000242  1
  Ho  Ho1  1  0.500000  0.700639  0.500151  1
  Ho  Ho2  1  0.000000  0.292698  0.499712  1
  Ho  Ho3  1  0.500000  0.706772  0.999877  1
  Er  Er4  1  0.000000  0.203438  0.250019  1
  Er  Er5  1  0.500000  0.795605  0.249760  1
  Er  Er6  1  0.000000  0.204065  0.749715  1
  Er  Er7  1  0.500000  0.795964  0.750598  1
  Si  Si8  1  0.000000  0.907045  0.592277  1
  Si  Si9  1  0.500000  0.093107  0.907930  1
  Si  Si10  1  0.000000  0.907207  0.407975  1
  Si  Si11  1  0.500000  0.094594  0.093010  1
  Si  Si12  1  0.000000  0.593397  0.144314  1
  Si  Si13  1  0.500000  0.404040  0.353825  1
  Si  Si14  1  0.000000  0.595533  0.857293  1
  Si  Si15  1  0.500000  0.404316  0.643212  1
  Pd  Pd16  1  0.000000  0.580517  0.343883  1
  Pd  Pd17  1  0.500000  0.421177  0.840835  1
  Pd  Pd18  1  0.000000  0.579102  0.657963  1
  Pt  Pt19  1  0.500000  0.074768  0.609420  1
  Pt  Pt20  1  0.000000  0.925295  0.890784  1
  Pt  Pt21  1  0.500000  0.074662  0.391132  1
  Pt  Pt22  1  0.000000  0.924081  0.109283  1
  Pt  Pt23  1  0.500000  0.422439  0.156790  1
