# generated using pymatgen
data_Tb6Cd22PPd
_symmetry_space_group_name_H-M   'P 1'
_cell_length_a   9.86894158
_cell_length_b   9.86894244
_cell_length_c   9.86894200
_cell_angle_alpha   60.00000149
_cell_angle_beta   59.99999861
_cell_angle_gamma   60.00000195
_symmetry_Int_Tables_number   1
_chemical_formula_structural   Tb6Cd22PPd
_chemical_formula_sum   'Tb6 Cd22 P1 Pd1'
_cell_volume   679.66796385
_cell_formula_units_Z   1
loop_
 _symmetry_equiv_pos_site_id
 _symmetry_equiv_pos_as_xyz
  1  'x, y, z'
loop_
 _atom_site_type_symbol
 _atom_site_label
 _atom_site_symmetry_multiplicity
 _atom_site_fract_x
 _atom_site_fract_y
 _atom_site_fract_z
 _atom_site_occupancy
  Tb  Tb0  1  0.799180  0.799180  0.200820  1
  Tb  Tb1  1  0.200820  0.799180  0.200820  1
  Tb  Tb2  1  0.799180  0.200820  0.200820  1
  Tb  Tb3  1  0.200820  0.200820  0.799180  1
  Tb  Tb4  1  0.799180  0.200820  0.799180  1
  Tb  Tb5  1  0.200820  0.799180  0.799180  1
  Cd  Cd6  1  0.834226  0.834226  0.497322  1
  Cd  Cd7  1  0.834226  0.497322  0.834226  1
  Cd  Cd8  1  0.497322  0.834226  0.834226  1
  Cd  Cd9  1  0.834226  0.834226  0.834226  1
  Cd  Cd10  1  0.165774  0.165774  0.502678  1
  Cd  Cd11  1  0.165774  0.502678  0.165774  1
  Cd  Cd12  1  0.502678  0.165774  0.165774  1
  Cd  Cd13  1  0.165774  0.165774  0.165774  1
  Cd  Cd14  1  0.616045  0.616045  0.151864  1
  Cd  Cd15  1  0.616045  0.151864  0.616045  1
  Cd  Cd16  1  0.151864  0.616045  0.616045  1
  Cd  Cd17  1  0.616045  0.616045  0.616045  1
  Cd  Cd18  1  0.383955  0.383955  0.848136  1
  Cd  Cd19  1  0.383955  0.848136  0.383955  1
  Cd  Cd20  1  0.848136  0.383955  0.383955  1
  Cd  Cd21  1  0.383955  0.383955  0.383955  1
  Cd  Cd22  1  0.000000  0.000000  0.500000  1
  Cd  Cd23  1  0.500000  0.000000  0.500000  1
  Cd  Cd24  1  0.000000  0.500000  0.500000  1
  Cd  Cd25  1  0.500000  0.500000  0.000000  1
  Cd  Cd26  1  0.000000  0.500000  0.000000  1
  Cd  Cd27  1  0.500000  0.000000  0.000000  1
  P  P28  1  0.000000  0.000000  0.000000  1
  Pd  Pd29  1  0.500000  0.500000  0.500000  1
