# generated using pymatgen
data_Yb2Y18Ir11Ru
_symmetry_space_group_name_H-M   'P 1'
_cell_length_a   6.39851400
_cell_length_b   10.90884400
_cell_length_c   10.91668600
_cell_angle_alpha   89.99981099
_cell_angle_beta   90.00000000
_cell_angle_gamma   90.00000000
_symmetry_Int_Tables_number   1
_chemical_formula_structural   Yb2Y18Ir11Ru
_chemical_formula_sum   'Yb2 Y18 Ir11 Ru1'
_cell_volume   761.98895185
_cell_formula_units_Z   1
loop_
 _symmetry_equiv_pos_site_id
 _symmetry_equiv_pos_as_xyz
  1  'x, y, z'
loop_
 _atom_site_type_symbol
 _atom_site_label
 _atom_site_symmetry_multiplicity
 _atom_site_fract_x
 _atom_site_fract_y
 _atom_site_fract_z
 _atom_site_occupancy
  Yb  Yb0  1  0.999970  0.250000  0.750000  1
  Yb  Yb1  1  0.500026  0.250000  0.750000  1
  Y  Y2  1  0.380401  0.838673  0.542549  1
  Y  Y3  1  0.883070  0.661289  0.542815  1
  Y  Y4  1  0.883070  0.838711  0.957185  1
  Y  Y5  1  0.380401  0.661327  0.957451  1
  Y  Y6  1  0.884122  0.541659  0.837405  1
  Y  Y7  1  0.381531  0.958527  0.837439  1
  Y  Y8  1  0.381531  0.541473  0.662561  1
  Y  Y9  1  0.884122  0.958341  0.662595  1
  Y  Y10  1  0.617076  0.161852  0.460015  1
  Y  Y11  1  0.116736  0.338030  0.460001  1
  Y  Y12  1  0.116736  0.161970  0.040000  1
  Y  Y13  1  0.617076  0.338148  0.039986  1
  Y  Y14  1  0.118123  0.458996  0.160685  1
  Y  Y15  1  0.618424  0.041070  0.160580  1
  Y  Y16  1  0.618424  0.458931  0.339420  1
  Y  Y17  1  0.118123  0.041005  0.339315  1
  Y  Y18  1  0.499808  0.750000  0.250000  1
  Y  Y19  1  0.999807  0.750000  0.250000  1
  Ir  Ir20  1  0.250234  0.903629  0.096931  1
  Ir  Ir21  1  0.749837  0.596602  0.096973  1
  Ir  Ir22  1  0.749837  0.903398  0.403027  1
  Ir  Ir23  1  0.250234  0.596371  0.403069  1
  Ir  Ir24  1  0.749633  0.092983  0.907637  1
  Ir  Ir25  1  0.250108  0.407066  0.907739  1
  Ir  Ir26  1  0.250108  0.092934  0.592261  1
  Ir  Ir27  1  0.749633  0.407017  0.592363  1
  Ir  Ir28  1  0.626946  0.750000  0.750000  1
  Ir  Ir29  1  0.873611  0.250000  0.250000  1
  Ir  Ir30  1  0.373666  0.250000  0.250000  1
  Ru  Ru31  1  0.127574  0.750000  0.750000  1
