# generated using pymatgen
data_Tb3Y4IrI12
_symmetry_space_group_name_H-M   'P 1'
_cell_length_a   9.82864577
_cell_length_b   9.82864515
_cell_length_c   9.82864402
_cell_angle_alpha   106.90726847
_cell_angle_beta   106.90726806
_cell_angle_gamma   106.90726625
_symmetry_Int_Tables_number   1
_chemical_formula_structural   Tb3Y4IrI12
_chemical_formula_sum   'Tb3 Y4 Ir1 I12'
_cell_volume   792.71889915
_cell_formula_units_Z   1
loop_
 _symmetry_equiv_pos_site_id
 _symmetry_equiv_pos_as_xyz
  1  'x, y, z'
loop_
 _atom_site_type_symbol
 _atom_site_label
 _atom_site_symmetry_multiplicity
 _atom_site_fract_x
 _atom_site_fract_y
 _atom_site_fract_z
 _atom_site_occupancy
  Tb  Tb0  1  0.094841  0.022610  0.296286  1
  Tb  Tb1  1  0.022610  0.296286  0.094841  1
  Tb  Tb2  1  0.296286  0.094841  0.022610  1
  Y  Y3  1  0.499924  0.499924  0.499924  1
  Y  Y4  1  0.904971  0.976904  0.703459  1
  Y  Y5  1  0.976904  0.703459  0.904971  1
  Y  Y6  1  0.703459  0.904971  0.976904  1
  Ir  Ir7  1  0.000178  0.000178  0.000178  1
  I  I8  1  0.536519  0.837722  0.613383  1
  I  I9  1  0.837722  0.613383  0.536519  1
  I  I10  1  0.613383  0.536519  0.837722  1
  I  I11  1  0.464187  0.162852  0.387106  1
  I  I12  1  0.162852  0.387106  0.464187  1
  I  I13  1  0.387106  0.464187  0.162852  1
  I  I14  1  0.675898  0.223779  0.070325  1
  I  I15  1  0.223779  0.070325  0.675898  1
  I  I16  1  0.070325  0.675898  0.223779  1
  I  I17  1  0.324420  0.775355  0.929282  1
  I  I18  1  0.775355  0.929282  0.324420  1
  I  I19  1  0.929282  0.324420  0.775355  1
