# generated using pymatgen
data_Li2Tb11Tm5(InRh2)2
_symmetry_space_group_name_H-M   'P 1'
_cell_length_a   9.62472084
_cell_length_b   9.63046637
_cell_length_c   9.64801409
_cell_angle_alpha   59.83421425
_cell_angle_beta   59.81459458
_cell_angle_gamma   59.91842524
_symmetry_Int_Tables_number   1
_chemical_formula_structural   Li2Tb11Tm5(InRh2)2
_chemical_formula_sum   'Li2 Tb11 Tm5 In2 Rh4'
_cell_volume   630.28003678
_cell_formula_units_Z   1
loop_
 _symmetry_equiv_pos_site_id
 _symmetry_equiv_pos_as_xyz
  1  'x, y, z'
loop_
 _atom_site_type_symbol
 _atom_site_label
 _atom_site_symmetry_multiplicity
 _atom_site_fract_x
 _atom_site_fract_y
 _atom_site_fract_z
 _atom_site_occupancy
  Li  Li0  1  0.428717  0.427504  0.425567  1
  Li  Li1  1  0.428735  0.426572  0.720128  1
  Tb  Tb2  1  0.439714  0.437375  0.061172  1
  Tb  Tb3  1  0.652065  0.650573  0.648055  1
  Tb  Tb4  1  0.812050  0.186215  0.189043  1
  Tb  Tb5  1  0.186614  0.813553  0.811573  1
  Tb  Tb6  1  0.042302  0.653160  0.651010  1
  Tb  Tb7  1  0.437997  0.063321  0.061251  1
  Tb  Tb8  1  0.434869  0.062355  0.437923  1
  Tb  Tb9  1  0.064031  0.435132  0.063313  1
  Tb  Tb10  1  0.651023  0.650487  0.050875  1
  Tb  Tb11  1  0.186374  0.813106  0.189367  1
  Tb  Tb12  1  0.062765  0.433125  0.437445  1
  Tm  Tm13  1  0.808156  0.809184  0.191969  1
  Tm  Tm14  1  0.812229  0.187704  0.811088  1
  Tm  Tm15  1  0.183271  0.183234  0.818208  1
  Tm  Tm16  1  0.653817  0.042425  0.650968  1
  Tm  Tm17  1  0.062853  0.064100  0.437428  1
  In  In18  1  0.414889  0.744283  0.421240  1
  In  In19  1  0.744285  0.414317  0.421871  1
  Rh  Rh20  1  0.857776  0.424440  0.857016  1
  Rh  Rh21  1  0.853420  0.860254  0.860103  1
  Rh  Rh22  1  0.854415  0.857737  0.427851  1
  Rh  Rh23  1  0.427637  0.859846  0.855538  1
