# generated using pymatgen
data_DyLu3Ga18(Ni2Ru)2
_symmetry_space_group_name_H-M   'P 1'
_cell_length_a   7.46692759
_cell_length_b   7.46757879
_cell_length_c   9.36614729
_cell_angle_alpha   90.01135383
_cell_angle_beta   89.97176833
_cell_angle_gamma   120.09338998
_symmetry_Int_Tables_number   1
_chemical_formula_structural   DyLu3Ga18(Ni2Ru)2
_chemical_formula_sum   'Dy1 Lu3 Ga18 Ni4 Ru2'
_cell_volume   451.85994765
_cell_formula_units_Z   1
loop_
 _symmetry_equiv_pos_site_id
 _symmetry_equiv_pos_as_xyz
  1  'x, y, z'
loop_
 _atom_site_type_symbol
 _atom_site_label
 _atom_site_symmetry_multiplicity
 _atom_site_fract_x
 _atom_site_fract_y
 _atom_site_fract_z
 _atom_site_occupancy
  Dy  Dy0  1  0.995829  0.665760  0.250503  1
  Lu  Lu1  1  0.334381  0.004152  0.749373  1
  Lu  Lu2  1  0.665688  0.995869  0.249380  1
  Lu  Lu3  1  0.004055  0.334162  0.750649  1
  Ga  Ga4  1  0.882405  0.882521  0.750033  1
  Ga  Ga5  1  0.118006  0.118646  0.249966  1
  Ga  Ga6  1  0.669241  0.670543  0.437620  1
  Ga  Ga7  1  0.329873  0.329503  0.936885  1
  Ga  Ga8  1  0.669575  0.670023  0.062352  1
  Ga  Ga9  1  0.329437  0.329844  0.563165  1
  Ga  Ga10  1  0.452483  0.663421  0.752692  1
  Ga  Ga11  1  0.546358  0.335755  0.252473  1
  Ga  Ga12  1  0.663308  0.452385  0.747412  1
  Ga  Ga13  1  0.337105  0.547278  0.247457  1
  Ga  Ga14  1  0.003507  0.332168  0.075202  1
  Ga  Ga15  1  0.996414  0.666901  0.576631  1
  Ga  Ga16  1  0.334186  0.004558  0.424803  1
  Ga  Ga17  1  0.666827  0.996363  0.924149  1
  Ga  Ga18  1  0.006931  0.669784  0.923612  1
  Ga  Ga19  1  0.993151  0.329215  0.425090  1
  Ga  Ga20  1  0.669834  0.007047  0.575591  1
  Ga  Ga21  1  0.331343  0.994114  0.074905  1
  Ni  Ni22  1  0.000014  0.000042  0.500198  1
  Ni  Ni23  1  0.000077  0.000093  0.999793  1
  Ni  Ni24  1  0.669388  0.330464  0.500220  1
  Ni  Ni25  1  0.330589  0.669552  0.999864  1
  Ru  Ru26  1  0.326944  0.673203  0.500477  1
  Ru  Ru27  1  0.673050  0.326632  0.999505  1
