# generated using pymatgen
data_Be4MoRu
_symmetry_space_group_name_H-M   'P 1'
_cell_length_a   4.39461400
_cell_length_b   4.39461282
_cell_length_c   7.18771000
_cell_angle_alpha   90.00000000
_cell_angle_beta   90.00000000
_cell_angle_gamma   120.00000889
_symmetry_Int_Tables_number   1
_chemical_formula_structural   Be4MoRu
_chemical_formula_sum   'Be8 Mo2 Ru2'
_cell_volume   120.21606061
_cell_formula_units_Z   2
loop_
 _symmetry_equiv_pos_site_id
 _symmetry_equiv_pos_as_xyz
  1  'x, y, z'
loop_
 _atom_site_type_symbol
 _atom_site_label
 _atom_site_symmetry_multiplicity
 _atom_site_fract_x
 _atom_site_fract_y
 _atom_site_fract_z
 _atom_site_occupancy
  Be  Be0  1  0.000000  0.000000  0.500000  1
  Be  Be1  1  0.000000  0.000000  0.000000  1
  Be  Be2  1  0.661850  0.830924  0.242970  1
  Be  Be3  1  0.169076  0.830924  0.242970  1
  Be  Be4  1  0.169076  0.338150  0.242970  1
  Be  Be5  1  0.338150  0.169076  0.757030  1
  Be  Be6  1  0.830924  0.169076  0.757030  1
  Be  Be7  1  0.830924  0.661850  0.757030  1
  Mo  Mo8  1  0.666667  0.333333  0.438359  1
  Mo  Mo9  1  0.333333  0.666667  0.561641  1
  Ru  Ru10  1  0.333333  0.666667  0.932186  1
  Ru  Ru11  1  0.666667  0.333333  0.067814  1
