# generated using pymatgen
data_La10Sn6PSe
_symmetry_space_group_name_H-M   'P 1'
_cell_length_a   9.63726600
_cell_length_b   9.63726634
_cell_length_c   7.17361100
_cell_angle_alpha   90.00000000
_cell_angle_beta   90.00000000
_cell_angle_gamma   120.00000568
_symmetry_Int_Tables_number   1
_chemical_formula_structural   La10Sn6PSe
_chemical_formula_sum   'La10 Sn6 P1 Se1'
_cell_volume   577.00043087
_cell_formula_units_Z   1
loop_
 _symmetry_equiv_pos_site_id
 _symmetry_equiv_pos_as_xyz
  1  'x, y, z'
loop_
 _atom_site_type_symbol
 _atom_site_label
 _atom_site_symmetry_multiplicity
 _atom_site_fract_x
 _atom_site_fract_y
 _atom_site_fract_z
 _atom_site_occupancy
  La  La0  1  0.245135  0.245135  0.759599  1
  La  La1  1  0.000000  0.754865  0.759599  1
  La  La2  1  0.754865  0.000000  0.759599  1
  La  La3  1  0.000000  0.245135  0.240401  1
  La  La4  1  0.333333  0.666667  0.500000  1
  La  La5  1  0.754865  0.754865  0.240401  1
  La  La6  1  0.666667  0.333333  0.500000  1
  La  La7  1  0.245135  0.000000  0.240401  1
  La  La8  1  0.333333  0.666667  0.000000  1
  La  La9  1  0.666667  0.333333  0.000000  1
  Sn  Sn10  1  0.603411  0.000000  0.250022  1
  Sn  Sn11  1  0.000000  0.396589  0.749978  1
  Sn  Sn12  1  0.396589  0.000000  0.749978  1
  Sn  Sn13  1  0.603411  0.603411  0.749978  1
  Sn  Sn14  1  0.000000  0.603411  0.250022  1
  Sn  Sn15  1  0.396589  0.396589  0.250022  1
  P  P16  1  0.000000  0.000000  0.000000  1
  Se  Se17  1  0.000000  0.000000  0.500000  1
