# generated using pymatgen
data_Ac2Co17Si8Os
_symmetry_space_group_name_H-M   'P 1'
_cell_length_a   8.05616387
_cell_length_b   8.05616458
_cell_length_c   8.02504883
_cell_angle_alpha   121.65649719
_cell_angle_beta   121.15885939
_cell_angle_gamma   87.81003655
_symmetry_Int_Tables_number   1
_chemical_formula_structural   Ac2Co17Si8Os
_chemical_formula_sum   'Ac2 Co17 Si8 Os1'
_cell_volume   359.39299233
_cell_formula_units_Z   1
loop_
 _symmetry_equiv_pos_site_id
 _symmetry_equiv_pos_as_xyz
  1  'x, y, z'
loop_
 _atom_site_type_symbol
 _atom_site_label
 _atom_site_symmetry_multiplicity
 _atom_site_fract_x
 _atom_site_fract_y
 _atom_site_fract_z
 _atom_site_occupancy
  Ac  Ac0  1  0.749306  0.748323  0.000349  1
  Ac  Ac1  1  0.252025  0.251043  0.000349  1
  Co  Co2  1  0.806218  0.310381  0.756326  1
  Co  Co3  1  0.307393  0.549268  0.499355  1
  Co  Co4  1  0.193039  0.691415  0.245316  1
  Co  Co5  1  0.692626  0.449290  0.500536  1
  Co  Co6  1  0.950088  0.191962  0.499355  1
  Co  Co7  1  0.069196  0.195011  0.264206  1
  Co  Co8  1  0.298050  0.428365  0.726414  1
  Co  Co9  1  0.051246  0.807910  0.500536  1
  Co  Co10  1  0.564474  0.301605  0.866079  1
  Co  Co11  1  0.445945  0.950108  0.756326  1
  Co  Co12  1  0.792752  0.078518  0.871270  1
  Co  Co13  1  0.431860  0.701556  0.133417  1
  Co  Co14  1  0.697991  0.565308  0.263299  1
  Co  Co15  1  0.210147  0.930220  0.140367  1
  Co  Co16  1  0.000118  0.495996  0.496114  1
  Co  Co17  1  0.553901  0.052278  0.245316  1
  Co  Co18  1  0.501943  0.001635  0.503579  1
  Si  Si19  1  0.293819  0.785330  0.837371  1
  Si  Si20  1  0.785737  0.955784  0.496759  1
  Si  Si21  1  0.953042  0.452739  0.164930  1
  Si  Si22  1  0.451173  0.286403  0.497026  1
  Si  Si23  1  0.052041  0.543552  0.837371  1
  Si  Si24  1  0.210623  0.045852  0.497026  1
  Si  Si25  1  0.712191  0.211888  0.164930  1
  Si  Si26  1  0.540975  0.711021  0.496759  1
  Os  Os27  1  0.932078  0.807244  0.739322  1
