# generated using pymatgen
data_Mg2Al5GaSi2(BO9)2
_symmetry_space_group_name_H-M   'P 1'
_cell_length_a   5.81667000
_cell_length_b   10.43481800
_cell_length_c   11.10122000
_cell_angle_alpha   90.00000000
_cell_angle_beta   90.00000000
_cell_angle_gamma   90.00000000
_symmetry_Int_Tables_number   1
_chemical_formula_structural   Mg2Al5GaSi2(BO9)2
_chemical_formula_sum   'Mg4 Al10 Ga2 Si4 B4 O36'
_cell_volume   673.79845925
_cell_formula_units_Z   2
loop_
 _symmetry_equiv_pos_site_id
 _symmetry_equiv_pos_as_xyz
  1  'x, y, z'
loop_
 _atom_site_type_symbol
 _atom_site_label
 _atom_site_symmetry_multiplicity
 _atom_site_fract_x
 _atom_site_fract_y
 _atom_site_fract_z
 _atom_site_occupancy
  Mg  Mg0  1  0.250000  0.409145  0.281791  1
  Mg  Mg1  1  0.750000  0.590855  0.718209  1
  Mg  Mg2  1  0.750000  0.908657  0.220311  1
  Mg  Mg3  1  0.250000  0.091343  0.779689  1
  Al  Al4  1  0.000000  0.000000  0.000000  1
  Al  Al5  1  0.000000  0.500000  0.500000  1
  Al  Al6  1  0.500000  0.000000  0.000000  1
  Al  Al7  1  0.500000  0.500000  0.500000  1
  Al  Al8  1  0.000000  0.500000  0.000000  1
  Al  Al9  1  0.000000  0.000000  0.500000  1
  Al  Al10  1  0.500000  0.500000  0.000000  1
  Al  Al11  1  0.500000  0.000000  0.500000  1
  Al  Al12  1  0.750000  0.772958  0.447920  1
  Al  Al13  1  0.250000  0.227042  0.552080  1
  Ga  Ga14  1  0.250000  0.270792  0.054338  1
  Ga  Ga15  1  0.750000  0.729208  0.945662  1
  Si  Si16  1  0.250000  0.065024  0.238712  1
  Si  Si17  1  0.750000  0.934976  0.761288  1
  Si  Si18  1  0.750000  0.566327  0.263329  1
  Si  Si19  1  0.250000  0.433673  0.736671  1
  B  B20  1  0.250000  0.748181  0.002090  1
  B  B21  1  0.750000  0.251819  0.997910  1
  B  B22  1  0.750000  0.248918  0.499620  1
  B  B23  1  0.250000  0.751082  0.500380  1
  O  O24  1  0.250000  0.224286  0.220887  1
  O  O25  1  0.750000  0.775714  0.779113  1
  O  O26  1  0.750000  0.725112  0.288371  1
  O  O27  1  0.250000  0.274888  0.711629  1
  O  O28  1  0.049173  0.678499  0.004474  1
  O  O29  1  0.950827  0.321501  0.995526  1
  O  O30  1  0.954656  0.180824  0.498794  1
  O  O31  1  0.549173  0.321501  0.995526  1
  O  O32  1  0.045344  0.819176  0.501206  1
  O  O33  1  0.450827  0.678499  0.004474  1
  O  O34  1  0.454656  0.819176  0.501206  1
  O  O35  1  0.545344  0.180824  0.498794  1
  O  O36  1  0.250000  0.457071  0.101955  1
  O  O37  1  0.750000  0.542929  0.898045  1
  O  O38  1  0.750000  0.952853  0.400036  1
  O  O39  1  0.250000  0.047147  0.599964  1
  O  O40  1  0.250000  0.381814  0.477378  1
  O  O41  1  0.750000  0.618186  0.522622  1
  O  O42  1  0.750000  0.886478  0.026572  1
  O  O43  1  0.250000  0.113522  0.973428  1
  O  O44  1  0.250000  0.621551  0.496501  1
  O  O45  1  0.750000  0.378449  0.503499  1
  O  O46  1  0.750000  0.122297  0.003515  1
  O  O47  1  0.250000  0.877703  0.996485  1
  O  O48  1  0.023091  0.008245  0.170956  1
  O  O49  1  0.976909  0.991755  0.829044  1
  O  O50  1  0.977228  0.507464  0.329553  1
  O  O51  1  0.523091  0.991755  0.829044  1
  O  O52  1  0.022772  0.492536  0.670447  1
  O  O53  1  0.476909  0.008245  0.170956  1
  O  O54  1  0.477228  0.492536  0.670447  1
  O  O55  1  0.522772  0.507464  0.329553  1
  O  O56  1  0.250000  0.023791  0.381241  1
  O  O57  1  0.750000  0.976209  0.618759  1
  O  O58  1  0.750000  0.525594  0.120141  1
  O  O59  1  0.250000  0.474406  0.879859  1
