# generated using pymatgen
data_Zr3Sc(TcOs)4
_symmetry_space_group_name_H-M   'P 1'
_cell_length_a   5.23334606
_cell_length_b   5.16544737
_cell_length_c   8.80989486
_cell_angle_alpha   89.95033775
_cell_angle_beta   90.01630708
_cell_angle_gamma   120.43077406
_symmetry_Int_Tables_number   1
_chemical_formula_structural   Zr3Sc(TcOs)4
_chemical_formula_sum   'Zr3 Sc1 Tc4 Os4'
_cell_volume   205.34635466
_cell_formula_units_Z   1
loop_
 _symmetry_equiv_pos_site_id
 _symmetry_equiv_pos_as_xyz
  1  'x, y, z'
loop_
 _atom_site_type_symbol
 _atom_site_label
 _atom_site_symmetry_multiplicity
 _atom_site_fract_x
 _atom_site_fract_y
 _atom_site_fract_z
 _atom_site_occupancy
  Zr  Zr0  1  0.333042  0.666033  0.430363  1
  Zr  Zr1  1  0.667415  0.333956  0.565240  1
  Zr  Zr2  1  0.667941  0.334030  0.938771  1
  Sc  Sc3  1  0.333207  0.665432  0.063194  1
  Tc  Tc4  1  0.169627  0.342775  0.750084  1
  Tc  Tc5  1  0.170068  0.828051  0.750097  1
  Tc  Tc6  1  0.340998  0.171780  0.249949  1
  Tc  Tc7  1  0.826759  0.657883  0.250081  1
  Os  Os8  1  0.654080  0.828359  0.749815  1
  Os  Os9  1  0.005460  0.000451  0.000878  1
  Os  Os10  1  0.825885  0.171255  0.250442  1
  Os  Os11  1  0.005519  0.999996  0.501085  1
