# generated using pymatgen
data_LaNb8FeSe16
_symmetry_space_group_name_H-M   'P 1'
_cell_length_a   6.98892100
_cell_length_b   6.98892200
_cell_length_c   13.87198800
_cell_angle_alpha   90.00000000
_cell_angle_beta   90.00000000
_cell_angle_gamma   119.99999999
_symmetry_Int_Tables_number   1
_chemical_formula_structural   LaNb8FeSe16
_chemical_formula_sum   'La1 Nb8 Fe1 Se16'
_cell_volume   586.79940027
_cell_formula_units_Z   1
loop_
 _symmetry_equiv_pos_site_id
 _symmetry_equiv_pos_as_xyz
  1  'x, y, z'
loop_
 _atom_site_type_symbol
 _atom_site_label
 _atom_site_symmetry_multiplicity
 _atom_site_fract_x
 _atom_site_fract_y
 _atom_site_fract_z
 _atom_site_occupancy
  La  La0  1  0.000000  0.000000  0.500000  1
  Nb  Nb1  1  0.000000  0.000000  0.223869  1
  Nb  Nb2  1  0.000000  0.000000  0.776131  1
  Nb  Nb3  1  0.507011  0.014022  0.220746  1
  Nb  Nb4  1  0.985978  0.492989  0.220746  1
  Nb  Nb5  1  0.507011  0.492989  0.220746  1
  Nb  Nb6  1  0.492989  0.985978  0.779254  1
  Nb  Nb7  1  0.014022  0.507011  0.779254  1
  Nb  Nb8  1  0.492989  0.507011  0.779254  1
  Fe  Fe9  1  0.000000  0.000000  0.000000  1
  Se  Se10  1  0.333333  0.666667  0.903449  1
  Se  Se11  1  0.666667  0.333333  0.096551  1
  Se  Se12  1  0.666667  0.333333  0.347457  1
  Se  Se13  1  0.333333  0.666667  0.652543  1
  Se  Se14  1  0.169818  0.830182  0.342688  1
  Se  Se15  1  0.169818  0.339635  0.342688  1
  Se  Se16  1  0.660365  0.830182  0.342688  1
  Se  Se17  1  0.830182  0.169818  0.657312  1
  Se  Se18  1  0.830182  0.660365  0.657312  1
  Se  Se19  1  0.339635  0.169818  0.657312  1
  Se  Se20  1  0.834748  0.165252  0.897442  1
  Se  Se21  1  0.834748  0.669497  0.897442  1
  Se  Se22  1  0.330503  0.165252  0.897442  1
  Se  Se23  1  0.165252  0.834748  0.102558  1
  Se  Se24  1  0.165252  0.330503  0.102558  1
  Se  Se25  1  0.669497  0.834748  0.102558  1
