# generated using pymatgen
data_Gd10Dy2CoTc3
_symmetry_space_group_name_H-M   'P 1'
_cell_length_a   6.25377000
_cell_length_b   7.29418007
_cell_length_c   9.15596300
_cell_angle_alpha   90.00000000
_cell_angle_beta   90.00000000
_cell_angle_gamma   90.18991852
_symmetry_Int_Tables_number   1
_chemical_formula_structural   Gd10Dy2CoTc3
_chemical_formula_sum   'Gd10 Dy2 Co1 Tc3'
_cell_volume   417.65725371
_cell_formula_units_Z   1
loop_
 _symmetry_equiv_pos_site_id
 _symmetry_equiv_pos_as_xyz
  1  'x, y, z'
loop_
 _atom_site_type_symbol
 _atom_site_label
 _atom_site_symmetry_multiplicity
 _atom_site_fract_x
 _atom_site_fract_y
 _atom_site_fract_z
 _atom_site_occupancy
  Gd  Gd0  1  0.331247  0.677567  0.063193  1
  Gd  Gd1  1  0.163684  0.177114  0.438764  1
  Gd  Gd2  1  0.665699  0.325666  0.565434  1
  Gd  Gd3  1  0.832593  0.820816  0.935715  1
  Gd  Gd4  1  0.665699  0.325666  0.934566  1
  Gd  Gd5  1  0.832593  0.820816  0.564285  1
  Gd  Gd6  1  0.331247  0.677567  0.436807  1
  Gd  Gd7  1  0.163684  0.177114  0.061236  1
  Gd  Gd8  1  0.871516  0.541017  0.250000  1
  Gd  Gd9  1  0.623633  0.039953  0.250000  1
  Dy  Dy10  1  0.142462  0.460131  0.750000  1
  Dy  Dy11  1  0.375102  0.953486  0.750000  1
  Co  Co12  1  0.542814  0.614283  0.750000  1
  Tc  Tc13  1  0.038129  0.887499  0.250000  1
  Tc  Tc14  1  0.458472  0.390011  0.250000  1
  Tc  Tc15  1  0.961423  0.111293  0.750000  1
