# generated using pymatgen
data_TbCe3Sn2PdRh3
_symmetry_space_group_name_H-M   'P 1'
_cell_length_a   7.63896994
_cell_length_b   7.63897019
_cell_length_c   3.78198300
_cell_angle_alpha   90.00000000
_cell_angle_beta   90.00000000
_cell_angle_gamma   91.74054505
_symmetry_Int_Tables_number   1
_chemical_formula_structural   TbCe3Sn2PdRh3
_chemical_formula_sum   'Tb1 Ce3 Sn2 Pd1 Rh3'
_cell_volume   220.59149626
_cell_formula_units_Z   1
loop_
 _symmetry_equiv_pos_site_id
 _symmetry_equiv_pos_as_xyz
  1  'x, y, z'
loop_
 _atom_site_type_symbol
 _atom_site_label
 _atom_site_symmetry_multiplicity
 _atom_site_fract_x
 _atom_site_fract_y
 _atom_site_fract_z
 _atom_site_occupancy
  Tb  Tb0  1  0.169011  0.330989  0.500000  1
  Ce  Ce1  1  0.684008  0.172487  0.500000  1
  Ce  Ce2  1  0.327513  0.815992  0.500000  1
  Ce  Ce3  1  0.824223  0.675777  0.500000  1
  Sn  Sn4  1  0.003118  0.003039  0.000000  1
  Sn  Sn5  1  0.496961  0.496882  0.000000  1
  Pd  Pd6  1  0.374047  0.125953  0.000000  1
  Rh  Rh7  1  0.130159  0.643743  0.000000  1
  Rh  Rh8  1  0.856257  0.369841  0.000000  1
  Rh  Rh9  1  0.634702  0.865298  0.000000  1
