# generated using pymatgen
data_Nd2Zr2ScGa4
_symmetry_space_group_name_H-M   'P 1'
_cell_length_a   7.33830300
_cell_length_b   7.72886300
_cell_length_c   14.71856400
_cell_angle_alpha   90.00000000
_cell_angle_beta   90.00000000
_cell_angle_gamma   90.00000000
_symmetry_Int_Tables_number   1
_chemical_formula_structural   Nd2Zr2ScGa4
_chemical_formula_sum   'Nd8 Zr8 Sc4 Ga16'
_cell_volume   834.78894606
_cell_formula_units_Z   4
loop_
 _symmetry_equiv_pos_site_id
 _symmetry_equiv_pos_as_xyz
  1  'x, y, z'
loop_
 _atom_site_type_symbol
 _atom_site_label
 _atom_site_symmetry_multiplicity
 _atom_site_fract_x
 _atom_site_fract_y
 _atom_site_fract_z
 _atom_site_occupancy
  Nd  Nd0  1  0.009149  0.173844  0.094924  1
  Nd  Nd1  1  0.990851  0.826156  0.905076  1
  Nd  Nd2  1  0.490851  0.673844  0.905076  1
  Nd  Nd3  1  0.990851  0.826156  0.594924  1
  Nd  Nd4  1  0.509149  0.326156  0.094924  1
  Nd  Nd5  1  0.009149  0.173844  0.405076  1
  Nd  Nd6  1  0.509149  0.326156  0.405076  1
  Nd  Nd7  1  0.490851  0.673844  0.594924  1
  Zr  Zr8  1  0.328134  0.174922  0.624372  1
  Zr  Zr9  1  0.671866  0.825078  0.375628  1
  Zr  Zr10  1  0.171866  0.674922  0.375628  1
  Zr  Zr11  1  0.671866  0.825078  0.124372  1
  Zr  Zr12  1  0.828134  0.325078  0.624372  1
  Zr  Zr13  1  0.328134  0.174922  0.875628  1
  Zr  Zr14  1  0.828134  0.325078  0.875628  1
  Zr  Zr15  1  0.171866  0.674922  0.124372  1
  Sc  Sc16  1  0.161059  0.501470  0.750000  1
  Sc  Sc17  1  0.838941  0.498530  0.250000  1
  Sc  Sc18  1  0.338941  0.001470  0.250000  1
  Sc  Sc19  1  0.661059  0.998530  0.750000  1
  Ga  Ga20  1  0.030619  0.125239  0.750000  1
  Ga  Ga21  1  0.969381  0.874761  0.250000  1
  Ga  Ga22  1  0.469381  0.625239  0.250000  1
  Ga  Ga23  1  0.530619  0.374761  0.750000  1
  Ga  Ga24  1  0.287688  0.880759  0.750000  1
  Ga  Ga25  1  0.712312  0.119241  0.250000  1
  Ga  Ga26  1  0.212312  0.380759  0.250000  1
  Ga  Ga27  1  0.787688  0.619241  0.750000  1
  Ga  Ga28  1  0.158002  0.458163  0.539855  1
  Ga  Ga29  1  0.841998  0.541837  0.460145  1
  Ga  Ga30  1  0.341998  0.958163  0.460145  1
  Ga  Ga31  1  0.841998  0.541837  0.039855  1
  Ga  Ga32  1  0.658002  0.041837  0.539855  1
  Ga  Ga33  1  0.158002  0.458163  0.960145  1
  Ga  Ga34  1  0.658002  0.041837  0.960145  1
  Ga  Ga35  1  0.341998  0.958163  0.039855  1
