# generated using pymatgen
data_Sr2CrIO4
_symmetry_space_group_name_H-M   'P 1'
_cell_length_a   6.64867100
_cell_length_b   7.65367900
_cell_length_c   11.86923000
_cell_angle_alpha   90.00000000
_cell_angle_beta   90.00000000
_cell_angle_gamma   90.00000000
_symmetry_Int_Tables_number   1
_chemical_formula_structural   Sr2CrIO4
_chemical_formula_sum   'Sr8 Cr4 I4 O16'
_cell_volume   603.98705733
_cell_formula_units_Z   4
loop_
 _symmetry_equiv_pos_site_id
 _symmetry_equiv_pos_as_xyz
  1  'x, y, z'
loop_
 _atom_site_type_symbol
 _atom_site_label
 _atom_site_symmetry_multiplicity
 _atom_site_fract_x
 _atom_site_fract_y
 _atom_site_fract_z
 _atom_site_occupancy
  Sr  Sr0  1  0.619854  0.250000  0.000000  1
  Sr  Sr1  1  0.380146  0.750000  0.000000  1
  Sr  Sr2  1  0.380146  0.750000  0.500000  1
  Sr  Sr3  1  0.619854  0.250000  0.500000  1
  Sr  Sr4  1  0.096102  0.031939  0.250000  1
  Sr  Sr5  1  0.903898  0.968061  0.750000  1
  Sr  Sr6  1  0.903898  0.531939  0.250000  1
  Sr  Sr7  1  0.096102  0.468061  0.750000  1
  Cr  Cr8  1  0.116863  0.250000  0.000000  1
  Cr  Cr9  1  0.883137  0.750000  0.000000  1
  Cr  Cr10  1  0.883137  0.750000  0.500000  1
  Cr  Cr11  1  0.116863  0.250000  0.500000  1
  I  I12  1  0.417635  0.409835  0.250000  1
  I  I13  1  0.582365  0.590165  0.750000  1
  I  I14  1  0.582365  0.909835  0.250000  1
  I  I15  1  0.417635  0.090165  0.750000  1
  O  O16  1  0.045951  0.766219  0.115399  1
  O  O17  1  0.954049  0.233781  0.884601  1
  O  O18  1  0.954049  0.233781  0.615399  1
  O  O19  1  0.954049  0.266219  0.384601  1
  O  O20  1  0.045951  0.766219  0.384601  1
  O  O21  1  0.045951  0.733781  0.615399  1
  O  O22  1  0.045951  0.733781  0.884601  1
  O  O23  1  0.954049  0.266219  0.115399  1
  O  O24  1  0.274224  0.079610  0.034143  1
  O  O25  1  0.725776  0.920390  0.965857  1
  O  O26  1  0.725776  0.920390  0.534143  1
  O  O27  1  0.725776  0.579610  0.465857  1
  O  O28  1  0.274224  0.079610  0.465857  1
  O  O29  1  0.274224  0.420390  0.534143  1
  O  O30  1  0.274224  0.420390  0.965857  1
  O  O31  1  0.725776  0.579610  0.034143  1
