# generated using pymatgen
data_Rb4Ir2O9
_symmetry_space_group_name_H-M   'P 1'
_cell_length_a   6.38572507
_cell_length_b   6.38572485
_cell_length_c   16.59932305
_cell_angle_alpha   89.77464025
_cell_angle_beta   89.77464123
_cell_angle_gamma   119.82191075
_symmetry_Int_Tables_number   1
_chemical_formula_structural   Rb4Ir2O9
_chemical_formula_sum   'Rb8 Ir4 O18'
_cell_volume   587.22512495
_cell_formula_units_Z   2
loop_
 _symmetry_equiv_pos_site_id
 _symmetry_equiv_pos_as_xyz
  1  'x, y, z'
loop_
 _atom_site_type_symbol
 _atom_site_label
 _atom_site_symmetry_multiplicity
 _atom_site_fract_x
 _atom_site_fract_y
 _atom_site_fract_z
 _atom_site_occupancy
  Rb  Rb0  1  0.989472  0.010528  0.250000  1
  Rb  Rb1  1  0.010528  0.989472  0.750000  1
  Rb  Rb2  1  0.321133  0.654863  0.123835  1
  Rb  Rb3  1  0.678867  0.345137  0.876165  1
  Rb  Rb4  1  0.654863  0.321133  0.623835  1
  Rb  Rb5  1  0.345137  0.678867  0.376165  1
  Rb  Rb6  1  0.000000  0.000000  0.000000  1
  Rb  Rb7  1  0.000000  0.000000  0.500000  1
  Ir  Ir8  1  0.689797  0.359495  0.336223  1
  Ir  Ir9  1  0.310203  0.640505  0.663777  1
  Ir  Ir10  1  0.359495  0.689797  0.836223  1
  Ir  Ir11  1  0.640505  0.310203  0.163777  1
  O  O12  1  0.665401  0.853564  0.878640  1
  O  O13  1  0.533937  0.466063  0.250000  1
  O  O14  1  0.143972  0.766031  0.610685  1
  O  O15  1  0.536723  0.076613  0.259543  1
  O  O16  1  0.233969  0.856028  0.889315  1
  O  O17  1  0.923387  0.463277  0.240457  1
  O  O18  1  0.334599  0.146436  0.121360  1
  O  O19  1  0.856028  0.233969  0.389315  1
  O  O20  1  0.463277  0.923387  0.740457  1
  O  O21  1  0.466063  0.533937  0.750000  1
  O  O22  1  0.853564  0.665401  0.378640  1
  O  O23  1  0.765590  0.577984  0.098061  1
  O  O24  1  0.577984  0.765590  0.598061  1
  O  O25  1  0.234410  0.422016  0.901939  1
  O  O26  1  0.076613  0.536723  0.759543  1
  O  O27  1  0.422016  0.234410  0.401939  1
  O  O28  1  0.146436  0.334599  0.621360  1
  O  O29  1  0.766031  0.143972  0.110685  1
