# generated using pymatgen
data_RbBa(AsPt)2
_symmetry_space_group_name_H-M   'P 1'
_cell_length_a   6.82255426
_cell_length_b   6.84655600
_cell_length_c   6.82927515
_cell_angle_alpha   90.00000000
_cell_angle_beta   89.67646638
_cell_angle_gamma   90.00000000
_symmetry_Int_Tables_number   1
_chemical_formula_structural   RbBa(AsPt)2
_chemical_formula_sum   'Rb2 Ba2 As4 Pt4'
_cell_volume   318.99718452
_cell_formula_units_Z   2
loop_
 _symmetry_equiv_pos_site_id
 _symmetry_equiv_pos_as_xyz
  1  'x, y, z'
loop_
 _atom_site_type_symbol
 _atom_site_label
 _atom_site_symmetry_multiplicity
 _atom_site_fract_x
 _atom_site_fract_y
 _atom_site_fract_z
 _atom_site_occupancy
  Rb  Rb0  1  0.620299  0.375653  0.871335  1
  Rb  Rb1  1  0.379701  0.875653  0.628665  1
  Ba  Ba2  1  0.126226  0.121035  0.116778  1
  Ba  Ba3  1  0.873774  0.621035  0.383222  1
  As  As4  1  0.157494  0.341529  0.660805  1
  As  As5  1  0.662489  0.163160  0.337658  1
  As  As6  1  0.337511  0.663160  0.162342  1
  As  As7  1  0.842506  0.841529  0.839195  1
  Pt  Pt8  1  0.602249  0.900411  0.102436  1
  Pt  Pt9  1  0.096725  0.598211  0.905339  1
  Pt  Pt10  1  0.397751  0.400411  0.397564  1
  Pt  Pt11  1  0.903275  0.098211  0.594661  1
