# generated using pymatgen
data_Tm4Ga2Sb4Rh7
_symmetry_space_group_name_H-M   'P 1'
_cell_length_a   7.47242407
_cell_length_b   7.47242273
_cell_length_c   7.45682058
_cell_angle_alpha   109.30509154
_cell_angle_beta   109.30509576
_cell_angle_gamma   109.88808593
_symmetry_Int_Tables_number   1
_chemical_formula_structural   Tm4Ga2Sb4Rh7
_chemical_formula_sum   'Tm4 Ga2 Sb4 Rh7'
_cell_volume   320.17628647
_cell_formula_units_Z   1
loop_
 _symmetry_equiv_pos_site_id
 _symmetry_equiv_pos_as_xyz
  1  'x, y, z'
loop_
 _atom_site_type_symbol
 _atom_site_label
 _atom_site_symmetry_multiplicity
 _atom_site_fract_x
 _atom_site_fract_y
 _atom_site_fract_z
 _atom_site_occupancy
  Tm  Tm0  1  0.524616  0.008943  0.000000  1
  Tm  Tm1  1  0.991057  0.475384  0.000000  1
  Tm  Tm2  1  0.991410  0.008590  0.500000  1
  Tm  Tm3  1  0.491410  0.508590  0.500000  1
  Ga  Ga4  1  0.001046  0.321025  0.322071  1
  Ga  Ga5  1  0.678975  0.998954  0.677929  1
  Sb  Sb6  1  0.687802  0.686346  0.000000  1
  Sb  Sb7  1  0.000681  0.684403  0.685084  1
  Sb  Sb8  1  0.315597  0.999319  0.314916  1
  Sb  Sb9  1  0.313654  0.312198  0.000000  1
  Rh  Rh10  1  0.990842  0.009158  0.000000  1
  Rh  Rh11  1  0.503318  0.751861  0.255179  1
  Rh  Rh12  1  0.752417  0.496485  0.248901  1
  Rh  Rh13  1  0.252762  0.747238  0.500000  1
  Rh  Rh14  1  0.248139  0.496682  0.744821  1
  Rh  Rh15  1  0.503515  0.247583  0.751099  1
  Rh  Rh16  1  0.752762  0.247238  0.500000  1
