# generated using pymatgen
data_La7Nd6ThRh6
_symmetry_space_group_name_H-M   'P 1'
_cell_length_a   6.50570001
_cell_length_b   10.16158943
_cell_length_c   10.16159017
_cell_angle_alpha   119.97846009
_cell_angle_beta   90.00479161
_cell_angle_gamma   89.99520872
_symmetry_Int_Tables_number   1
_chemical_formula_structural   La7Nd6ThRh6
_chemical_formula_sum   'La7 Nd6 Th1 Rh6'
_cell_volume   581.89175630
_cell_formula_units_Z   1
loop_
 _symmetry_equiv_pos_site_id
 _symmetry_equiv_pos_as_xyz
  1  'x, y, z'
loop_
 _atom_site_type_symbol
 _atom_site_label
 _atom_site_symmetry_multiplicity
 _atom_site_fract_x
 _atom_site_fract_y
 _atom_site_fract_z
 _atom_site_occupancy
  La  La0  1  0.972305  0.666711  0.333289  1
  La  La1  1  0.250848  0.126673  0.873327  1
  La  La2  1  0.250822  0.746659  0.873331  1
  La  La3  1  0.250822  0.126669  0.253341  1
  La  La4  1  0.750669  0.873543  0.126457  1
  La  La5  1  0.750462  0.252905  0.126415  1
  La  La6  1  0.750462  0.873585  0.747095  1
  Nd  Nd7  1  0.438436  0.539247  0.460753  1
  Nd  Nd8  1  0.438374  0.921574  0.460842  1
  Nd  Nd9  1  0.438374  0.539158  0.078426  1
  Nd  Nd10  1  0.943497  0.458305  0.541695  1
  Nd  Nd11  1  0.943457  0.083323  0.541622  1
  Nd  Nd12  1  0.943457  0.458378  0.916677  1
  Th  Th13  1  0.476776  0.333329  0.666671  1
  Rh  Rh14  1  0.183402  0.810777  0.189223  1
  Rh  Rh15  1  0.184286  0.378434  0.189176  1
  Rh  Rh16  1  0.184286  0.810824  0.621566  1
  Rh  Rh17  1  0.678328  0.192415  0.807585  1
  Rh  Rh18  1  0.678465  0.615016  0.807526  1
  Rh  Rh19  1  0.678465  0.192474  0.384984  1
