# generated using pymatgen
data_CeTh3(CoB10)2
_symmetry_space_group_name_H-M   'P 1'
_cell_length_a   4.17630200
_cell_length_b   5.61244760
_cell_length_c   11.20712420
_cell_angle_alpha   90.05305576
_cell_angle_beta   90.00000000
_cell_angle_gamma   90.00000000
_symmetry_Int_Tables_number   1
_chemical_formula_structural   CeTh3(CoB10)2
_chemical_formula_sum   'Ce1 Th3 Co2 B20'
_cell_volume   262.68676630
_cell_formula_units_Z   1
loop_
 _symmetry_equiv_pos_site_id
 _symmetry_equiv_pos_as_xyz
  1  'x, y, z'
loop_
 _atom_site_type_symbol
 _atom_site_label
 _atom_site_symmetry_multiplicity
 _atom_site_fract_x
 _atom_site_fract_y
 _atom_site_fract_z
 _atom_site_occupancy
  Ce  Ce0  1  0.500000  0.303375  0.864748  1
  Th  Th1  1  0.500000  0.698078  0.132795  1
  Th  Th2  1  0.500000  0.802145  0.636206  1
  Th  Th3  1  0.500000  0.198332  0.365694  1
  Co  Co4  1  0.000000  0.499573  0.500040  1
  Co  Co5  1  0.000000  0.999555  0.000053  1
  B  B6  1  0.000000  0.126913  0.540408  1
  B  B7  1  0.000000  0.873009  0.460134  1
  B  B8  1  0.000000  0.625795  0.959429  1
  B  B9  1  0.000000  0.372259  0.039204  1
  B  B10  1  0.000000  0.153214  0.697950  1
  B  B11  1  0.000000  0.847443  0.302710  1
  B  B12  1  0.300165  0.200862  0.112926  1
  B  B13  1  0.300190  0.798833  0.886707  1
  B  B14  1  0.699907  0.701174  0.386611  1
  B  B15  1  0.699894  0.298541  0.613956  1
  B  B16  1  0.699810  0.798833  0.886707  1
  B  B17  1  0.699835  0.200862  0.112926  1
  B  B18  1  0.300106  0.298541  0.613956  1
  B  B19  1  0.300093  0.701174  0.386611  1
  B  B20  1  0.000000  0.034814  0.187061  1
  B  B21  1  0.000000  0.966330  0.813407  1
  B  B22  1  0.000000  0.534845  0.312652  1
  B  B23  1  0.000000  0.465359  0.687428  1
  B  B24  1  0.000000  0.347483  0.196752  1
  B  B25  1  0.000000  0.652660  0.802929  1
