# generated using pymatgen
data_Lu12Tc2IrRu
_symmetry_space_group_name_H-M   'P 1'
_cell_length_a   6.14437311
_cell_length_b   7.32407014
_cell_length_c   8.87432500
_cell_angle_alpha   90.00000000
_cell_angle_beta   90.00000000
_cell_angle_gamma   89.93353626
_symmetry_Int_Tables_number   1
_chemical_formula_structural   Lu12Tc2IrRu
_chemical_formula_sum   'Lu12 Tc2 Ir1 Ru1'
_cell_volume   399.36050447
_cell_formula_units_Z   1
loop_
 _symmetry_equiv_pos_site_id
 _symmetry_equiv_pos_as_xyz
  1  'x, y, z'
loop_
 _atom_site_type_symbol
 _atom_site_label
 _atom_site_symmetry_multiplicity
 _atom_site_fract_x
 _atom_site_fract_y
 _atom_site_fract_z
 _atom_site_occupancy
  Lu  Lu0  1  0.337794  0.675322  0.061619  1
  Lu  Lu1  1  0.160416  0.177040  0.439027  1
  Lu  Lu2  1  0.659861  0.324836  0.562384  1
  Lu  Lu3  1  0.837149  0.823837  0.936837  1
  Lu  Lu4  1  0.659861  0.324836  0.937616  1
  Lu  Lu5  1  0.837149  0.823837  0.563163  1
  Lu  Lu6  1  0.337794  0.675322  0.438381  1
  Lu  Lu7  1  0.160416  0.177040  0.060973  1
  Lu  Lu8  1  0.874050  0.539678  0.250000  1
  Lu  Lu9  1  0.627103  0.040530  0.250000  1
  Lu  Lu10  1  0.129465  0.459423  0.750000  1
  Lu  Lu11  1  0.375843  0.958021  0.750000  1
  Tc  Tc12  1  0.460877  0.383365  0.250000  1
  Tc  Tc13  1  0.962380  0.116136  0.750000  1
  Ir  Ir14  1  0.040397  0.881894  0.250000  1
  Ru  Ru15  1  0.539442  0.618883  0.750000  1
