# generated using pymatgen
data_Y2ErSn3HgIr2
_symmetry_space_group_name_H-M   'P 1'
_cell_length_a   7.60383103
_cell_length_b   7.62639417
_cell_length_c   4.02515800
_cell_angle_alpha   90.00000000
_cell_angle_beta   90.00000000
_cell_angle_gamma   119.96164372
_symmetry_Int_Tables_number   1
_chemical_formula_structural   Y2ErSn3HgIr2
_chemical_formula_sum   'Y2 Er1 Sn3 Hg1 Ir2'
_cell_volume   202.22413941
_cell_formula_units_Z   1
loop_
 _symmetry_equiv_pos_site_id
 _symmetry_equiv_pos_as_xyz
  1  'x, y, z'
loop_
 _atom_site_type_symbol
 _atom_site_label
 _atom_site_symmetry_multiplicity
 _atom_site_fract_x
 _atom_site_fract_y
 _atom_site_fract_z
 _atom_site_occupancy
  Y  Y0  1  0.389237  0.410649  0.500000  1
  Y  Y1  1  0.588896  0.978533  0.500000  1
  Er  Er2  1  0.024223  0.613052  0.500000  1
  Sn  Sn3  1  0.745307  0.751787  0.000000  1
  Sn  Sn4  1  0.247501  0.992299  0.000000  1
  Sn  Sn5  1  0.007004  0.254549  0.000000  1
  Hg  Hg6  1  0.668513  0.334889  0.000000  1
  Ir  Ir7  1  0.329387  0.665803  0.000000  1
  Ir  Ir8  1  0.999931  0.998440  0.500000  1
