# generated using pymatgen
data_Ce3Y(Co3Si5)2
_symmetry_space_group_name_H-M   'P 1'
_cell_length_a   7.96332928
_cell_length_b   7.95074325
_cell_length_c   7.95074381
_cell_angle_alpha   138.56100633
_cell_angle_beta   105.16119846
_cell_angle_gamma   89.33581465
_symmetry_Int_Tables_number   1
_chemical_formula_structural   Ce3Y(Co3Si5)2
_chemical_formula_sum   'Ce3 Y1 Co6 Si10'
_cell_volume   307.86260764
_cell_formula_units_Z   1
loop_
 _symmetry_equiv_pos_site_id
 _symmetry_equiv_pos_as_xyz
  1  'x, y, z'
loop_
 _atom_site_type_symbol
 _atom_site_label
 _atom_site_symmetry_multiplicity
 _atom_site_fract_x
 _atom_site_fract_y
 _atom_site_fract_z
 _atom_site_occupancy
  Ce  Ce0  1  0.132536  0.367297  0.765239  1
  Ce  Ce1  1  0.395988  0.132192  0.263795  1
  Ce  Ce2  1  0.604207  0.868602  0.735605  1
  Y  Y3  1  0.866827  0.631244  0.235583  1
  Co  Co4  1  0.999897  0.750483  0.751304  1
  Co  Co5  1  0.999897  0.248593  0.249414  1
  Co  Co6  1  0.251126  0.864328  0.386798  1
  Co  Co7  1  0.749981  0.135766  0.614215  1
  Co  Co8  1  0.477651  0.363968  0.113683  1
  Co  Co9  1  0.521809  0.637047  0.884761  1
  Si  Si10  1  0.502175  0.751200  0.249858  1
  Si  Si11  1  0.502175  0.252317  0.750975  1
  Si  Si12  1  0.231909  0.980968  0.748007  1
  Si  Si13  1  0.766251  0.514778  0.749562  1
  Si  Si14  1  0.766251  0.016690  0.251474  1
  Si  Si15  1  0.231909  0.483902  0.250941  1
  Si  Si16  1  0.046562  0.895461  0.151100  1
  Si  Si17  1  0.952312  0.103973  0.848340  1
  Si  Si18  1  0.747039  0.397730  0.349309  1
  Si  Si19  1  0.253498  0.603461  0.650037  1
