# generated using pymatgen
data_Hf16Fe3Pd5N4
_symmetry_space_group_name_H-M   'P 1'
_cell_length_a   8.64746026
_cell_length_b   8.64746029
_cell_length_c   8.64746072
_cell_angle_alpha   60.14023078
_cell_angle_beta   60.14023078
_cell_angle_gamma   60.14023012
_symmetry_Int_Tables_number   1
_chemical_formula_structural   Hf16Fe3Pd5N4
_chemical_formula_sum   'Hf16 Fe3 Pd5 N4'
_cell_volume   458.69935041
_cell_formula_units_Z   1
loop_
 _symmetry_equiv_pos_site_id
 _symmetry_equiv_pos_as_xyz
  1  'x, y, z'
loop_
 _atom_site_type_symbol
 _atom_site_label
 _atom_site_symmetry_multiplicity
 _atom_site_fract_x
 _atom_site_fract_y
 _atom_site_fract_z
 _atom_site_occupancy
  Hf  Hf0  1  0.145854  0.621858  0.621858  1
  Hf  Hf1  1  0.621858  0.145854  0.621858  1
  Hf  Hf2  1  0.621858  0.621858  0.145854  1
  Hf  Hf3  1  0.614328  0.614328  0.614328  1
  Hf  Hf4  1  0.815118  0.815118  0.185978  1
  Hf  Hf5  1  0.184909  0.184909  0.816730  1
  Hf  Hf6  1  0.815118  0.185978  0.815118  1
  Hf  Hf7  1  0.184909  0.816730  0.184909  1
  Hf  Hf8  1  0.185978  0.815118  0.815118  1
  Hf  Hf9  1  0.816730  0.184909  0.184909  1
  Hf  Hf10  1  0.431373  0.431373  0.058013  1
  Hf  Hf11  1  0.067289  0.067289  0.432094  1
  Hf  Hf12  1  0.431373  0.058013  0.431373  1
  Hf  Hf13  1  0.067289  0.432094  0.067289  1
  Hf  Hf14  1  0.058013  0.431373  0.431373  1
  Hf  Hf15  1  0.432094  0.067289  0.067289  1
  Fe  Fe16  1  0.783956  0.405134  0.405134  1
  Fe  Fe17  1  0.405134  0.783956  0.405134  1
  Fe  Fe18  1  0.405134  0.405134  0.783956  1
  Pd  Pd19  1  0.408682  0.408682  0.408682  1
  Pd  Pd20  1  0.491035  0.836200  0.836200  1
  Pd  Pd21  1  0.836200  0.491035  0.836200  1
  Pd  Pd22  1  0.836200  0.836200  0.491035  1
  Pd  Pd23  1  0.838071  0.838071  0.838071  1
  N  N24  1  0.624940  0.125942  0.125942  1
  N  N25  1  0.125942  0.624940  0.125942  1
  N  N26  1  0.125942  0.125942  0.624940  1
  N  N27  1  0.124673  0.124673  0.124673  1
