# generated using pymatgen
data_Li4Nd2TmLuSi6
_symmetry_space_group_name_H-M   'P 1'
_cell_length_a   9.27911148
_cell_length_b   9.27911176
_cell_length_c   6.80267700
_cell_angle_alpha   90.00000000
_cell_angle_beta   90.00000000
_cell_angle_gamma   153.31329142
_symmetry_Int_Tables_number   1
_chemical_formula_structural   Li4Nd2TmLuSi6
_chemical_formula_sum   'Li4 Nd2 Tm1 Lu1 Si6'
_cell_volume   263.05530179
_cell_formula_units_Z   1
loop_
 _symmetry_equiv_pos_site_id
 _symmetry_equiv_pos_as_xyz
  1  'x, y, z'
loop_
 _atom_site_type_symbol
 _atom_site_label
 _atom_site_symmetry_multiplicity
 _atom_site_fract_x
 _atom_site_fract_y
 _atom_site_fract_z
 _atom_site_occupancy
  Li  Li0  1  0.190886  0.809114  0.059681  1
  Li  Li1  1  0.190886  0.809114  0.440319  1
  Li  Li2  1  0.808974  0.191026  0.940025  1
  Li  Li3  1  0.808974  0.191026  0.559975  1
  Nd  Nd4  1  0.554335  0.445665  0.250000  1
  Nd  Nd5  1  0.445848  0.554152  0.750000  1
  Tm  Tm6  1  0.344335  0.655665  0.250000  1
  Lu  Lu7  1  0.655612  0.344388  0.750000  1
  Si  Si8  1  0.724317  0.275683  0.250000  1
  Si  Si9  1  0.275430  0.724570  0.750000  1
  Si  Si10  1  0.060151  0.939849  0.924835  1
  Si  Si11  1  0.940050  0.059950  0.074970  1
  Si  Si12  1  0.940050  0.059950  0.425030  1
  Si  Si13  1  0.060151  0.939849  0.575165  1
