# generated using pymatgen
data_Tb3Y9InCo4Os
_symmetry_space_group_name_H-M   'P 1'
_cell_length_a   8.34905685
_cell_length_b   8.35027525
_cell_length_c   8.34905514
_cell_angle_alpha   111.44557213
_cell_angle_beta   110.28258772
_cell_angle_gamma   106.71652806
_symmetry_Int_Tables_number   1
_chemical_formula_structural   Tb3Y9InCo4Os
_chemical_formula_sum   'Tb3 Y9 In1 Co4 Os1'
_cell_volume   447.29053451
_cell_formula_units_Z   1
loop_
 _symmetry_equiv_pos_site_id
 _symmetry_equiv_pos_as_xyz
  1  'x, y, z'
loop_
 _atom_site_type_symbol
 _atom_site_label
 _atom_site_symmetry_multiplicity
 _atom_site_fract_x
 _atom_site_fract_y
 _atom_site_fract_z
 _atom_site_occupancy
  Tb  Tb0  1  0.684755  0.378349  0.693595  1
  Tb  Tb1  1  0.315216  0.008506  0.693289  1
  Tb  Tb2  1  0.684629  0.991123  0.306495  1
  Y  Y3  1  0.411151  0.218197  0.192836  1
  Y  Y4  1  0.588955  0.781837  0.807033  1
  Y  Y5  1  0.025361  0.218197  0.807045  1
  Y  Y6  1  0.974804  0.781837  0.192883  1
  Y  Y7  1  0.181645  0.283040  0.464456  1
  Y  Y8  1  0.818270  0.717015  0.535471  1
  Y  Y9  1  0.181544  0.717015  0.898746  1
  Y  Y10  1  0.818583  0.283040  0.101393  1
  Y  Y11  1  0.315154  0.620775  0.305620  1
  In  In12  1  0.499911  0.500060  0.000148  1
  Co  Co13  1  0.378875  0.000470  0.378933  1
  Co  Co14  1  0.621537  0.000470  0.621596  1
  Co  Co15  1  0.110664  0.611074  0.500409  1
  Co  Co16  1  0.888889  0.388851  0.499962  1
  Os  Os17  1  0.000054  0.000145  0.000091  1
