# generated using pymatgen
data_Y4AlIr6Ru
_symmetry_space_group_name_H-M   'P 1'
_cell_length_a   5.47287300
_cell_length_b   5.47287407
_cell_length_c   8.37262600
_cell_angle_alpha   90.00000000
_cell_angle_beta   90.00000000
_cell_angle_gamma   119.99999956
_symmetry_Int_Tables_number   1
_chemical_formula_structural   Y4AlIr6Ru
_chemical_formula_sum   'Y4 Al1 Ir6 Ru1'
_cell_volume   217.18166153
_cell_formula_units_Z   1
loop_
 _symmetry_equiv_pos_site_id
 _symmetry_equiv_pos_as_xyz
  1  'x, y, z'
loop_
 _atom_site_type_symbol
 _atom_site_label
 _atom_site_symmetry_multiplicity
 _atom_site_fract_x
 _atom_site_fract_y
 _atom_site_fract_z
 _atom_site_occupancy
  Y  Y0  1  0.333333  0.666667  0.439257  1
  Y  Y1  1  0.666667  0.333333  0.560743  1
  Y  Y2  1  0.666667  0.333333  0.930688  1
  Y  Y3  1  0.333333  0.666667  0.069312  1
  Al  Al4  1  0.000000  0.000000  0.000000  1
  Ir  Ir5  1  0.169694  0.339389  0.753100  1
  Ir  Ir6  1  0.169694  0.830306  0.753100  1
  Ir  Ir7  1  0.339389  0.169694  0.246900  1
  Ir  Ir8  1  0.830306  0.660611  0.246900  1
  Ir  Ir9  1  0.660611  0.830306  0.753100  1
  Ir  Ir10  1  0.830306  0.169694  0.246900  1
  Ru  Ru11  1  0.000000  0.000000  0.500000  1
