# generated using pymatgen
data_Gd4Lu(TcO6)2
_symmetry_space_group_name_H-M   'P 1'
_cell_length_a   6.87146999
_cell_length_b   6.87147050
_cell_length_c   7.54621986
_cell_angle_alpha   73.71195675
_cell_angle_beta   73.71195455
_cell_angle_gamma   49.04523210
_symmetry_Int_Tables_number   1
_chemical_formula_structural   Gd4Lu(TcO6)2
_chemical_formula_sum   'Gd4 Lu1 Tc2 O12'
_cell_volume   255.98996643
_cell_formula_units_Z   1
loop_
 _symmetry_equiv_pos_site_id
 _symmetry_equiv_pos_as_xyz
  1  'x, y, z'
loop_
 _atom_site_type_symbol
 _atom_site_label
 _atom_site_symmetry_multiplicity
 _atom_site_fract_x
 _atom_site_fract_y
 _atom_site_fract_z
 _atom_site_occupancy
  Gd  Gd0  1  0.695189  0.695189  0.642774  1
  Gd  Gd1  1  0.304811  0.304811  0.357226  1
  Gd  Gd2  1  0.682766  0.682766  0.176670  1
  Gd  Gd3  1  0.317234  0.317234  0.823330  1
  Lu  Lu4  1  0.000000  0.000000  0.500000  1
  Tc  Tc5  1  0.786779  0.213221  0.000000  1
  Tc  Tc6  1  0.213221  0.786779  0.000000  1
  O  O7  1  0.001546  0.001546  0.205942  1
  O  O8  1  0.998454  0.998454  0.794058  1
  O  O9  1  0.586305  0.086375  0.084024  1
  O  O10  1  0.413695  0.913625  0.915976  1
  O  O11  1  0.913625  0.413695  0.915976  1
  O  O12  1  0.086375  0.586305  0.084024  1
  O  O13  1  0.498394  0.498394  0.174906  1
  O  O14  1  0.501606  0.501606  0.825094  1
  O  O15  1  0.396407  0.901442  0.429633  1
  O  O16  1  0.603593  0.098558  0.570367  1
  O  O17  1  0.098558  0.603593  0.570367  1
  O  O18  1  0.901442  0.396407  0.429633  1
