# generated using pymatgen
data_Tb4YHo5(CoBi2)2
_symmetry_space_group_name_H-M   'P 1'
_cell_length_a   8.02003100
_cell_length_b   8.89022100
_cell_length_c   12.39779701
_cell_angle_alpha   90.00000000
_cell_angle_beta   89.99650784
_cell_angle_gamma   90.00000000
_symmetry_Int_Tables_number   1
_chemical_formula_structural   Tb4YHo5(CoBi2)2
_chemical_formula_sum   'Tb8 Y2 Ho10 Co4 Bi8'
_cell_volume   883.96104102
_cell_formula_units_Z   2
loop_
 _symmetry_equiv_pos_site_id
 _symmetry_equiv_pos_as_xyz
  1  'x, y, z'
loop_
 _atom_site_type_symbol
 _atom_site_label
 _atom_site_symmetry_multiplicity
 _atom_site_fract_x
 _atom_site_fract_y
 _atom_site_fract_z
 _atom_site_occupancy
  Tb  Tb0  1  0.347788  0.750000  0.699720  1
  Tb  Tb1  1  0.652212  0.250000  0.300280  1
  Tb  Tb2  1  0.847355  0.250000  0.800892  1
  Tb  Tb3  1  0.152645  0.750000  0.199108  1
  Tb  Tb4  1  0.883725  0.750000  0.810496  1
  Tb  Tb5  1  0.116275  0.250000  0.189504  1
  Tb  Tb6  1  0.383818  0.250000  0.689573  1
  Tb  Tb7  1  0.616182  0.750000  0.310427  1
  Y  Y8  1  0.050790  0.750000  0.497589  1
  Y  Y9  1  0.949210  0.250000  0.502411  1
  Ho  Ho10  1  0.674792  0.537394  0.563032  1
  Ho  Ho11  1  0.325208  0.462606  0.436968  1
  Ho  Ho12  1  0.175653  0.462445  0.937384  1
  Ho  Ho13  1  0.325208  0.037394  0.436968  1
  Ho  Ho14  1  0.824347  0.537555  0.062616  1
  Ho  Ho15  1  0.674792  0.962606  0.563032  1
  Ho  Ho16  1  0.824347  0.962445  0.062616  1
  Ho  Ho17  1  0.175653  0.037555  0.937384  1
  Ho  Ho18  1  0.551938  0.250000  0.002389  1
  Ho  Ho19  1  0.448062  0.750000  0.997611  1
  Co  Co20  1  0.064855  0.750000  0.991514  1
  Co  Co21  1  0.935145  0.250000  0.008486  1
  Co  Co22  1  0.562954  0.250000  0.507928  1
  Co  Co23  1  0.437046  0.750000  0.492072  1
  Bi  Bi24  1  0.571726  0.509066  0.827671  1
  Bi  Bi25  1  0.428274  0.490934  0.172329  1
  Bi  Bi26  1  0.072051  0.490922  0.673228  1
  Bi  Bi27  1  0.428274  0.009066  0.172329  1
  Bi  Bi28  1  0.927949  0.509078  0.326772  1
  Bi  Bi29  1  0.571726  0.990934  0.827671  1
  Bi  Bi30  1  0.927949  0.990922  0.326772  1
  Bi  Bi31  1  0.072051  0.009078  0.673228  1
