# generated using pymatgen
data_EuCrF7
_symmetry_space_group_name_H-M   'P 1'
_cell_length_a   5.59327700
_cell_length_b   8.91916089
_cell_length_c   11.88409232
_cell_angle_alpha   62.57738765
_cell_angle_beta   90.00000000
_cell_angle_gamma   90.00000000
_symmetry_Int_Tables_number   1
_chemical_formula_structural   EuCrF7
_chemical_formula_sum   'Eu4 Cr4 F28'
_cell_volume   526.24759231
_cell_formula_units_Z   4
loop_
 _symmetry_equiv_pos_site_id
 _symmetry_equiv_pos_as_xyz
  1  'x, y, z'
loop_
 _atom_site_type_symbol
 _atom_site_label
 _atom_site_symmetry_multiplicity
 _atom_site_fract_x
 _atom_site_fract_y
 _atom_site_fract_z
 _atom_site_occupancy
  Eu  Eu0  1  0.735888  0.807084  0.266872  1
  Eu  Eu1  1  0.235888  0.192916  0.233128  1
  Eu  Eu2  1  0.264112  0.192916  0.733128  1
  Eu  Eu3  1  0.764112  0.807084  0.766872  1
  Cr  Cr4  1  0.743091  0.273539  0.456073  1
  Cr  Cr5  1  0.243091  0.726461  0.043927  1
  Cr  Cr6  1  0.256909  0.726461  0.543927  1
  Cr  Cr7  1  0.756909  0.273539  0.956073  1
  F  F8  1  0.434192  0.708976  0.924677  1
  F  F9  1  0.934192  0.291024  0.575323  1
  F  F10  1  0.565808  0.291024  0.075323  1
  F  F11  1  0.065808  0.708976  0.424677  1
  F  F12  1  0.460435  0.282904  0.541062  1
  F  F13  1  0.960435  0.717096  0.958938  1
  F  F14  1  0.539565  0.717096  0.458938  1
  F  F15  1  0.039565  0.282904  0.041062  1
  F  F16  1  0.766404  0.505683  0.863808  1
  F  F17  1  0.266404  0.494317  0.636192  1
  F  F18  1  0.233596  0.494317  0.136192  1
  F  F19  1  0.733596  0.505683  0.363808  1
  F  F20  1  0.757686  0.042710  0.045002  1
  F  F21  1  0.257686  0.957290  0.454998  1
  F  F22  1  0.242314  0.957290  0.954998  1
  F  F23  1  0.742314  0.042710  0.545002  1
  F  F24  1  0.983404  0.728717  0.636002  1
  F  F25  1  0.483404  0.271283  0.863998  1
  F  F26  1  0.016596  0.271283  0.363998  1
  F  F27  1  0.516596  0.728717  0.136002  1
  F  F28  1  0.054712  0.742095  0.167185  1
  F  F29  1  0.554712  0.257905  0.332815  1
  F  F30  1  0.945288  0.257905  0.832815  1
  F  F31  1  0.445288  0.742095  0.667185  1
  F  F32  1  0.408184  0.968941  0.230279  1
  F  F33  1  0.908184  0.031059  0.269721  1
  F  F34  1  0.591816  0.031059  0.769721  1
  F  F35  1  0.091816  0.968941  0.730279  1
