# generated using pymatgen
data_La2B10Rh
_symmetry_space_group_name_H-M   'P 1'
_cell_length_a   4.23954200
_cell_length_b   5.78641400
_cell_length_c   11.52376800
_cell_angle_alpha   90.00000000
_cell_angle_beta   90.00000000
_cell_angle_gamma   90.00000000
_symmetry_Int_Tables_number   1
_chemical_formula_structural   La2B10Rh
_chemical_formula_sum   'La4 B20 Rh2'
_cell_volume   282.69814012
_cell_formula_units_Z   2
loop_
 _symmetry_equiv_pos_site_id
 _symmetry_equiv_pos_as_xyz
  1  'x, y, z'
loop_
 _atom_site_type_symbol
 _atom_site_label
 _atom_site_symmetry_multiplicity
 _atom_site_fract_x
 _atom_site_fract_y
 _atom_site_fract_z
 _atom_site_occupancy
  La  La0  1  0.500000  0.295095  0.865059  1
  La  La1  1  0.500000  0.704905  0.134941  1
  La  La2  1  0.500000  0.795095  0.634941  1
  La  La3  1  0.500000  0.204905  0.365059  1
  B  B4  1  0.000000  0.118962  0.543673  1
  B  B5  1  0.000000  0.881038  0.456327  1
  B  B6  1  0.000000  0.618962  0.956327  1
  B  B7  1  0.000000  0.381038  0.043673  1
  B  B8  1  0.000000  0.138444  0.697214  1
  B  B9  1  0.000000  0.861556  0.302786  1
  B  B10  1  0.299548  0.217990  0.118191  1
  B  B11  1  0.299548  0.782010  0.881809  1
  B  B12  1  0.700452  0.717990  0.381809  1
  B  B13  1  0.700452  0.282010  0.618191  1
  B  B14  1  0.700452  0.782010  0.881809  1
  B  B15  1  0.700452  0.217990  0.118191  1
  B  B16  1  0.299548  0.282010  0.618191  1
  B  B17  1  0.299548  0.717990  0.381809  1
  B  B18  1  0.000000  0.056799  0.192717  1
  B  B19  1  0.000000  0.943201  0.807283  1
  B  B20  1  0.000000  0.556799  0.307283  1
  B  B21  1  0.000000  0.443201  0.692717  1
  B  B22  1  0.000000  0.361556  0.197214  1
  B  B23  1  0.000000  0.638444  0.802786  1
  Rh  Rh24  1  0.000000  0.500000  0.500000  1
  Rh  Rh25  1  0.000000  0.000000  0.000000  1
