# generated using pymatgen
data_NaTi2(AsPd)3
_symmetry_space_group_name_H-M   'P 1'
_cell_length_a   6.64817000
_cell_length_b   6.83333620
_cell_length_c   3.75348500
_cell_angle_alpha   90.00000000
_cell_angle_beta   90.00000000
_cell_angle_gamma   119.10760841
_symmetry_Int_Tables_number   1
_chemical_formula_structural   NaTi2(AsPd)3
_chemical_formula_sum   'Na1 Ti2 As3 Pd3'
_cell_volume   148.98265843
_cell_formula_units_Z   1
loop_
 _symmetry_equiv_pos_site_id
 _symmetry_equiv_pos_as_xyz
  1  'x, y, z'
loop_
 _atom_site_type_symbol
 _atom_site_label
 _atom_site_symmetry_multiplicity
 _atom_site_fract_x
 _atom_site_fract_y
 _atom_site_fract_z
 _atom_site_occupancy
  Na  Na0  1  0.592332  0.000000  0.000000  1
  Ti  Ti1  1  0.996585  0.592940  0.000000  1
  Ti  Ti2  1  0.403645  0.407060  0.000000  1
  As  As3  1  0.314214  0.644285  0.500000  1
  As  As4  1  0.669929  0.355715  0.500000  1
  As  As5  1  0.018092  0.000000  0.000000  1
  Pd  Pd6  1  0.270040  0.000000  0.500000  1
  Pd  Pd7  1  0.992796  0.250430  0.500000  1
  Pd  Pd8  1  0.742366  0.749570  0.500000  1
