# generated using pymatgen
data_NdCdCuNiPt2
_symmetry_space_group_name_H-M   'P 1'
_cell_length_a   5.15633029
_cell_length_b   5.28054651
_cell_length_c   5.28054698
_cell_angle_alpha   62.68648469
_cell_angle_beta   60.12335929
_cell_angle_gamma   60.12336642
_symmetry_Int_Tables_number   1
_chemical_formula_structural   NdCdCuNiPt2
_chemical_formula_sum   'Nd1 Cd1 Cu1 Ni1 Pt2'
_cell_volume   103.77026726
_cell_formula_units_Z   1
loop_
 _symmetry_equiv_pos_site_id
 _symmetry_equiv_pos_as_xyz
  1  'x, y, z'
loop_
 _atom_site_type_symbol
 _atom_site_label
 _atom_site_symmetry_multiplicity
 _atom_site_fract_x
 _atom_site_fract_y
 _atom_site_fract_z
 _atom_site_occupancy
  Nd  Nd0  1  0.250834  0.250496  0.250496  1
  Cd  Cd1  1  0.007336  0.992609  0.992609  1
  Cu  Cu2  1  0.122340  0.628315  0.628315  1
  Ni  Ni3  1  0.621092  0.628535  0.628535  1
  Pt  Pt4  1  0.624199  0.626539  0.123508  1
  Pt  Pt5  1  0.624199  0.123508  0.626539  1
