# generated using pymatgen
data_Er2LuHf(Co4P3)2
_symmetry_space_group_name_H-M   'P 1'
_cell_length_a   3.68359800
_cell_length_b   10.60415100
_cell_length_c   12.30795000
_cell_angle_alpha   90.00000000
_cell_angle_beta   90.00000000
_cell_angle_gamma   90.00000000
_symmetry_Int_Tables_number   1
_chemical_formula_structural   Er2LuHf(Co4P3)2
_chemical_formula_sum   'Er4 Lu2 Hf2 Co16 P12'
_cell_volume   480.76612017
_cell_formula_units_Z   2
loop_
 _symmetry_equiv_pos_site_id
 _symmetry_equiv_pos_as_xyz
  1  'x, y, z'
loop_
 _atom_site_type_symbol
 _atom_site_label
 _atom_site_symmetry_multiplicity
 _atom_site_fract_x
 _atom_site_fract_y
 _atom_site_fract_z
 _atom_site_occupancy
  Er  Er0  1  0.750000  0.250000  0.470332  1
  Er  Er1  1  0.250000  0.750000  0.529612  1
  Er  Er2  1  0.750000  0.072598  0.204928  1
  Er  Er3  1  0.750000  0.427402  0.204928  1
  Lu  Lu4  1  0.250000  0.926820  0.795299  1
  Lu  Lu5  1  0.250000  0.573180  0.795299  1
  Hf  Hf6  1  0.250000  0.250000  0.841627  1
  Hf  Hf7  1  0.750000  0.750000  0.158292  1
  Co  Co8  1  0.250000  0.250000  0.296908  1
  Co  Co9  1  0.750000  0.750000  0.703927  1
  Co  Co10  1  0.750000  0.250000  0.012698  1
  Co  Co11  1  0.250000  0.750000  0.986399  1
  Co  Co12  1  0.250000  0.418247  0.006143  1
  Co  Co13  1  0.250000  0.081753  0.006143  1
  Co  Co14  1  0.750000  0.582343  0.992835  1
  Co  Co15  1  0.750000  0.917657  0.992835  1
  Co  Co16  1  0.250000  0.455065  0.567276  1
  Co  Co17  1  0.250000  0.044935  0.567276  1
  Co  Co18  1  0.750000  0.545228  0.433326  1
  Co  Co19  1  0.750000  0.954772  0.433326  1
  Co  Co20  1  0.250000  0.872600  0.297086  1
  Co  Co21  1  0.250000  0.627400  0.297086  1
  Co  Co22  1  0.750000  0.126650  0.703475  1
  Co  Co23  1  0.750000  0.373350  0.703475  1
  P  P24  1  0.250000  0.250000  0.116851  1
  P  P25  1  0.750000  0.750000  0.882085  1
  P  P26  1  0.250000  0.250000  0.636513  1
  P  P27  1  0.750000  0.750000  0.363508  1
  P  P28  1  0.250000  0.439109  0.384258  1
  P  P29  1  0.250000  0.060891  0.384258  1
  P  P30  1  0.750000  0.561497  0.616813  1
  P  P31  1  0.750000  0.938503  0.616813  1
  P  P32  1  0.250000  0.912090  0.107686  1
  P  P33  1  0.250000  0.587910  0.107686  1
  P  P34  1  0.750000  0.087085  0.891498  1
  P  P35  1  0.750000  0.412915  0.891498  1
