# generated using pymatgen
data_Ba3PrZrS6
_symmetry_space_group_name_H-M   'P 1'
_cell_length_a   8.50626783
_cell_length_b   8.50626609
_cell_length_c   8.50626634
_cell_angle_alpha   92.53935096
_cell_angle_beta   92.53935250
_cell_angle_gamma   92.53935547
_symmetry_Int_Tables_number   1
_chemical_formula_structural   Ba3PrZrS6
_chemical_formula_sum   'Ba6 Pr2 Zr2 S12'
_cell_volume   613.61567699
_cell_formula_units_Z   2
loop_
 _symmetry_equiv_pos_site_id
 _symmetry_equiv_pos_as_xyz
  1  'x, y, z'
loop_
 _atom_site_type_symbol
 _atom_site_label
 _atom_site_symmetry_multiplicity
 _atom_site_fract_x
 _atom_site_fract_y
 _atom_site_fract_z
 _atom_site_occupancy
  Ba  Ba0  1  0.877797  0.622203  0.250000  1
  Ba  Ba1  1  0.250000  0.877797  0.622203  1
  Ba  Ba2  1  0.622203  0.250000  0.877797  1
  Ba  Ba3  1  0.750000  0.122203  0.377797  1
  Ba  Ba4  1  0.377797  0.750000  0.122203  1
  Ba  Ba5  1  0.122203  0.377797  0.750000  1
  Pr  Pr6  1  0.250000  0.250000  0.250000  1
  Pr  Pr7  1  0.750000  0.750000  0.750000  1
  Zr  Zr8  1  0.500000  0.500000  0.500000  1
  Zr  Zr9  1  0.000000  0.000000  0.000000  1
  S  S10  1  0.206318  0.547063  0.415545  1
  S  S11  1  0.415545  0.206318  0.547063  1
  S  S12  1  0.547063  0.415545  0.206318  1
  S  S13  1  0.915545  0.047063  0.706318  1
  S  S14  1  0.706318  0.915545  0.047063  1
  S  S15  1  0.047063  0.706318  0.915545  1
  S  S16  1  0.793682  0.452937  0.584455  1
  S  S17  1  0.584455  0.793682  0.452937  1
  S  S18  1  0.452937  0.584455  0.793682  1
  S  S19  1  0.084455  0.952937  0.293682  1
  S  S20  1  0.293682  0.084455  0.952937  1
  S  S21  1  0.952937  0.293682  0.084455  1
