# generated using pymatgen
data_Cs3Pr(TaS4)2
_symmetry_space_group_name_H-M   'P 1'
_cell_length_a   9.96043124
_cell_length_b   10.78515780
_cell_length_c   11.61135785
_cell_angle_alpha   106.80359012
_cell_angle_beta   103.83256019
_cell_angle_gamma   114.16986880
_symmetry_Int_Tables_number   1
_chemical_formula_structural   Cs3Pr(TaS4)2
_chemical_formula_sum   'Cs6 Pr2 Ta4 S16'
_cell_volume   993.98917532
_cell_formula_units_Z   2
loop_
 _symmetry_equiv_pos_site_id
 _symmetry_equiv_pos_as_xyz
  1  'x, y, z'
loop_
 _atom_site_type_symbol
 _atom_site_label
 _atom_site_symmetry_multiplicity
 _atom_site_fract_x
 _atom_site_fract_y
 _atom_site_fract_z
 _atom_site_occupancy
  Cs  Cs0  1  0.499999  0.499999  0.999998  1
  Cs  Cs1  1  0.999999  0.499998  0.999999  1
  Cs  Cs2  1  0.261469  0.011424  0.022938  1
  Cs  Cs3  1  0.483236  0.733217  0.466244  1
  Cs  Cs4  1  0.516762  0.266780  0.533761  1
  Cs  Cs5  1  0.738530  0.988576  0.977062  1
  Pr  Pr6  1  0.992138  0.242267  0.484730  1
  Pr  Pr7  1  0.007863  0.757736  0.515271  1
  Ta  Ta8  1  0.004257  0.908913  0.261039  1
  Ta  Ta9  1  0.756817  0.352147  0.261118  1
  Ta  Ta10  1  0.243180  0.647853  0.738882  1
  Ta  Ta11  1  0.995748  0.091089  0.738961  1
  S  S12  1  0.887134  0.765164  0.040649  1
  S  S13  1  0.653524  0.275425  0.040822  1
  S  S14  1  0.126506  0.159539  0.301332  1
  S  S15  1  0.674751  0.141789  0.301251  1
  S  S16  1  0.819710  0.867196  0.351145  1
  S  S17  1  0.031458  0.484014  0.351213  1
  S  S18  1  0.187245  0.853796  0.359456  1
  S  S19  1  0.672469  0.505744  0.359525  1
  S  S20  1  0.327533  0.494255  0.640476  1
  S  S21  1  0.812754  0.146204  0.640540  1
  S  S22  1  0.968538  0.515984  0.648787  1
  S  S23  1  0.180294  0.132805  0.648852  1
  S  S24  1  0.325250  0.858211  0.698749  1
  S  S25  1  0.873497  0.840462  0.698670  1
  S  S26  1  0.346473  0.724573  0.959178  1
  S  S27  1  0.112868  0.234839  0.959353  1
