# generated using pymatgen
data_Pr10InCo2Te3
_symmetry_space_group_name_H-M   'P 1'
_cell_length_a   8.33603322
_cell_length_b   8.84883362
_cell_length_c   12.94281700
_cell_angle_alpha   89.99877623
_cell_angle_beta   90.21042553
_cell_angle_gamma   90.14315841
_symmetry_Int_Tables_number   1
_chemical_formula_structural   Pr10InCo2Te3
_chemical_formula_sum   'Pr20 In2 Co4 Te6'
_cell_volume   954.70674784
_cell_formula_units_Z   2
loop_
 _symmetry_equiv_pos_site_id
 _symmetry_equiv_pos_as_xyz
  1  'x, y, z'
loop_
 _atom_site_type_symbol
 _atom_site_label
 _atom_site_symmetry_multiplicity
 _atom_site_fract_x
 _atom_site_fract_y
 _atom_site_fract_z
 _atom_site_occupancy
  Pr  Pr0  1  0.352288  0.751440  0.698670  1
  Pr  Pr1  1  0.647712  0.248560  0.301330  1
  Pr  Pr2  1  0.850256  0.249128  0.799142  1
  Pr  Pr3  1  0.149744  0.750872  0.200858  1
  Pr  Pr4  1  0.882140  0.751466  0.807844  1
  Pr  Pr5  1  0.117860  0.248534  0.192156  1
  Pr  Pr6  1  0.372497  0.248002  0.695112  1
  Pr  Pr7  1  0.627503  0.751998  0.304888  1
  Pr  Pr8  1  0.675599  0.538155  0.568353  1
  Pr  Pr9  1  0.324401  0.461845  0.431647  1
  Pr  Pr10  1  0.181064  0.465774  0.936594  1
  Pr  Pr11  1  0.314538  0.035268  0.439931  1
  Pr  Pr12  1  0.818936  0.534226  0.063406  1
  Pr  Pr13  1  0.685462  0.964732  0.560069  1
  Pr  Pr14  1  0.820104  0.966593  0.071377  1
  Pr  Pr15  1  0.179896  0.033407  0.928623  1
  Pr  Pr16  1  0.048560  0.746039  0.498093  1
  Pr  Pr17  1  0.951440  0.253961  0.501907  1
  Pr  Pr18  1  0.537332  0.254490  0.000100  1
  Pr  Pr19  1  0.462668  0.745510  0.999900  1
  In  In20  1  0.928750  0.994104  0.327179  1
  In  In21  1  0.071250  0.005896  0.672821  1
  Co  Co22  1  0.070632  0.750991  0.993410  1
  Co  Co23  1  0.929368  0.249009  0.006590  1
  Co  Co24  1  0.573066  0.254917  0.512788  1
  Co  Co25  1  0.426934  0.745083  0.487212  1
  Te  Te26  1  0.574954  0.510096  0.822613  1
  Te  Te27  1  0.425046  0.489904  0.177387  1
  Te  Te28  1  0.077133  0.492792  0.680203  1
  Te  Te29  1  0.425234  0.009108  0.174429  1
  Te  Te30  1  0.922867  0.507208  0.319797  1
  Te  Te31  1  0.574766  0.990892  0.825571  1
