# generated using pymatgen
data_TbNd17(YSn8)2
_symmetry_space_group_name_H-M   'P 1'
_cell_length_a   8.27045500
_cell_length_b   8.41870826
_cell_length_c   15.96195600
_cell_angle_alpha   90.00000000
_cell_angle_beta   90.00000000
_cell_angle_gamma   89.98535323
_symmetry_Int_Tables_number   1
_chemical_formula_structural   TbNd17(YSn8)2
_chemical_formula_sum   'Tb1 Nd17 Y2 Sn16'
_cell_volume   1111.37585638
_cell_formula_units_Z   1
loop_
 _symmetry_equiv_pos_site_id
 _symmetry_equiv_pos_as_xyz
  1  'x, y, z'
loop_
 _atom_site_type_symbol
 _atom_site_label
 _atom_site_symmetry_multiplicity
 _atom_site_fract_x
 _atom_site_fract_y
 _atom_site_fract_z
 _atom_site_occupancy
  Tb  Tb0  1  0.699329  0.998046  0.250000  1
  Nd  Nd1  1  0.017678  0.181069  0.401039  1
  Nd  Nd2  1  0.368440  0.836937  0.120626  1
  Nd  Nd3  1  0.132127  0.336463  0.620551  1
  Nd  Nd4  1  0.481699  0.681409  0.901294  1
  Nd  Nd5  1  0.868289  0.663069  0.121084  1
  Nd  Nd6  1  0.132127  0.336463  0.879449  1
  Nd  Nd7  1  0.481699  0.681409  0.598706  1
  Nd  Nd8  1  0.631094  0.162977  0.620336  1
  Nd  Nd9  1  0.802461  0.497838  0.750000  1
  Nd  Nd10  1  0.868289  0.663069  0.378916  1
  Nd  Nd11  1  0.017678  0.181069  0.098961  1
  Nd  Nd12  1  0.982411  0.819463  0.901163  1
  Nd  Nd13  1  0.631094  0.162977  0.879664  1
  Nd  Nd14  1  0.517858  0.318996  0.099130  1
  Nd  Nd15  1  0.368440  0.836937  0.379374  1
  Nd  Nd16  1  0.982411  0.819463  0.598837  1
  Nd  Nd17  1  0.517858  0.318996  0.400870  1
  Y  Y18  1  0.199222  0.502133  0.250000  1
  Y  Y19  1  0.300877  0.002224  0.750000  1
  Sn  Sn20  1  0.791441  0.463783  0.541803  1
  Sn  Sn21  1  0.708605  0.964506  0.456566  1
  Sn  Sn22  1  0.674907  0.857821  0.750000  1
  Sn  Sn23  1  0.208547  0.535230  0.456618  1
  Sn  Sn24  1  0.291465  0.035400  0.956771  1
  Sn  Sn25  1  0.824454  0.354592  0.250000  1
  Sn  Sn26  1  0.791441  0.463783  0.958197  1
  Sn  Sn27  1  0.565269  0.616979  0.250000  1
  Sn  Sn28  1  0.208547  0.535230  0.043382  1
  Sn  Sn29  1  0.431755  0.382540  0.750000  1
  Sn  Sn30  1  0.177326  0.646076  0.750000  1
  Sn  Sn31  1  0.935357  0.115138  0.750000  1
  Sn  Sn32  1  0.291465  0.035400  0.543229  1
  Sn  Sn33  1  0.708605  0.964506  0.043434  1
  Sn  Sn34  1  0.324180  0.145010  0.250000  1
  Sn  Sn35  1  0.065551  0.883001  0.250000  1
