# generated using pymatgen
data_RbTm3Se5
_symmetry_space_group_name_H-M   'P 1'
_cell_length_a   4.09548000
_cell_length_b   12.23682900
_cell_length_c   21.85515200
_cell_angle_alpha   90.00000000
_cell_angle_beta   90.00000000
_cell_angle_gamma   90.00000000
_symmetry_Int_Tables_number   1
_chemical_formula_structural   RbTm3Se5
_chemical_formula_sum   'Rb4 Tm12 Se20'
_cell_volume   1095.28598829
_cell_formula_units_Z   4
loop_
 _symmetry_equiv_pos_site_id
 _symmetry_equiv_pos_as_xyz
  1  'x, y, z'
loop_
 _atom_site_type_symbol
 _atom_site_label
 _atom_site_symmetry_multiplicity
 _atom_site_fract_x
 _atom_site_fract_y
 _atom_site_fract_z
 _atom_site_occupancy
  Rb  Rb0  1  0.250000  0.851260  0.093925  1
  Rb  Rb1  1  0.750000  0.148740  0.906075  1
  Rb  Rb2  1  0.750000  0.351260  0.406075  1
  Rb  Rb3  1  0.250000  0.648740  0.593925  1
  Tm  Tm4  1  0.750000  0.798435  0.825738  1
  Tm  Tm5  1  0.250000  0.201565  0.174262  1
  Tm  Tm6  1  0.250000  0.298435  0.674262  1
  Tm  Tm7  1  0.750000  0.701565  0.325738  1
  Tm  Tm8  1  0.250000  0.956254  0.698161  1
  Tm  Tm9  1  0.750000  0.043746  0.301839  1
  Tm  Tm10  1  0.750000  0.456254  0.801839  1
  Tm  Tm11  1  0.250000  0.543746  0.198161  1
  Tm  Tm12  1  0.750000  0.391180  0.053806  1
  Tm  Tm13  1  0.250000  0.608820  0.946194  1
  Tm  Tm14  1  0.250000  0.891180  0.446194  1
  Tm  Tm15  1  0.750000  0.108820  0.553806  1
  Se  Se16  1  0.250000  0.946844  0.569287  1
  Se  Se17  1  0.750000  0.053156  0.430713  1
  Se  Se18  1  0.750000  0.446844  0.930713  1
  Se  Se19  1  0.250000  0.553156  0.069287  1
  Se  Se20  1  0.750000  0.766207  0.953822  1
  Se  Se21  1  0.250000  0.233793  0.046178  1
  Se  Se22  1  0.250000  0.266207  0.546178  1
  Se  Se23  1  0.750000  0.733793  0.453822  1
  Se  Se24  1  0.250000  0.952554  0.826821  1
  Se  Se25  1  0.750000  0.047446  0.173179  1
  Se  Se26  1  0.750000  0.452554  0.673179  1
  Se  Se27  1  0.250000  0.547446  0.326821  1
  Se  Se28  1  0.750000  0.126230  0.684944  1
  Se  Se29  1  0.250000  0.873770  0.315056  1
  Se  Se30  1  0.250000  0.626230  0.815056  1
  Se  Se31  1  0.750000  0.373770  0.184944  1
  Se  Se32  1  0.750000  0.696356  0.196979  1
  Se  Se33  1  0.250000  0.303644  0.803021  1
  Se  Se34  1  0.250000  0.196356  0.303021  1
  Se  Se35  1  0.750000  0.803644  0.696979  1
