# generated using pymatgen
data_Sr4YbY(OsO6)2
_symmetry_space_group_name_H-M   'P 1'
_cell_length_a   5.80756254
_cell_length_b   5.89159462
_cell_length_c   10.06840862
_cell_angle_alpha   90.08803376
_cell_angle_beta   124.91314953
_cell_angle_gamma   90.00115308
_symmetry_Int_Tables_number   1
_chemical_formula_structural   Sr4YbY(OsO6)2
_chemical_formula_sum   'Sr4 Yb1 Y1 Os2 O12'
_cell_volume   282.49550687
_cell_formula_units_Z   1
loop_
 _symmetry_equiv_pos_site_id
 _symmetry_equiv_pos_as_xyz
  1  'x, y, z'
loop_
 _atom_site_type_symbol
 _atom_site_label
 _atom_site_symmetry_multiplicity
 _atom_site_fract_x
 _atom_site_fract_y
 _atom_site_fract_z
 _atom_site_occupancy
  Sr  Sr0  1  0.265374  0.036364  0.756342  1
  Sr  Sr1  1  0.253328  0.458040  0.243816  1
  Sr  Sr2  1  0.734626  0.963636  0.243658  1
  Sr  Sr3  1  0.746672  0.541960  0.756184  1
  Yb  Yb4  1  0.000000  0.000000  0.000000  1
  Y  Y5  1  0.000000  0.500000  0.500000  1
  Os  Os6  1  0.500000  0.000000  0.500000  1
  Os  Os7  1  0.500000  0.500000  0.000000  1
  O  O8  1  0.189704  0.479210  0.766244  1
  O  O9  1  0.195003  0.021435  0.270512  1
  O  O10  1  0.810296  0.520790  0.233756  1
  O  O11  1  0.804997  0.978565  0.729488  1
  O  O12  1  0.731414  0.197887  0.459962  1
  O  O13  1  0.729212  0.304554  0.962046  1
  O  O14  1  0.268586  0.802113  0.540038  1
  O  O15  1  0.270788  0.695446  0.037954  1
  O  O16  1  0.651297  0.727938  0.456974  1
  O  O17  1  0.650167  0.767946  0.958695  1
  O  O18  1  0.348703  0.272062  0.543026  1
  O  O19  1  0.349833  0.232054  0.041305  1
