# generated using pymatgen
data_Li2CaNdSi2Sb
_symmetry_space_group_name_H-M   'P 1'
_cell_length_a   9.76595041
_cell_length_b   9.76595094
_cell_length_c   6.91905800
_cell_angle_alpha   90.00000000
_cell_angle_beta   90.00000000
_cell_angle_gamma   153.36043219
_symmetry_Int_Tables_number   1
_chemical_formula_structural   Li2CaNdSi2Sb
_chemical_formula_sum   'Li4 Ca2 Nd2 Si4 Sb2'
_cell_volume   295.88220135
_cell_formula_units_Z   2
loop_
 _symmetry_equiv_pos_site_id
 _symmetry_equiv_pos_as_xyz
  1  'x, y, z'
loop_
 _atom_site_type_symbol
 _atom_site_label
 _atom_site_symmetry_multiplicity
 _atom_site_fract_x
 _atom_site_fract_y
 _atom_site_fract_z
 _atom_site_occupancy
  Li  Li0  1  0.185897  0.814103  0.056782  1
  Li  Li1  1  0.185897  0.814103  0.443218  1
  Li  Li2  1  0.814103  0.185897  0.943218  1
  Li  Li3  1  0.814103  0.185897  0.556782  1
  Ca  Ca4  1  0.348058  0.651942  0.250000  1
  Ca  Ca5  1  0.651942  0.348058  0.750000  1
  Nd  Nd6  1  0.547758  0.452242  0.250000  1
  Nd  Nd7  1  0.452242  0.547758  0.750000  1
  Si  Si8  1  0.056090  0.943910  0.923810  1
  Si  Si9  1  0.943910  0.056090  0.076190  1
  Si  Si10  1  0.943910  0.056090  0.423810  1
  Si  Si11  1  0.056090  0.943910  0.576190  1
  Sb  Sb12  1  0.719291  0.280709  0.250000  1
  Sb  Sb13  1  0.280709  0.719291  0.750000  1
