# generated using pymatgen
data_YHo2IrI3
_symmetry_space_group_name_H-M   'P 1'
_cell_length_a   8.84534213
_cell_length_b   4.21041100
_cell_length_c   12.30292500
_cell_angle_alpha   90.00000000
_cell_angle_beta   94.15024434
_cell_angle_gamma   90.00000000
_symmetry_Int_Tables_number   1
_chemical_formula_structural   YHo2IrI3
_chemical_formula_sum   'Y2 Ho4 Ir2 I6'
_cell_volume   456.99048543
_cell_formula_units_Z   2
loop_
 _symmetry_equiv_pos_site_id
 _symmetry_equiv_pos_as_xyz
  1  'x, y, z'
loop_
 _atom_site_type_symbol
 _atom_site_label
 _atom_site_symmetry_multiplicity
 _atom_site_fract_x
 _atom_site_fract_y
 _atom_site_fract_z
 _atom_site_occupancy
  Y  Y0  1  0.099846  0.250000  0.317170  1
  Y  Y1  1  0.900155  0.750001  0.682830  1
  Ho  Ho2  1  0.136120  0.250000  0.873295  1
  Ho  Ho3  1  0.863880  0.750001  0.126705  1
  Ho  Ho4  1  0.258970  0.750001  0.103652  1
  Ho  Ho5  1  0.741030  0.250000  0.896348  1
  Ir  Ir6  1  0.056095  0.250000  0.092680  1
  Ir  Ir7  1  0.943907  0.750001  0.907321  1
  I  I8  1  0.425889  0.750001  0.866563  1
  I  I9  1  0.574111  0.250000  0.133438  1
  I  I10  1  0.142679  0.250000  0.608409  1
  I  I11  1  0.857320  0.750001  0.391590  1
  I  I12  1  0.356267  0.750001  0.365739  1
  I  I13  1  0.643733  0.250000  0.634261  1
