# generated using pymatgen
data_HoEr2Si2Ag3Sn
_symmetry_space_group_name_H-M   'P 1'
_cell_length_a   7.13490725
_cell_length_b   7.13161819
_cell_length_c   4.29619100
_cell_angle_alpha   90.00000000
_cell_angle_beta   90.00000000
_cell_angle_gamma   119.98475877
_symmetry_Int_Tables_number   1
_chemical_formula_structural   HoEr2Si2Ag3Sn
_chemical_formula_sum   'Ho1 Er2 Si2 Ag3 Sn1'
_cell_volume   189.34651124
_cell_formula_units_Z   1
loop_
 _symmetry_equiv_pos_site_id
 _symmetry_equiv_pos_as_xyz
  1  'x, y, z'
loop_
 _atom_site_type_symbol
 _atom_site_label
 _atom_site_symmetry_multiplicity
 _atom_site_fract_x
 _atom_site_fract_y
 _atom_site_fract_z
 _atom_site_occupancy
  Ho  Ho0  1  0.000000  0.565059  0.000000  1
  Er  Er1  1  0.435001  0.434977  0.000000  1
  Er  Er2  1  0.564999  0.999976  0.000000  1
  Si  Si3  1  0.666256  0.333088  0.500000  1
  Si  Si4  1  0.333744  0.666833  0.500000  1
  Ag  Ag5  1  0.000000  0.262799  0.500000  1
  Ag  Ag6  1  0.736828  0.736902  0.500000  1
  Ag  Ag7  1  0.263172  0.000075  0.500000  1
  Sn  Sn8  1  0.000000  0.000292  0.000000  1
