# generated using pymatgen
data_Pr18Ho2Si15Sb
_symmetry_space_group_name_H-M   'P 1'
_cell_length_a   7.91128662
_cell_length_b   7.92123241
_cell_length_c   15.31146100
_cell_angle_alpha   90.02828901
_cell_angle_beta   89.67201692
_cell_angle_gamma   89.85782218
_symmetry_Int_Tables_number   1
_chemical_formula_structural   Pr18Ho2Si15Sb
_chemical_formula_sum   'Pr18 Ho2 Si15 Sb1'
_cell_volume   959.50667078
_cell_formula_units_Z   1
loop_
 _symmetry_equiv_pos_site_id
 _symmetry_equiv_pos_as_xyz
  1  'x, y, z'
loop_
 _atom_site_type_symbol
 _atom_site_label
 _atom_site_symmetry_multiplicity
 _atom_site_fract_x
 _atom_site_fract_y
 _atom_site_fract_z
 _atom_site_occupancy
  Pr  Pr0  1  0.796601  0.189099  0.753337  1
  Pr  Pr1  1  0.688231  0.692291  0.495693  1
  Pr  Pr2  1  0.376450  0.011803  0.446656  1
  Pr  Pr3  1  0.493777  0.871252  0.698023  1
  Pr  Pr4  1  0.511554  0.122969  0.196476  1
  Pr  Pr5  1  0.878825  0.487998  0.300053  1
  Pr  Pr6  1  0.121032  0.514570  0.807382  1
  Pr  Pr7  1  0.623607  0.986359  0.950345  1
  Pr  Pr8  1  0.002384  0.383139  0.546887  1
  Pr  Pr9  1  0.989527  0.622343  0.054510  1
  Pr  Pr10  1  0.128512  0.980475  0.881069  1
  Pr  Pr11  1  0.521321  0.628163  0.126981  1
  Pr  Pr12  1  0.488022  0.381651  0.626527  1
  Pr  Pr13  1  0.628630  0.521322  0.876513  1
  Pr  Pr14  1  0.373440  0.479615  0.370651  1
  Pr  Pr15  1  0.873177  0.020434  0.375772  1
  Pr  Pr16  1  0.981455  0.127781  0.124066  1
  Pr  Pr17  1  0.009932  0.858687  0.619672  1
  Ho  Ho18  1  0.310930  0.311733  0.001207  1
  Ho  Ho19  1  0.190288  0.812343  0.249420  1
  Si  Si20  1  0.329000  0.690763  0.956600  1
  Si  Si21  1  0.665990  0.304802  0.451586  1
  Si  Si22  1  0.693998  0.330040  0.047466  1
  Si  Si23  1  0.305067  0.669968  0.544105  1
  Si  Si24  1  0.809878  0.829957  0.204159  1
  Si  Si25  1  0.170695  0.192170  0.294878  1
  Si  Si26  1  0.835720  0.804026  0.798143  1
  Si  Si27  1  0.287260  0.922426  0.063806  1
  Si  Si28  1  0.573986  0.790829  0.308078  1
  Si  Si29  1  0.429995  0.213058  0.821801  1
  Si  Si30  1  0.789151  0.576277  0.691241  1
  Si  Si31  1  0.213874  0.422854  0.187219  1
  Si  Si32  1  0.707417  0.077913  0.559984  1
  Si  Si33  1  0.928596  0.289794  0.942122  1
  Si  Si34  1  0.082048  0.714945  0.433804  1
  Sb  Sb35  1  0.189628  0.166154  0.693772  1
