# generated using pymatgen
data_ErTh3Al16(GaIr3)2
_symmetry_space_group_name_H-M   'P 1'
_cell_length_a   7.63402026
_cell_length_b   7.64487020
_cell_length_c   9.52602200
_cell_angle_alpha   90.00000000
_cell_angle_beta   90.00000000
_cell_angle_gamma   119.67652531
_symmetry_Int_Tables_number   1
_chemical_formula_structural   ErTh3Al16(GaIr3)2
_chemical_formula_sum   'Er1 Th3 Al16 Ga2 Ir6'
_cell_volume   483.02769288
_cell_formula_units_Z   1
loop_
 _symmetry_equiv_pos_site_id
 _symmetry_equiv_pos_as_xyz
  1  'x, y, z'
loop_
 _atom_site_type_symbol
 _atom_site_label
 _atom_site_symmetry_multiplicity
 _atom_site_fract_x
 _atom_site_fract_y
 _atom_site_fract_z
 _atom_site_occupancy
  Er  Er0  1  0.329521  0.003869  0.250000  1
  Th  Th1  1  0.995437  0.667692  0.750000  1
  Th  Th2  1  0.002378  0.330700  0.250000  1
  Th  Th3  1  0.666689  0.994813  0.750000  1
  Al  Al4  1  0.133038  0.129835  0.750000  1
  Al  Al5  1  0.872443  0.871126  0.250000  1
  Al  Al6  1  0.005994  0.333951  0.573518  1
  Al  Al7  1  0.001096  0.670789  0.422918  1
  Al  Al8  1  0.001096  0.670789  0.077082  1
  Al  Al9  1  0.333858  0.004393  0.932795  1
  Al  Al10  1  0.005994  0.333951  0.926482  1
  Al  Al11  1  0.660205  0.996105  0.077037  1
  Al  Al12  1  0.660205  0.996105  0.422963  1
  Al  Al13  1  0.333858  0.004393  0.567205  1
  Al  Al14  1  0.336060  0.332146  0.058298  1
  Al  Al15  1  0.663724  0.663715  0.956903  1
  Al  Al16  1  0.663724  0.663715  0.543097  1
  Al  Al17  1  0.336060  0.332146  0.441702  1
  Al  Al18  1  0.657617  0.451206  0.250000  1
  Al  Al19  1  0.454176  0.663827  0.250000  1
  Ga  Ga20  1  0.342989  0.541664  0.750000  1
  Ga  Ga21  1  0.541577  0.340369  0.750000  1
  Ir  Ir22  1  0.674262  0.328489  0.497846  1
  Ir  Ir23  1  0.327074  0.671707  0.498012  1
  Ir  Ir24  1  0.327074  0.671707  0.001988  1
  Ir  Ir25  1  0.674262  0.328489  0.002154  1
  Ir  Ir26  1  0.999797  0.001157  0.500151  1
  Ir  Ir27  1  0.999797  0.001157  0.999849  1
