# generated using pymatgen
data_NdY2Al3Cr2O12
_symmetry_space_group_name_H-M   'P 1'
_cell_length_a   10.71204565
_cell_length_b   10.71223783
_cell_length_c   10.71559788
_cell_angle_alpha   109.27487143
_cell_angle_beta   109.53413885
_cell_angle_gamma   109.63444497
_symmetry_Int_Tables_number   1
_chemical_formula_structural   NdY2Al3Cr2O12
_chemical_formula_sum   'Nd4 Y8 Al12 Cr8 O48'
_cell_volume   946.20216149
_cell_formula_units_Z   4
loop_
 _symmetry_equiv_pos_site_id
 _symmetry_equiv_pos_as_xyz
  1  'x, y, z'
loop_
 _atom_site_type_symbol
 _atom_site_label
 _atom_site_symmetry_multiplicity
 _atom_site_fract_x
 _atom_site_fract_y
 _atom_site_fract_z
 _atom_site_occupancy
  Nd  Nd0  1  0.250259  0.375481  0.124330  1
  Nd  Nd1  1  0.750135  0.625026  0.875059  1
  Nd  Nd2  1  0.748844  0.124503  0.374763  1
  Nd  Nd3  1  0.125447  0.250155  0.375484  1
  Y  Y4  1  0.374579  0.750122  0.124787  1
  Y  Y5  1  0.250113  0.875010  0.625178  1
  Y  Y6  1  0.875610  0.750170  0.624377  1
  Y  Y7  1  0.624421  0.248801  0.874593  1
  Y  Y8  1  0.375239  0.123953  0.249528  1
  Y  Y9  1  0.624297  0.875641  0.749661  1
  Y  Y10  1  0.125640  0.375712  0.751024  1
  Y  Y11  1  0.875414  0.625387  0.251076  1
  Al  Al12  1  0.250555  0.628154  0.376678  1
  Al  Al13  1  0.749851  0.374984  0.624994  1
  Al  Al14  1  0.748461  0.873718  0.124348  1
  Al  Al15  1  0.375930  0.248568  0.626492  1
  Al  Al16  1  0.625423  0.750029  0.375316  1
  Al  Al17  1  0.250023  0.123080  0.872955  1
  Al  Al18  1  0.126119  0.750565  0.874616  1
  Al  Al19  1  0.872614  0.249910  0.122635  1
  Al  Al20  1  0.625419  0.375266  0.250136  1
  Al  Al21  1  0.374433  0.626380  0.750872  1
  Al  Al22  1  0.874728  0.124825  0.750100  1
  Al  Al23  1  0.126442  0.874529  0.250942  1
  Cr  Cr24  1  0.999600  0.999220  0.998226  1
  Cr  Cr25  1  0.499321  0.999904  0.500678  1
  Cr  Cr26  1  0.000159  0.502129  0.501072  1
  Cr  Cr27  1  0.498613  0.999163  0.998283  1
  Cr  Cr28  1  0.500059  0.499485  0.999907  1
  Cr  Cr29  1  0.501435  0.500872  0.500729  1
  Cr  Cr30  1  0.000964  0.998912  0.501138  1
  Cr  Cr31  1  0.999844  0.500430  0.999877  1
  O  O32  1  0.479522  0.377289  0.295840  1
  O  O33  1  0.520087  0.623336  0.704838  1
  O  O34  1  0.580236  0.183172  0.203023  1
  O  O35  1  0.918952  0.122356  0.602622  1
  O  O36  1  0.296365  0.483456  0.382807  1
  O  O37  1  0.317250  0.916868  0.294092  1
  O  O38  1  0.415264  0.816482  0.792706  1
  O  O39  1  0.085178  0.877528  0.400746  1
  O  O40  1  0.708047  0.521787  0.618140  1
  O  O41  1  0.683767  0.083157  0.706488  1
  O  O42  1  0.020588  0.316779  0.897425  1
  O  O43  1  0.206748  0.590116  0.186763  1
  O  O44  1  0.123334  0.019555  0.203539  1
  O  O45  1  0.979334  0.683775  0.102753  1
  O  O46  1  0.792777  0.410638  0.813800  1
  O  O47  1  0.876802  0.976625  0.792350  1
  O  O48  1  0.595864  0.910554  0.116844  1
  O  O49  1  0.183014  0.479808  0.603262  1
  O  O50  1  0.400059  0.083369  0.875815  1
  O  O51  1  0.816248  0.523562  0.399904  1
  O  O52  1  0.900111  0.017531  0.314373  1
  O  O53  1  0.377336  0.583551  0.899861  1
  O  O54  1  0.099508  0.974995  0.683376  1
  O  O55  1  0.622875  0.416035  0.100334  1
  O  O56  1  0.383032  0.293857  0.481182  1
  O  O57  1  0.580871  0.897255  0.377576  1
  O  O58  1  0.623313  0.707159  0.523062  1
  O  O59  1  0.415761  0.098503  0.623302  1
  O  O60  1  0.123416  0.601116  0.916686  1
  O  O61  1  0.017063  0.203718  0.116273  1
  O  O62  1  0.876404  0.400487  0.083060  1
  O  O63  1  0.979467  0.794948  0.876196  1
  O  O64  1  0.316571  0.899442  0.022959  1
  O  O65  1  0.913050  0.297090  0.313425  1
  O  O66  1  0.682087  0.099768  0.975750  1
  O  O67  1  0.085047  0.707959  0.684223  1
  O  O68  1  0.186299  0.205825  0.588734  1
  O  O69  1  0.479577  0.602365  0.183677  1
  O  O70  1  0.816390  0.793172  0.416922  1
  O  O71  1  0.521655  0.397462  0.817051  1
  O  O72  1  0.293266  0.312974  0.910947  1
  O  O73  1  0.706744  0.685186  0.088905  1
  O  O74  1  0.207119  0.117324  0.019599  1
  O  O75  1  0.792856  0.882275  0.979176  1
  O  O76  1  0.903026  0.382446  0.589099  1
  O  O77  1  0.099964  0.624093  0.416568  1
  O  O78  1  0.597191  0.185550  0.479286  1
  O  O79  1  0.400575  0.817623  0.524788  1
