# generated using pymatgen
data_CsSmY9(C2I9)2
_symmetry_space_group_name_H-M   'P 1'
_cell_length_a   11.49836592
_cell_length_b   11.51806186
_cell_length_c   11.53755922
_cell_angle_alpha   113.17776667
_cell_angle_beta   86.79077205
_cell_angle_gamma   119.95753646
_symmetry_Int_Tables_number   1
_chemical_formula_structural   CsSmY9(C2I9)2
_chemical_formula_sum   'Cs1 Sm1 Y9 C4 I18'
_cell_volume   1197.91795740
_cell_formula_units_Z   1
loop_
 _symmetry_equiv_pos_site_id
 _symmetry_equiv_pos_as_xyz
  1  'x, y, z'
loop_
 _atom_site_type_symbol
 _atom_site_label
 _atom_site_symmetry_multiplicity
 _atom_site_fract_x
 _atom_site_fract_y
 _atom_site_fract_z
 _atom_site_occupancy
  Cs  Cs0  1  0.499914  0.999819  0.500332  1
  Sm  Sm1  1  0.892602  0.056346  0.999455  1
  Y  Y2  1  0.678381  0.724529  0.711469  1
  Y  Y3  1  0.277039  0.352481  0.016292  1
  Y  Y4  1  0.093610  0.390136  0.291555  1
  Y  Y5  1  0.965553  0.038193  0.323747  1
  Y  Y6  1  0.906723  0.608902  0.707892  1
  Y  Y7  1  0.103805  0.945127  0.000642  1
  Y  Y8  1  0.035283  0.961465  0.676333  1
  Y  Y9  1  0.322770  0.275642  0.288849  1
  Y  Y10  1  0.723626  0.647085  0.983628  1
  C  C11  1  0.153412  0.220573  0.122475  1
  C  C12  1  0.848245  0.778390  0.877407  1
  C  C13  1  0.923564  0.854016  0.802045  1
  C  C14  1  0.078189  0.144944  0.197884  1
  I  I15  1  0.449824  0.530078  0.832744  1
  I  I16  1  0.382400  0.040303  0.157657  1
  I  I17  1  0.779016  0.856346  0.500902  1
  I  I18  1  0.838192  0.315050  0.157137  1
  I  I19  1  0.551075  0.470419  0.167434  1
  I  I20  1  0.221749  0.143600  0.499493  1
  I  I21  1  0.316483  0.096802  0.830233  1
  I  I22  1  0.682519  0.901469  0.171716  1
  I  I23  1  0.974347  0.756692  0.169174  1
  I  I24  1  0.933849  0.298431  0.500649  1
  I  I25  1  0.028247  0.245001  0.829014  1
  I  I26  1  0.066834  0.701706  0.499366  1
  I  I27  1  0.260719  0.621157  0.183325  1
  I  I28  1  0.739172  0.377961  0.816345  1
  I  I29  1  0.642578  0.435922  0.501028  1
  I  I30  1  0.161454  0.691311  0.847382  1
  I  I31  1  0.611836  0.956427  0.837750  1
  I  I32  1  0.356990  0.563677  0.498645  1
