# generated using pymatgen
data_CaCo5P3
_symmetry_space_group_name_H-M   'P 1'
_cell_length_a   3.61397300
_cell_length_b   10.30315300
_cell_length_c   11.77789800
_cell_angle_alpha   90.00000000
_cell_angle_beta   90.00000000
_cell_angle_gamma   90.00000000
_symmetry_Int_Tables_number   1
_chemical_formula_structural   CaCo5P3
_chemical_formula_sum   'Ca4 Co20 P12'
_cell_volume   438.55376276
_cell_formula_units_Z   4
loop_
 _symmetry_equiv_pos_site_id
 _symmetry_equiv_pos_as_xyz
  1  'x, y, z'
loop_
 _atom_site_type_symbol
 _atom_site_label
 _atom_site_symmetry_multiplicity
 _atom_site_fract_x
 _atom_site_fract_y
 _atom_site_fract_z
 _atom_site_occupancy
  Ca  Ca0  1  0.250000  0.583576  0.703981  1
  Ca  Ca1  1  0.250000  0.916424  0.203981  1
  Ca  Ca2  1  0.750000  0.416424  0.296019  1
  Ca  Ca3  1  0.750000  0.083576  0.796019  1
  Co  Co4  1  0.250000  0.716850  0.990402  1
  Co  Co5  1  0.250000  0.783150  0.490402  1
  Co  Co6  1  0.750000  0.283150  0.009598  1
  Co  Co7  1  0.750000  0.216850  0.509598  1
  Co  Co8  1  0.250000  0.406779  0.489166  1
  Co  Co9  1  0.250000  0.093221  0.989166  1
  Co  Co10  1  0.750000  0.593221  0.510834  1
  Co  Co11  1  0.750000  0.906779  0.010834  1
  Co  Co12  1  0.250000  0.219835  0.175560  1
  Co  Co13  1  0.250000  0.280165  0.675560  1
  Co  Co14  1  0.750000  0.780165  0.824440  1
  Co  Co15  1  0.750000  0.719835  0.324440  1
  Co  Co16  1  0.250000  0.881528  0.697883  1
  Co  Co17  1  0.250000  0.618472  0.197883  1
  Co  Co18  1  0.750000  0.118472  0.302117  1
  Co  Co19  1  0.750000  0.381528  0.802117  1
  Co  Co20  1  0.250000  0.466883  0.932147  1
  Co  Co21  1  0.250000  0.033117  0.432147  1
  Co  Co22  1  0.750000  0.533117  0.067853  1
  Co  Co23  1  0.750000  0.966883  0.567853  1
  P  P24  1  0.250000  0.417896  0.111285  1
  P  P25  1  0.250000  0.082104  0.611285  1
  P  P26  1  0.750000  0.582104  0.888715  1
  P  P27  1  0.750000  0.917896  0.388715  1
  P  P28  1  0.250000  0.270458  0.870438  1
  P  P29  1  0.250000  0.229542  0.370438  1
  P  P30  1  0.750000  0.729542  0.129562  1
  P  P31  1  0.750000  0.770458  0.629562  1
  P  P32  1  0.250000  0.601604  0.390649  1
  P  P33  1  0.250000  0.898396  0.890649  1
  P  P34  1  0.750000  0.398396  0.609351  1
  P  P35  1  0.750000  0.101604  0.109351  1
