# generated using pymatgen
data_Tb7Nd(HgPd)2
_symmetry_space_group_name_H-M   'P 1'
_cell_length_a   9.74246236
_cell_length_b   9.74246220
_cell_length_c   9.71624000
_cell_angle_alpha   60.08899547
_cell_angle_beta   60.08899599
_cell_angle_gamma   59.82200692
_symmetry_Int_Tables_number   1
_chemical_formula_structural   Tb7Nd(HgPd)2
_chemical_formula_sum   'Tb14 Nd2 Hg4 Pd4'
_cell_volume   652.10033133
_cell_formula_units_Z   2
loop_
 _symmetry_equiv_pos_site_id
 _symmetry_equiv_pos_as_xyz
  1  'x, y, z'
loop_
 _atom_site_type_symbol
 _atom_site_label
 _atom_site_symmetry_multiplicity
 _atom_site_fract_x
 _atom_site_fract_y
 _atom_site_fract_z
 _atom_site_occupancy
  Tb  Tb0  1  0.355053  0.355053  0.354830  1
  Tb  Tb1  1  0.355053  0.355053  0.935065  1
  Tb  Tb2  1  0.354830  0.935065  0.355053  1
  Tb  Tb3  1  0.935065  0.354830  0.355053  1
  Tb  Tb4  1  0.810145  0.189855  0.189855  1
  Tb  Tb5  1  0.189855  0.810145  0.810145  1
  Tb  Tb6  1  0.189855  0.810145  0.189855  1
  Tb  Tb7  1  0.810145  0.189855  0.810145  1
  Tb  Tb8  1  0.189473  0.189473  0.810527  1
  Tb  Tb9  1  0.810527  0.810527  0.189473  1
  Tb  Tb10  1  0.937344  0.562656  0.562656  1
  Tb  Tb11  1  0.562656  0.937344  0.937344  1
  Tb  Tb12  1  0.562656  0.937344  0.562656  1
  Tb  Tb13  1  0.937344  0.562656  0.937344  1
  Nd  Nd14  1  0.566227  0.566227  0.933773  1
  Nd  Nd15  1  0.933773  0.933773  0.566227  1
  Hg  Hg16  1  0.586839  0.586839  0.581926  1
  Hg  Hg17  1  0.586839  0.586839  0.244397  1
  Hg  Hg18  1  0.581926  0.244397  0.586839  1
  Hg  Hg19  1  0.244397  0.581926  0.586839  1
  Pd  Pd20  1  0.146065  0.146065  0.143463  1
  Pd  Pd21  1  0.146065  0.146065  0.564405  1
  Pd  Pd22  1  0.143463  0.564405  0.146065  1
  Pd  Pd23  1  0.564405  0.143463  0.146065  1
