# generated using pymatgen
data_Ba2AsS3Br
_symmetry_space_group_name_H-M   'P 1'
_cell_length_a   6.99824500
_cell_length_b   9.77791700
_cell_length_c   12.33131700
_cell_angle_alpha   90.00000000
_cell_angle_beta   90.00000000
_cell_angle_gamma   90.00000000
_symmetry_Int_Tables_number   1
_chemical_formula_structural   Ba2AsS3Br
_chemical_formula_sum   'Ba8 As4 S12 Br4'
_cell_volume   843.81055047
_cell_formula_units_Z   4
loop_
 _symmetry_equiv_pos_site_id
 _symmetry_equiv_pos_as_xyz
  1  'x, y, z'
loop_
 _atom_site_type_symbol
 _atom_site_label
 _atom_site_symmetry_multiplicity
 _atom_site_fract_x
 _atom_site_fract_y
 _atom_site_fract_z
 _atom_site_occupancy
  Ba  Ba0  1  0.250000  0.838365  0.371323  1
  Ba  Ba1  1  0.750000  0.161635  0.628677  1
  Ba  Ba2  1  0.750000  0.338365  0.128677  1
  Ba  Ba3  1  0.250000  0.661635  0.871323  1
  Ba  Ba4  1  0.250000  0.305498  0.337289  1
  Ba  Ba5  1  0.750000  0.694502  0.662711  1
  Ba  Ba6  1  0.750000  0.805498  0.162711  1
  Ba  Ba7  1  0.250000  0.194502  0.837289  1
  As  As8  1  0.250000  0.023807  0.093061  1
  As  As9  1  0.750000  0.976193  0.906939  1
  As  As10  1  0.750000  0.523807  0.406939  1
  As  As11  1  0.250000  0.476193  0.593061  1
  S  S12  1  0.007018  0.073782  0.208158  1
  S  S13  1  0.992982  0.926218  0.791842  1
  S  S14  1  0.992982  0.573782  0.291842  1
  S  S15  1  0.507018  0.926218  0.791842  1
  S  S16  1  0.007018  0.426218  0.708158  1
  S  S17  1  0.492982  0.073782  0.208158  1
  S  S18  1  0.492982  0.426218  0.708158  1
  S  S19  1  0.507018  0.573782  0.291842  1
  S  S20  1  0.250000  0.793708  0.107533  1
  S  S21  1  0.750000  0.206292  0.892467  1
  S  S22  1  0.750000  0.293708  0.392467  1
  S  S23  1  0.250000  0.706292  0.607533  1
  Br  Br24  1  0.250000  0.393952  0.050221  1
  Br  Br25  1  0.750000  0.606048  0.949779  1
  Br  Br26  1  0.750000  0.893952  0.449779  1
  Br  Br27  1  0.250000  0.106048  0.550221  1
