# generated using pymatgen
data_Ca4Sn2Sb4Rh7
_symmetry_space_group_name_H-M   'P 1'
_cell_length_a   7.63236244
_cell_length_b   7.63236231
_cell_length_c   7.62929386
_cell_angle_alpha   109.50724528
_cell_angle_beta   109.50724786
_cell_angle_gamma   109.41551131
_symmetry_Int_Tables_number   1
_chemical_formula_structural   Ca4Sn2Sb4Rh7
_chemical_formula_sum   'Ca4 Sn2 Sb4 Rh7'
_cell_volume   342.05229978
_cell_formula_units_Z   1
loop_
 _symmetry_equiv_pos_site_id
 _symmetry_equiv_pos_as_xyz
  1  'x, y, z'
loop_
 _atom_site_type_symbol
 _atom_site_label
 _atom_site_symmetry_multiplicity
 _atom_site_fract_x
 _atom_site_fract_y
 _atom_site_fract_z
 _atom_site_occupancy
  Ca  Ca0  1  0.507856  0.999871  0.000000  1
  Ca  Ca1  1  0.000129  0.492144  0.000000  1
  Ca  Ca2  1  0.000512  0.999488  0.500000  1
  Ca  Ca3  1  0.500512  0.499488  0.500000  1
  Sn  Sn4  1  0.312848  0.996636  0.309483  1
  Sn  Sn5  1  0.003364  0.687152  0.690517  1
  Sb  Sb6  1  0.685949  0.680378  0.000000  1
  Sb  Sb7  1  0.673939  0.997086  0.671027  1
  Sb  Sb8  1  0.002914  0.326061  0.328973  1
  Sb  Sb9  1  0.319622  0.314051  0.000000  1
  Rh  Rh10  1  0.254134  0.501648  0.755782  1
  Rh  Rh11  1  0.498258  0.249163  0.747422  1
  Rh  Rh12  1  0.748778  0.251222  0.500000  1
  Rh  Rh13  1  0.498352  0.745866  0.244218  1
  Rh  Rh14  1  0.993219  0.006781  0.000000  1
  Rh  Rh15  1  0.248778  0.751222  0.500000  1
  Rh  Rh16  1  0.750837  0.501742  0.252578  1
