# generated using pymatgen
data_SrLaYb2(Al3Pd)6
_symmetry_space_group_name_H-M   'P 1'
_cell_length_a   7.72580452
_cell_length_b   7.70592072
_cell_length_c   9.59665900
_cell_angle_alpha   90.00000000
_cell_angle_beta   90.00000000
_cell_angle_gamma   119.49669190
_symmetry_Int_Tables_number   1
_chemical_formula_structural   SrLaYb2(Al3Pd)6
_chemical_formula_sum   'Sr1 La1 Yb2 Al18 Pd6'
_cell_volume   497.27803518
_cell_formula_units_Z   1
loop_
 _symmetry_equiv_pos_site_id
 _symmetry_equiv_pos_as_xyz
  1  'x, y, z'
loop_
 _atom_site_type_symbol
 _atom_site_label
 _atom_site_symmetry_multiplicity
 _atom_site_fract_x
 _atom_site_fract_y
 _atom_site_fract_z
 _atom_site_occupancy
  Sr  Sr0  1  0.671336  0.996497  0.250000  1
  La  La1  1  0.330198  0.002872  0.750000  1
  Yb  Yb2  1  0.994881  0.669626  0.250000  1
  Yb  Yb3  1  0.003827  0.330167  0.750000  1
  Al  Al4  1  0.134913  0.133730  0.250000  1
  Al  Al5  1  0.868691  0.867326  0.750000  1
  Al  Al6  1  0.004348  0.337795  0.072601  1
  Al  Al7  1  0.995744  0.661421  0.924770  1
  Al  Al8  1  0.995744  0.661421  0.575230  1
  Al  Al9  1  0.331725  0.000958  0.423553  1
  Al  Al10  1  0.004348  0.337795  0.427399  1
  Al  Al11  1  0.669144  0.999650  0.577920  1
  Al  Al12  1  0.669144  0.999650  0.922080  1
  Al  Al13  1  0.331725  0.000958  0.076447  1
  Al  Al14  1  0.332773  0.335001  0.554865  1
  Al  Al15  1  0.666351  0.664040  0.448735  1
  Al  Al16  1  0.666351  0.664040  0.051265  1
  Al  Al17  1  0.332773  0.335001  0.945135  1
  Al  Al18  1  0.336199  0.542787  0.250000  1
  Al  Al19  1  0.659399  0.455917  0.750000  1
  Al  Al20  1  0.545376  0.344871  0.250000  1
  Al  Al21  1  0.455122  0.658970  0.750000  1
  Pd  Pd22  1  0.671618  0.328662  0.999520  1
  Pd  Pd23  1  0.327698  0.670907  0.998813  1
  Pd  Pd24  1  0.327698  0.670907  0.501187  1
  Pd  Pd25  1  0.671618  0.328662  0.500480  1
  Pd  Pd26  1  0.000629  0.000182  0.999227  1
  Pd  Pd27  1  0.000629  0.000182  0.500773  1
