# generated using pymatgen
data_TiCd3P6N13
_symmetry_space_group_name_H-M   'P 1'
_cell_length_a   7.17025605
_cell_length_b   7.23898446
_cell_length_c   7.23898574
_cell_angle_alpha   109.66274578
_cell_angle_beta   109.27901268
_cell_angle_gamma   109.27901075
_symmetry_Int_Tables_number   1
_chemical_formula_structural   TiCd3P6N13
_chemical_formula_sum   'Ti1 Cd3 P6 N13'
_cell_volume   289.92978323
_cell_formula_units_Z   1
loop_
 _symmetry_equiv_pos_site_id
 _symmetry_equiv_pos_as_xyz
  1  'x, y, z'
loop_
 _atom_site_type_symbol
 _atom_site_label
 _atom_site_symmetry_multiplicity
 _atom_site_fract_x
 _atom_site_fract_y
 _atom_site_fract_z
 _atom_site_occupancy
  Ti  Ti0  1  0.680336  0.000000  0.000000  1
  Cd  Cd1  1  0.995929  0.000000  0.713379  1
  Cd  Cd2  1  0.995929  0.713379  0.000000  1
  Cd  Cd3  1  0.282549  0.286621  0.286621  1
  P  P4  1  0.254685  0.749594  0.500623  1
  P  P5  1  0.754062  0.248971  0.499377  1
  P  P6  1  0.754062  0.499377  0.248971  1
  P  P7  1  0.254685  0.500623  0.749594  1
  P  P8  1  0.505090  0.751029  0.250406  1
  P  P9  1  0.505090  0.250406  0.751029  1
  N  N10  1  0.952494  0.000000  0.000000  1
  N  N11  1  0.718100  0.270405  0.270405  1
  N  N12  1  0.281175  0.720534  0.278149  1
  N  N13  1  0.299065  0.567640  0.567640  1
  N  N14  1  0.560641  0.557615  0.279466  1
  N  N15  1  0.447695  0.729595  0.000000  1
  N  N16  1  0.003026  0.721851  0.442385  1
  N  N17  1  0.560641  0.279466  0.557615  1
  N  N18  1  0.731425  0.000000  0.432360  1
  N  N19  1  0.447695  0.000000  0.729595  1
  N  N20  1  0.731425  0.432360  0.000000  1
  N  N21  1  0.281175  0.278149  0.720534  1
  N  N22  1  0.003026  0.442385  0.721851  1
