# generated using pymatgen
data_Tb2Y3Co7(PRu)12
_symmetry_space_group_name_H-M   'P 1'
_cell_length_a   12.38798500
_cell_length_b   12.38798450
_cell_length_c   3.81511900
_cell_angle_alpha   90.00000000
_cell_angle_beta   90.00000000
_cell_angle_gamma   119.99999333
_symmetry_Int_Tables_number   1
_chemical_formula_structural   Tb2Y3Co7(PRu)12
_chemical_formula_sum   'Tb2 Y3 Co7 P12 Ru12'
_cell_volume   507.03749226
_cell_formula_units_Z   1
loop_
 _symmetry_equiv_pos_site_id
 _symmetry_equiv_pos_as_xyz
  1  'x, y, z'
loop_
 _atom_site_type_symbol
 _atom_site_label
 _atom_site_symmetry_multiplicity
 _atom_site_fract_x
 _atom_site_fract_y
 _atom_site_fract_z
 _atom_site_occupancy
  Tb  Tb0  1  0.666667  0.333333  0.000000  1
  Tb  Tb1  1  0.333333  0.666667  0.000000  1
  Y  Y2  1  0.181841  0.181571  0.500000  1
  Y  Y3  1  0.818429  0.000270  0.500000  1
  Y  Y4  1  0.999730  0.818159  0.500000  1
  Co  Co5  1  0.194412  0.823956  0.000000  1
  Co  Co6  1  0.629543  0.805588  0.000000  1
  Co  Co7  1  0.176044  0.370457  0.000000  1
  Co  Co8  1  0.715835  0.722424  0.500000  1
  Co  Co9  1  0.277576  0.993411  0.500000  1
  Co  Co10  1  0.006589  0.284165  0.500000  1
  Co  Co11  1  0.000000  0.000000  0.000000  1
  P  P12  1  0.364155  0.367461  0.000000  1
  P  P13  1  0.632539  0.996694  0.000000  1
  P  P14  1  0.003306  0.635845  0.000000  1
  P  P15  1  0.837460  0.312684  0.500000  1
  P  P16  1  0.687316  0.524777  0.500000  1
  P  P17  1  0.475223  0.162540  0.500000  1
  P  P18  1  0.316527  0.839282  0.500000  1
  P  P19  1  0.522755  0.683473  0.500000  1
  P  P20  1  0.160718  0.477245  0.500000  1
  P  P21  1  0.818382  0.824426  0.000000  1
  P  P22  1  0.175574  0.993956  0.000000  1
  P  P23  1  0.006044  0.181618  0.000000  1
  Ru  Ru24  1  0.549931  0.561695  0.000000  1
  Ru  Ru25  1  0.438305  0.988233  0.000000  1
  Ru  Ru26  1  0.011767  0.450069  0.000000  1
  Ru  Ru27  1  0.826699  0.197852  0.000000  1
  Ru  Ru28  1  0.802148  0.628847  0.000000  1
  Ru  Ru29  1  0.371153  0.173301  0.000000  1
  Ru  Ru30  1  0.638354  0.123433  0.500000  1
  Ru  Ru31  1  0.876567  0.514923  0.500000  1
  Ru  Ru32  1  0.485077  0.361646  0.500000  1
  Ru  Ru33  1  0.131135  0.648972  0.500000  1
  Ru  Ru34  1  0.517837  0.868865  0.500000  1
  Ru  Ru35  1  0.351028  0.482163  0.500000  1
