# generated using pymatgen
data_Tb15Sm(YSn4)4
_symmetry_space_group_name_H-M   'P 1'
_cell_length_a   8.07759274
_cell_length_b   8.22171056
_cell_length_c   15.55150702
_cell_angle_alpha   90.00682008
_cell_angle_beta   89.88243194
_cell_angle_gamma   89.94687245
_symmetry_Int_Tables_number   1
_chemical_formula_structural   Tb15Sm(YSn4)4
_chemical_formula_sum   'Tb15 Sm1 Y4 Sn16'
_cell_volume   1032.79829643
_cell_formula_units_Z   1
loop_
 _symmetry_equiv_pos_site_id
 _symmetry_equiv_pos_as_xyz
  1  'x, y, z'
loop_
 _atom_site_type_symbol
 _atom_site_label
 _atom_site_symmetry_multiplicity
 _atom_site_fract_x
 _atom_site_fract_y
 _atom_site_fract_z
 _atom_site_occupancy
  Tb  Tb0  1  0.366437  0.836352  0.877824  1
  Tb  Tb1  1  0.867113  0.663765  0.621567  1
  Tb  Tb2  1  0.632971  0.163340  0.378012  1
  Tb  Tb3  1  0.133846  0.336721  0.122395  1
  Tb  Tb4  1  0.633877  0.163483  0.122347  1
  Tb  Tb5  1  0.132917  0.336480  0.377954  1
  Tb  Tb6  1  0.367069  0.836411  0.621686  1
  Tb  Tb7  1  0.866624  0.663389  0.877906  1
  Tb  Tb8  1  0.520084  0.322190  0.902615  1
  Tb  Tb9  1  0.020767  0.178405  0.597728  1
  Tb  Tb10  1  0.479733  0.678316  0.402499  1
  Tb  Tb11  1  0.980305  0.821190  0.097693  1
  Tb  Tb12  1  0.480284  0.678536  0.097515  1
  Tb  Tb13  1  0.979632  0.821717  0.402461  1
  Tb  Tb14  1  0.520200  0.321857  0.596858  1
  Sm  Sm15  1  0.018227  0.179054  0.903378  1
  Y  Y16  1  0.198847  0.501914  0.749632  1
  Y  Y17  1  0.698581  0.997750  0.749415  1
  Y  Y18  1  0.801274  0.498163  0.250189  1
  Y  Y19  1  0.301433  0.001866  0.250222  1
  Sn  Sn20  1  0.295285  0.035034  0.042732  1
  Sn  Sn21  1  0.793070  0.464147  0.458058  1
  Sn  Sn22  1  0.707276  0.964570  0.541696  1
  Sn  Sn23  1  0.207258  0.537342  0.958667  1
  Sn  Sn24  1  0.703969  0.961763  0.958853  1
  Sn  Sn25  1  0.206879  0.535768  0.541617  1
  Sn  Sn26  1  0.293013  0.035790  0.458121  1
  Sn  Sn27  1  0.793471  0.464060  0.041901  1
  Sn  Sn28  1  0.564694  0.618668  0.749889  1
  Sn  Sn29  1  0.064983  0.880637  0.749831  1
  Sn  Sn30  1  0.435382  0.381621  0.250113  1
  Sn  Sn31  1  0.935318  0.118663  0.250115  1
  Sn  Sn32  1  0.330656  0.146715  0.749578  1
  Sn  Sn33  1  0.828005  0.354290  0.748887  1
  Sn  Sn34  1  0.670264  0.853139  0.249990  1
  Sn  Sn35  1  0.170255  0.646894  0.250059  1
