# generated using pymatgen
data_Na3Ca2PaO6
_symmetry_space_group_name_H-M   'P 1'
_cell_length_a   11.38322686
_cell_length_b   10.80883542
_cell_length_c   5.99958511
_cell_angle_alpha   79.67398797
_cell_angle_beta   69.09309834
_cell_angle_gamma   31.23293080
_symmetry_Int_Tables_number   1
_chemical_formula_structural   Na3Ca2PaO6
_chemical_formula_sum   'Na6 Ca4 Pa2 O12'
_cell_volume   345.27656369
_cell_formula_units_Z   2
loop_
 _symmetry_equiv_pos_site_id
 _symmetry_equiv_pos_as_xyz
  1  'x, y, z'
loop_
 _atom_site_type_symbol
 _atom_site_label
 _atom_site_symmetry_multiplicity
 _atom_site_fract_x
 _atom_site_fract_y
 _atom_site_fract_z
 _atom_site_occupancy
  Na  Na0  1  0.587695  0.587695  0.912305  1
  Na  Na1  1  0.912305  0.912305  0.587695  1
  Na  Na2  1  0.662305  0.662305  0.337695  1
  Na  Na3  1  0.337695  0.337695  0.662305  1
  Na  Na4  1  0.500000  0.500000  0.500000  1
  Na  Na5  1  0.750000  0.750000  0.750000  1
  Ca  Ca6  1  0.081064  0.081064  0.418936  1
  Ca  Ca7  1  0.831064  0.831064  0.168936  1
  Ca  Ca8  1  0.418936  0.418936  0.081064  1
  Ca  Ca9  1  0.168936  0.168936  0.831064  1
  Pa  Pa10  1  0.250000  0.250000  0.250000  1
  Pa  Pa11  1  0.000000  0.000000  0.000000  1
  O  O12  1  0.386031  0.957712  0.096382  1
  O  O13  1  0.096382  0.559873  0.386031  1
  O  O14  1  0.559873  0.096382  0.957712  1
  O  O15  1  0.153618  0.690127  0.863969  1
  O  O16  1  0.223006  0.776994  0.223006  1
  O  O17  1  0.292288  0.863969  0.690127  1
  O  O18  1  0.026994  0.473006  0.026994  1
  O  O19  1  0.473006  0.026994  0.473006  1
  O  O20  1  0.690127  0.153618  0.292288  1
  O  O21  1  0.863969  0.292288  0.153618  1
  O  O22  1  0.957712  0.386031  0.559873  1
  O  O23  1  0.776994  0.223006  0.776994  1
