# generated using pymatgen
data_Zr4Nb4GeAs3
_symmetry_space_group_name_H-M   'P 1'
_cell_length_a   7.09517022
_cell_length_b   3.64594600
_cell_length_c   8.61652870
_cell_angle_alpha   90.00000000
_cell_angle_beta   90.21216164
_cell_angle_gamma   90.00000000
_symmetry_Int_Tables_number   1
_chemical_formula_structural   Zr4Nb4GeAs3
_chemical_formula_sum   'Zr4 Nb4 Ge1 As3'
_cell_volume   222.89607058
_cell_formula_units_Z   1
loop_
 _symmetry_equiv_pos_site_id
 _symmetry_equiv_pos_as_xyz
  1  'x, y, z'
loop_
 _atom_site_type_symbol
 _atom_site_label
 _atom_site_symmetry_multiplicity
 _atom_site_fract_x
 _atom_site_fract_y
 _atom_site_fract_z
 _atom_site_occupancy
  Zr  Zr0  1  0.956727  0.250000  0.166910  1
  Zr  Zr1  1  0.456546  0.250000  0.333347  1
  Zr  Zr2  1  0.542906  0.749999  0.667410  1
  Zr  Zr3  1  0.043969  0.749999  0.833483  1
  Nb  Nb4  1  0.633780  0.749999  0.059548  1
  Nb  Nb5  1  0.133511  0.749999  0.440732  1
  Nb  Nb6  1  0.865111  0.250000  0.560484  1
  Nb  Nb7  1  0.366918  0.250000  0.938850  1
  Ge  Ge8  1  0.254145  0.749999  0.141657  1
  As  As9  1  0.754687  0.749999  0.357473  1
  As  As10  1  0.245077  0.250000  0.641942  1
  As  As11  1  0.746624  0.250000  0.858165  1
