# generated using pymatgen
data_Tb3Dy3CoTe2
_symmetry_space_group_name_H-M   'P 1'
_cell_length_a   8.37348800
_cell_length_b   8.37376188
_cell_length_c   3.91574700
_cell_angle_alpha   90.00000000
_cell_angle_beta   90.00000000
_cell_angle_gamma   119.99892596
_symmetry_Int_Tables_number   1
_chemical_formula_structural   Tb3Dy3CoTe2
_chemical_formula_sum   'Tb3 Dy3 Co1 Te2'
_cell_volume   237.78089922
_cell_formula_units_Z   1
loop_
 _symmetry_equiv_pos_site_id
 _symmetry_equiv_pos_as_xyz
  1  'x, y, z'
loop_
 _atom_site_type_symbol
 _atom_site_label
 _atom_site_symmetry_multiplicity
 _atom_site_fract_x
 _atom_site_fract_y
 _atom_site_fract_z
 _atom_site_occupancy
  Tb  Tb0  1  0.000000  0.401525  0.500000  1
  Tb  Tb1  1  0.598475  0.598475  0.500000  1
  Tb  Tb2  1  0.401526  0.000000  0.500000  1
  Dy  Dy3  1  0.999993  0.763538  0.000000  1
  Dy  Dy4  1  0.236455  0.236462  0.000000  1
  Dy  Dy5  1  0.763552  0.000000  0.000000  1
  Co  Co6  1  0.999998  0.000000  0.500000  1
  Te  Te7  1  0.333338  0.666675  0.000000  1
  Te  Te8  1  0.666664  0.333325  0.000000  1
