# generated using pymatgen
data_Zr10Zn2(InTe)3
_symmetry_space_group_name_H-M   'P 1'
_cell_length_a   8.71307000
_cell_length_b   8.71307090
_cell_length_c   5.86196500
_cell_angle_alpha   90.00000000
_cell_angle_beta   90.00000000
_cell_angle_gamma   119.99999660
_symmetry_Int_Tables_number   1
_chemical_formula_structural   Zr10Zn2(InTe)3
_chemical_formula_sum   'Zr10 Zn2 In3 Te3'
_cell_volume   385.40408948
_cell_formula_units_Z   1
loop_
 _symmetry_equiv_pos_site_id
 _symmetry_equiv_pos_as_xyz
  1  'x, y, z'
loop_
 _atom_site_type_symbol
 _atom_site_label
 _atom_site_symmetry_multiplicity
 _atom_site_fract_x
 _atom_site_fract_y
 _atom_site_fract_z
 _atom_site_occupancy
  Zr  Zr0  1  0.737080  0.737080  0.250000  1
  Zr  Zr1  1  0.262920  0.000000  0.250000  1
  Zr  Zr2  1  0.000000  0.262920  0.250000  1
  Zr  Zr3  1  0.276989  0.276989  0.750000  1
  Zr  Zr4  1  0.723011  0.000000  0.750000  1
  Zr  Zr5  1  0.000000  0.723011  0.750000  1
  Zr  Zr6  1  0.666667  0.333333  0.504185  1
  Zr  Zr7  1  0.333333  0.666667  0.504185  1
  Zr  Zr8  1  0.333333  0.666667  0.995815  1
  Zr  Zr9  1  0.666667  0.333333  0.995815  1
  Zn  Zn10  1  0.000000  0.000000  0.518246  1
  Zn  Zn11  1  0.000000  0.000000  0.981754  1
  In  In12  1  0.622725  0.622725  0.750000  1
  In  In13  1  0.377275  0.000000  0.750000  1
  In  In14  1  0.000000  0.377275  0.750000  1
  Te  Te15  1  0.390301  0.390301  0.250000  1
  Te  Te16  1  0.609699  0.000000  0.250000  1
  Te  Te17  1  0.000000  0.609699  0.250000  1
