# generated using pymatgen
data_DyHo2Mg3AgPb2
_symmetry_space_group_name_H-M   'P 1'
_cell_length_a   7.54542700
_cell_length_b   7.55048587
_cell_length_c   4.55409700
_cell_angle_alpha   90.00000000
_cell_angle_beta   90.00000000
_cell_angle_gamma   119.97784325
_symmetry_Int_Tables_number   1
_chemical_formula_structural   DyHo2Mg3AgPb2
_chemical_formula_sum   'Dy1 Ho2 Mg3 Ag1 Pb2'
_cell_volume   224.74422917
_cell_formula_units_Z   1
loop_
 _symmetry_equiv_pos_site_id
 _symmetry_equiv_pos_as_xyz
  1  'x, y, z'
loop_
 _atom_site_type_symbol
 _atom_site_label
 _atom_site_symmetry_multiplicity
 _atom_site_fract_x
 _atom_site_fract_y
 _atom_site_fract_z
 _atom_site_occupancy
  Dy  Dy0  1  0.587703  0.000000  0.000000  1
  Ho  Ho1  1  0.999901  0.587819  0.000000  1
  Ho  Ho2  1  0.412082  0.412181  0.000000  1
  Mg  Mg3  1  0.234496  0.000000  0.500000  1
  Mg  Mg4  1  0.000090  0.234620  0.500000  1
  Mg  Mg5  1  0.765469  0.765380  0.500000  1
  Ag  Ag6  1  0.000346  0.000000  0.000000  1
  Pb  Pb7  1  0.333084  0.666256  0.500000  1
  Pb  Pb8  1  0.666829  0.333744  0.500000  1
