# generated using pymatgen
data_Y5Ho(CoSn6)2
_symmetry_space_group_name_H-M   'P 1'
_cell_length_a   8.51605019
_cell_length_b   8.51605110
_cell_length_c   13.12120723
_cell_angle_alpha   89.94610049
_cell_angle_beta   90.05389840
_cell_angle_gamma   148.93893592
_symmetry_Int_Tables_number   1
_chemical_formula_structural   Y5Ho(CoSn6)2
_chemical_formula_sum   'Y5 Ho1 Co2 Sn12'
_cell_volume   490.97433482
_cell_formula_units_Z   1
loop_
 _symmetry_equiv_pos_site_id
 _symmetry_equiv_pos_as_xyz
  1  'x, y, z'
loop_
 _atom_site_type_symbol
 _atom_site_label
 _atom_site_symmetry_multiplicity
 _atom_site_fract_x
 _atom_site_fract_y
 _atom_site_fract_z
 _atom_site_occupancy
  Y  Y0  1  0.898698  0.101302  0.092868  1
  Y  Y1  1  0.101087  0.898913  0.592713  1
  Y  Y2  1  0.900465  0.099535  0.750391  1
  Y  Y3  1  0.100740  0.899260  0.907551  1
  Y  Y4  1  0.099713  0.900287  0.249802  1
  Ho  Ho5  1  0.898380  0.101620  0.406668  1
  Co  Co6  1  0.300524  0.699476  0.250456  1
  Co  Co7  1  0.699807  0.300193  0.749227  1
  Sn  Sn8  1  0.756993  0.243007  0.571651  1
  Sn  Sn9  1  0.428274  0.571726  0.575588  1
  Sn  Sn10  1  0.571650  0.428350  0.423572  1
  Sn  Sn11  1  0.734786  0.265214  0.250092  1
  Sn  Sn12  1  0.265396  0.734604  0.750197  1
  Sn  Sn13  1  0.244094  0.755906  0.071944  1
  Sn  Sn14  1  0.244583  0.755417  0.428472  1
  Sn  Sn15  1  0.571486  0.428514  0.076192  1
  Sn  Sn16  1  0.453795  0.546205  0.250540  1
  Sn  Sn17  1  0.546073  0.453927  0.750042  1
  Sn  Sn18  1  0.755688  0.244312  0.928095  1
  Sn  Sn19  1  0.427770  0.572230  0.923938  1
