# generated using pymatgen
data_Mg2ScTaRh4
_symmetry_space_group_name_H-M   'P 1'
_cell_length_a   4.47221300
_cell_length_b   6.35134300
_cell_length_c   13.37565400
_cell_angle_alpha   90.00000000
_cell_angle_beta   89.99936701
_cell_angle_gamma   90.00000000
_symmetry_Int_Tables_number   1
_chemical_formula_structural   Mg2ScTaRh4
_chemical_formula_sum   'Mg6 Sc3 Ta3 Rh12'
_cell_volume   379.92954961
_cell_formula_units_Z   3
loop_
 _symmetry_equiv_pos_site_id
 _symmetry_equiv_pos_as_xyz
  1  'x, y, z'
loop_
 _atom_site_type_symbol
 _atom_site_label
 _atom_site_symmetry_multiplicity
 _atom_site_fract_x
 _atom_site_fract_y
 _atom_site_fract_z
 _atom_site_occupancy
  Mg  Mg0  1  0.999997  0.000000  0.000784  1
  Mg  Mg1  1  0.500099  0.500000  0.166657  1
  Mg  Mg2  1  0.000101  0.000000  0.332566  1
  Mg  Mg3  1  0.499993  0.500000  0.500030  1
  Mg  Mg4  1  0.999899  0.000000  0.666688  1
  Mg  Mg5  1  0.499893  0.500000  0.833275  1
  Sc  Sc6  1  0.999990  0.500000  0.000643  1
  Sc  Sc7  1  0.500121  0.000000  0.166665  1
  Sc  Sc8  1  0.000099  0.500000  0.332656  1
  Ta  Ta9  1  0.500006  0.000000  0.498884  1
  Ta  Ta10  1  0.999904  0.500000  0.666665  1
  Ta  Ta11  1  0.499916  0.000000  0.834446  1
  Rh  Rh12  1  0.499993  0.246514  0.995115  1
  Rh  Rh13  1  0.499993  0.753485  0.995115  1
  Rh  Rh14  1  0.000102  0.250913  0.166686  1
  Rh  Rh15  1  0.000102  0.749088  0.166686  1
  Rh  Rh16  1  0.500097  0.246455  0.338233  1
  Rh  Rh17  1  0.500097  0.753546  0.338233  1
  Rh  Rh18  1  0.999999  0.244497  0.505228  1
  Rh  Rh19  1  0.999999  0.755504  0.505228  1
  Rh  Rh20  1  0.499899  0.251146  0.666654  1
  Rh  Rh21  1  0.499899  0.748855  0.666654  1
  Rh  Rh22  1  0.999901  0.244491  0.828106  1
  Rh  Rh23  1  0.999901  0.755510  0.828106  1
