# generated using pymatgen
data_CeDy2HoNi8
_symmetry_space_group_name_H-M   'P 1'
_cell_length_a   5.06251600
_cell_length_b   5.06251708
_cell_length_c   8.76187044
_cell_angle_alpha   73.20821862
_cell_angle_beta   90.00000000
_cell_angle_gamma   120.00000604
_symmetry_Int_Tables_number   1
_chemical_formula_structural   CeDy2HoNi8
_chemical_formula_sum   'Ce1 Dy2 Ho1 Ni8'
_cell_volume   183.33391383
_cell_formula_units_Z   1
loop_
 _symmetry_equiv_pos_site_id
 _symmetry_equiv_pos_as_xyz
  1  'x, y, z'
loop_
 _atom_site_type_symbol
 _atom_site_label
 _atom_site_symmetry_multiplicity
 _atom_site_fract_x
 _atom_site_fract_y
 _atom_site_fract_z
 _atom_site_occupancy
  Ce  Ce0  1  0.374359  0.748717  0.876924  1
  Dy  Dy1  1  0.999987  0.999975  0.000038  1
  Dy  Dy2  1  0.500254  0.000507  0.499237  1
  Ho  Ho3  1  0.875229  0.750459  0.374311  1
  Ni  Ni4  1  0.437795  0.373945  0.188260  1
  Ni  Ni5  1  0.937551  0.375716  0.686733  1
  Ni  Ni6  1  0.437795  0.875589  0.188260  1
  Ni  Ni7  1  0.937551  0.875102  0.686733  1
  Ni  Ni8  1  0.187592  0.375185  0.437223  1
  Ni  Ni9  1  0.687572  0.375143  0.937286  1
  Ni  Ni10  1  0.936150  0.373945  0.188260  1
  Ni  Ni11  1  0.438165  0.375716  0.686733  1
