# generated using pymatgen
data_Tm2Sc3Si7Pt7Rh2
_symmetry_space_group_name_H-M   'P 1'
_cell_length_a   10.05374112
_cell_length_b   10.00706696
_cell_length_c   3.92657700
_cell_angle_alpha   90.00000000
_cell_angle_beta   90.00000000
_cell_angle_gamma   119.66409827
_symmetry_Int_Tables_number   1
_chemical_formula_structural   Tm2Sc3Si7Pt7Rh2
_chemical_formula_sum   'Tm2 Sc3 Si7 Pt7 Rh2'
_cell_volume   343.27273586
_cell_formula_units_Z   1
loop_
 _symmetry_equiv_pos_site_id
 _symmetry_equiv_pos_as_xyz
  1  'x, y, z'
loop_
 _atom_site_type_symbol
 _atom_site_label
 _atom_site_symmetry_multiplicity
 _atom_site_fract_x
 _atom_site_fract_y
 _atom_site_fract_z
 _atom_site_occupancy
  Tm  Tm0  1  0.003680  0.999973  0.000000  1
  Tm  Tm1  1  0.330371  0.665926  0.500000  1
  Sc  Sc2  1  0.893232  0.454148  0.500000  1
  Sc  Sc3  1  0.560012  0.101655  0.500000  1
  Sc  Sc4  1  0.543621  0.439426  0.500000  1
  Si  Si5  1  0.244641  0.196731  0.500000  1
  Si  Si6  1  0.812509  0.054516  0.500000  1
  Si  Si7  1  0.956110  0.755766  0.500000  1
  Si  Si8  1  0.555141  0.647240  0.000000  1
  Si  Si9  1  0.348143  0.908940  0.000000  1
  Si  Si10  1  0.089806  0.441740  0.000000  1
  Si  Si11  1  0.665283  0.330911  0.000000  1
  Pt  Pt12  1  0.721257  0.783539  0.500000  1
  Pt  Pt13  1  0.313222  0.413289  0.000000  1
  Pt  Pt14  1  0.582657  0.899301  0.000000  1
  Pt  Pt15  1  0.097146  0.688300  0.000000  1
  Pt  Pt16  1  0.384162  0.172947  0.000000  1
  Pt  Pt17  1  0.826987  0.208458  0.000000  1
  Pt  Pt18  1  0.786692  0.613232  0.000000  1
  Rh  Rh19  1  0.221281  0.938647  0.500000  1
  Rh  Rh20  1  0.064048  0.285313  0.500000  1
