# generated using pymatgen
data_Er6Zn21Ni2C
_symmetry_space_group_name_H-M   'P 1'
_cell_length_a   8.86307499
_cell_length_b   8.87783895
_cell_length_c   8.86307400
_cell_angle_alpha   59.94403660
_cell_angle_beta   59.70363254
_cell_angle_gamma   59.94407284
_symmetry_Int_Tables_number   1
_chemical_formula_structural   Er6Zn21Ni2C
_chemical_formula_sum   'Er6 Zn21 Ni2 C1'
_cell_volume   491.60100141
_cell_formula_units_Z   1
loop_
 _symmetry_equiv_pos_site_id
 _symmetry_equiv_pos_as_xyz
  1  'x, y, z'
loop_
 _atom_site_type_symbol
 _atom_site_label
 _atom_site_symmetry_multiplicity
 _atom_site_fract_x
 _atom_site_fract_y
 _atom_site_fract_z
 _atom_site_occupancy
  Er  Er0  1  0.694512  0.302917  0.305490  1
  Er  Er1  1  0.305488  0.697083  0.694510  1
  Er  Er2  1  0.304255  0.695750  0.304255  1
  Er  Er3  1  0.695745  0.304250  0.695745  1
  Er  Er4  1  0.305490  0.302917  0.694512  1
  Er  Er5  1  0.694510  0.697083  0.305488  1
  Zn  Zn6  1  0.117290  0.114032  0.117290  1
  Zn  Zn7  1  0.882710  0.885968  0.882710  1
  Zn  Zn8  1  0.127144  0.112368  0.648117  1
  Zn  Zn9  1  0.117292  0.651395  0.117292  1
  Zn  Zn10  1  0.872856  0.887632  0.351883  1
  Zn  Zn11  1  0.882708  0.348605  0.882708  1
  Zn  Zn12  1  0.648117  0.112368  0.127144  1
  Zn  Zn13  1  0.351883  0.887632  0.872856  1
  Zn  Zn14  1  0.500000  0.000000  0.000000  1
  Zn  Zn15  1  0.000000  0.500000  0.500000  1
  Zn  Zn16  1  0.000000  0.500000  0.000000  1
  Zn  Zn17  1  0.000000  0.000000  0.500000  1
  Zn  Zn18  1  0.500000  0.500000  0.000000  1
  Zn  Zn19  1  0.332027  0.320009  0.332028  1
  Zn  Zn20  1  0.667973  0.679991  0.667972  1
  Zn  Zn21  1  0.327709  0.328381  0.015535  1
  Zn  Zn22  1  0.332030  0.015935  0.332030  1
  Zn  Zn23  1  0.672291  0.671619  0.984465  1
  Zn  Zn24  1  0.667970  0.984065  0.667970  1
  Zn  Zn25  1  0.015535  0.328381  0.327709  1
  Zn  Zn26  1  0.984465  0.671619  0.672291  1
  Ni  Ni27  1  0.500000  0.000000  0.500000  1
  Ni  Ni28  1  0.000000  0.000000  0.000000  1
  C  C29  1  0.500000  0.500000  0.500000  1
