# generated using pymatgen
data_Na9YbF20
_symmetry_space_group_name_H-M   'P 1'
_cell_length_a   6.14666632
_cell_length_b   7.39129311
_cell_length_c   9.27373374
_cell_angle_alpha   97.85242119
_cell_angle_beta   107.41614842
_cell_angle_gamma   91.39220443
_symmetry_Int_Tables_number   1
_chemical_formula_structural   Na9YbF20
_chemical_formula_sum   'Na9 Yb1 F20'
_cell_volume   397.28967107
_cell_formula_units_Z   1
loop_
 _symmetry_equiv_pos_site_id
 _symmetry_equiv_pos_as_xyz
  1  'x, y, z'
loop_
 _atom_site_type_symbol
 _atom_site_label
 _atom_site_symmetry_multiplicity
 _atom_site_fract_x
 _atom_site_fract_y
 _atom_site_fract_z
 _atom_site_occupancy
  Na  Na0  1  0.841479  0.632647  0.622269  1
  Na  Na1  1  0.000000  0.500000  0.000000  1
  Na  Na2  1  0.583998  0.183945  0.198193  1
  Na  Na3  1  0.791786  0.103067  0.605071  1
  Na  Na4  1  0.642495  0.717231  0.204507  1
  Na  Na5  1  0.158521  0.367353  0.377731  1
  Na  Na6  1  0.357505  0.282769  0.795493  1
  Na  Na7  1  0.208214  0.896933  0.394929  1
  Na  Na8  1  0.416002  0.816055  0.801807  1
  Yb  Yb9  1  0.000000  0.000000  0.000000  1
  F  F10  1  0.802929  0.356189  0.443159  1
  F  F11  1  0.656601  0.930116  0.045451  1
  F  F12  1  0.864329  0.823281  0.451959  1
  F  F13  1  0.984561  0.771197  0.146027  1
  F  F14  1  0.445149  0.525662  0.646048  1
  F  F15  1  0.618145  0.433735  0.039270  1
  F  F16  1  0.687541  0.411744  0.736094  1
  F  F17  1  0.242721  0.113991  0.236477  1
  F  F18  1  0.893086  0.280877  0.127769  1
  F  F19  1  0.571806  0.965263  0.358448  1
  F  F20  1  0.106914  0.719123  0.872231  1
  F  F21  1  0.428194  0.034737  0.641552  1
  F  F22  1  0.757279  0.886009  0.763523  1
  F  F23  1  0.381855  0.566265  0.960730  1
  F  F24  1  0.312459  0.588256  0.263906  1
  F  F25  1  0.015439  0.228803  0.853973  1
  F  F26  1  0.554851  0.474338  0.353952  1
  F  F27  1  0.135671  0.176719  0.548041  1
  F  F28  1  0.343399  0.069884  0.954549  1
  F  F29  1  0.197071  0.643811  0.556841  1
