# generated using pymatgen
data_Ac2Zn19Cu3
_symmetry_space_group_name_H-M   'P 1'
_cell_length_a   8.33332225
_cell_length_b   8.32334449
_cell_length_c   8.32332647
_cell_angle_alpha   99.71403889
_cell_angle_beta   99.96842309
_cell_angle_gamma   131.08539562
_symmetry_Int_Tables_number   1
_chemical_formula_structural   Ac2Zn19Cu3
_chemical_formula_sum   'Ac2 Zn19 Cu3'
_cell_volume   396.32777570
_cell_formula_units_Z   1
loop_
 _symmetry_equiv_pos_site_id
 _symmetry_equiv_pos_as_xyz
  1  'x, y, z'
loop_
 _atom_site_type_symbol
 _atom_site_label
 _atom_site_symmetry_multiplicity
 _atom_site_fract_x
 _atom_site_fract_y
 _atom_site_fract_z
 _atom_site_occupancy
  Ac  Ac0  1  0.250598  0.748961  0.501639  1
  Ac  Ac1  1  0.999402  0.001039  0.998361  1
  Zn  Zn2  1  0.893262  0.565810  0.082854  1
  Zn  Zn3  1  0.434913  0.515422  0.326239  1
  Zn  Zn4  1  0.487999  0.566975  0.672349  1
  Zn  Zn5  1  0.434914  0.108675  0.919490  1
  Zn  Zn6  1  0.762001  0.183025  0.827651  1
  Zn  Zn7  1  0.488000  0.815650  0.921024  1
  Zn  Zn8  1  0.507745  0.503384  0.004361  1
  Zn  Zn9  1  0.762000  0.934350  0.578976  1
  Zn  Zn10  1  0.742255  0.246616  0.495639  1
  Zn  Zn11  1  0.060438  0.648407  0.830424  1
  Zn  Zn12  1  0.125000  0.375000  0.750000  1
  Zn  Zn13  1  0.356738  0.184190  0.417146  1
  Zn  Zn14  1  0.815086  0.641325  0.580510  1
  Zn  Zn15  1  0.893259  0.810407  0.327452  1
  Zn  Zn16  1  0.189562  0.101593  0.669576  1
  Zn  Zn17  1  0.060440  0.230017  0.412030  1
  Zn  Zn18  1  0.356741  0.939593  0.172548  1
  Zn  Zn19  1  0.815087  0.234578  0.173761  1
  Zn  Zn20  1  0.189560  0.519983  0.087970  1
  Cu  Cu21  1  0.625000  0.875000  0.250000  1
  Cu  Cu22  1  0.625000  0.375000  0.250000  1
  Cu  Cu23  1  0.625000  0.375000  0.750000  1
