# generated using pymatgen
data_LuPu(AlB4)2
_symmetry_space_group_name_H-M   'P 1'
_cell_length_a   3.54889200
_cell_length_b   5.92624733
_cell_length_c   11.48821730
_cell_angle_alpha   89.92613865
_cell_angle_beta   90.00000000
_cell_angle_gamma   90.00000000
_symmetry_Int_Tables_number   1
_chemical_formula_structural   LuPu(AlB4)2
_chemical_formula_sum   'Lu2 Pu2 Al4 B16'
_cell_volume   241.61552515
_cell_formula_units_Z   2
loop_
 _symmetry_equiv_pos_site_id
 _symmetry_equiv_pos_as_xyz
  1  'x, y, z'
loop_
 _atom_site_type_symbol
 _atom_site_label
 _atom_site_symmetry_multiplicity
 _atom_site_fract_x
 _atom_site_fract_y
 _atom_site_fract_z
 _atom_site_occupancy
  Lu  Lu0  1  0.000000  0.129113  0.150310  1
  Lu  Lu1  1  0.000000  0.870887  0.849690  1
  Pu  Pu2  1  0.000000  0.630161  0.349348  1
  Pu  Pu3  1  0.000000  0.369839  0.650652  1
  Al  Al4  1  0.000000  0.638425  0.090977  1
  Al  Al5  1  0.000000  0.361575  0.909023  1
  Al  Al6  1  0.000000  0.139288  0.409825  1
  Al  Al7  1  0.000000  0.860712  0.590175  1
  B  B8  1  0.500000  0.791097  0.187177  1
  B  B9  1  0.500000  0.208903  0.812823  1
  B  B10  1  0.500000  0.290052  0.311788  1
  B  B11  1  0.500000  0.709948  0.688212  1
  B  B12  1  0.500000  0.867728  0.030894  1
  B  B13  1  0.500000  0.132272  0.969106  1
  B  B14  1  0.500000  0.366938  0.468480  1
  B  B15  1  0.500000  0.633062  0.531520  1
  B  B16  1  0.500000  0.886720  0.452464  1
  B  B17  1  0.500000  0.113280  0.547536  1
  B  B18  1  0.500000  0.384482  0.046676  1
  B  B19  1  0.500000  0.615518  0.953324  1
  B  B20  1  0.500000  0.974355  0.306289  1
  B  B21  1  0.500000  0.025645  0.693711  1
  B  B22  1  0.500000  0.472605  0.192473  1
  B  B23  1  0.500000  0.527395  0.807527  1
