# generated using pymatgen
data_Tb2MnC2
_symmetry_space_group_name_H-M   'P 1'
_cell_length_a   5.07347400
_cell_length_b   6.34047300
_cell_length_c   9.76215800
_cell_angle_alpha   90.00000000
_cell_angle_beta   90.00000000
_cell_angle_gamma   90.00000000
_symmetry_Int_Tables_number   1
_chemical_formula_structural   Tb2MnC2
_chemical_formula_sum   'Tb8 Mn4 C8'
_cell_volume   314.03129418
_cell_formula_units_Z   4
loop_
 _symmetry_equiv_pos_site_id
 _symmetry_equiv_pos_as_xyz
  1  'x, y, z'
loop_
 _atom_site_type_symbol
 _atom_site_label
 _atom_site_symmetry_multiplicity
 _atom_site_fract_x
 _atom_site_fract_y
 _atom_site_fract_z
 _atom_site_occupancy
  Tb  Tb0  1  0.750000  0.815178  0.054321  1
  Tb  Tb1  1  0.250000  0.684822  0.554321  1
  Tb  Tb2  1  0.750000  0.315178  0.445679  1
  Tb  Tb3  1  0.250000  0.184822  0.945679  1
  Tb  Tb4  1  0.750000  0.476204  0.786294  1
  Tb  Tb5  1  0.250000  0.023796  0.286294  1
  Tb  Tb6  1  0.750000  0.976204  0.713706  1
  Tb  Tb7  1  0.250000  0.523796  0.213706  1
  Mn  Mn8  1  0.750000  0.271470  0.144492  1
  Mn  Mn9  1  0.250000  0.228530  0.644492  1
  Mn  Mn10  1  0.750000  0.771470  0.355508  1
  Mn  Mn11  1  0.250000  0.728530  0.855508  1
  C  C12  1  0.750000  0.193242  0.967414  1
  C  C13  1  0.250000  0.806758  0.032586  1
  C  C14  1  0.750000  0.693242  0.532586  1
  C  C15  1  0.250000  0.306758  0.467414  1
  C  C16  1  0.750000  0.035954  0.259271  1
  C  C17  1  0.250000  0.464046  0.759271  1
  C  C18  1  0.750000  0.535954  0.240729  1
  C  C19  1  0.250000  0.964046  0.740729  1
