# generated using pymatgen
data_Li8Ac7DyGe8
_symmetry_space_group_name_H-M   'P 1'
_cell_length_a   9.27241500
_cell_length_b   9.27241393
_cell_length_c   7.94474000
_cell_angle_alpha   90.00000000
_cell_angle_beta   90.00000000
_cell_angle_gamma   120.00000024
_symmetry_Int_Tables_number   1
_chemical_formula_structural   Li8Ac7DyGe8
_chemical_formula_sum   'Li8 Ac7 Dy1 Ge8'
_cell_volume   591.55617394
_cell_formula_units_Z   1
loop_
 _symmetry_equiv_pos_site_id
 _symmetry_equiv_pos_as_xyz
  1  'x, y, z'
loop_
 _atom_site_type_symbol
 _atom_site_label
 _atom_site_symmetry_multiplicity
 _atom_site_fract_x
 _atom_site_fract_y
 _atom_site_fract_z
 _atom_site_occupancy
  Li  Li0  1  0.834927  0.165073  0.722453  1
  Li  Li1  1  0.834927  0.669853  0.722453  1
  Li  Li2  1  0.330147  0.165073  0.722453  1
  Li  Li3  1  0.163609  0.836391  0.206109  1
  Li  Li4  1  0.163609  0.327218  0.206109  1
  Li  Li5  1  0.672782  0.836391  0.206109  1
  Li  Li6  1  0.666667  0.333333  0.328030  1
  Li  Li7  1  0.333333  0.666667  0.835090  1
  Ac  Ac8  1  0.487311  0.512689  0.503649  1
  Ac  Ac9  1  0.487311  0.974622  0.503649  1
  Ac  Ac10  1  0.025378  0.512689  0.503649  1
  Ac  Ac11  1  0.513117  0.486883  0.004378  1
  Ac  Ac12  1  0.513117  0.026232  0.004378  1
  Ac  Ac13  1  0.973768  0.486883  0.004378  1
  Ac  Ac14  1  0.000000  0.000000  0.493605  1
  Dy  Dy15  1  0.000000  0.000000  0.987063  1
  Ge  Ge16  1  0.834786  0.165214  0.270342  1
  Ge  Ge17  1  0.834786  0.669573  0.270342  1
  Ge  Ge18  1  0.330427  0.165214  0.270342  1
  Ge  Ge19  1  0.162178  0.837822  0.785068  1
  Ge  Ge20  1  0.162178  0.324356  0.785068  1
  Ge  Ge21  1  0.675644  0.837822  0.785068  1
  Ge  Ge22  1  0.666667  0.333333  0.715771  1
  Ge  Ge23  1  0.333333  0.666667  0.222456  1
