# generated using pymatgen
data_Ba5Sb2Cl2O9
_symmetry_space_group_name_H-M   'P 1'
_cell_length_a   6.03980700
_cell_length_b   6.03980649
_cell_length_c   25.22200100
_cell_angle_alpha   90.00000000
_cell_angle_beta   90.00000000
_cell_angle_gamma   119.99999730
_symmetry_Int_Tables_number   1
_chemical_formula_structural   Ba5Sb2Cl2O9
_chemical_formula_sum   'Ba10 Sb4 Cl4 O18'
_cell_volume   796.81273750
_cell_formula_units_Z   2
loop_
 _symmetry_equiv_pos_site_id
 _symmetry_equiv_pos_as_xyz
  1  'x, y, z'
loop_
 _atom_site_type_symbol
 _atom_site_label
 _atom_site_symmetry_multiplicity
 _atom_site_fract_x
 _atom_site_fract_y
 _atom_site_fract_z
 _atom_site_occupancy
  Ba  Ba0  1  0.666667  0.333333  0.830794  1
  Ba  Ba1  1  0.333333  0.666667  0.169206  1
  Ba  Ba2  1  0.333333  0.666667  0.582349  1
  Ba  Ba3  1  0.333333  0.666667  0.330794  1
  Ba  Ba4  1  0.333333  0.666667  0.917651  1
  Ba  Ba5  1  0.666667  0.333333  0.082349  1
  Ba  Ba6  1  0.666667  0.333333  0.417651  1
  Ba  Ba7  1  0.666667  0.333333  0.669206  1
  Ba  Ba8  1  0.666667  0.333333  0.250000  1
  Ba  Ba9  1  0.333333  0.666667  0.750000  1
  Sb  Sb10  1  0.000000  0.000000  0.808990  1
  Sb  Sb11  1  0.000000  0.000000  0.308990  1
  Sb  Sb12  1  0.000000  0.000000  0.191010  1
  Sb  Sb13  1  0.000000  0.000000  0.691010  1
  Cl  Cl14  1  0.666667  0.333333  0.546029  1
  Cl  Cl15  1  0.333333  0.666667  0.453971  1
  Cl  Cl16  1  0.333333  0.666667  0.046029  1
  Cl  Cl17  1  0.666667  0.333333  0.953971  1
  O  O18  1  0.146513  0.293025  0.250000  1
  O  O19  1  0.164823  0.835177  0.844506  1
  O  O20  1  0.835177  0.164823  0.155494  1
  O  O21  1  0.835177  0.670354  0.155494  1
  O  O22  1  0.164823  0.329646  0.844506  1
  O  O23  1  0.835177  0.670354  0.344506  1
  O  O24  1  0.706975  0.853487  0.250000  1
  O  O25  1  0.853487  0.146513  0.750000  1
  O  O26  1  0.670354  0.835177  0.655494  1
  O  O27  1  0.329646  0.164823  0.344506  1
  O  O28  1  0.853487  0.706975  0.750000  1
  O  O29  1  0.835177  0.164823  0.344506  1
  O  O30  1  0.670354  0.835177  0.844506  1
  O  O31  1  0.164823  0.329646  0.655494  1
  O  O32  1  0.164823  0.835177  0.655494  1
  O  O33  1  0.293025  0.146513  0.750000  1
  O  O34  1  0.146513  0.853487  0.250000  1
  O  O35  1  0.329646  0.164823  0.155494  1
