# generated using pymatgen
data_YHo4Sn3P
_symmetry_space_group_name_H-M   'P 1'
_cell_length_a   9.03594400
_cell_length_b   9.03594569
_cell_length_c   6.66456200
_cell_angle_alpha   90.00000000
_cell_angle_beta   90.00000000
_cell_angle_gamma   119.99999382
_symmetry_Int_Tables_number   1
_chemical_formula_structural   YHo4Sn3P
_chemical_formula_sum   'Y2 Ho8 Sn6 P2'
_cell_volume   471.24788475
_cell_formula_units_Z   2
loop_
 _symmetry_equiv_pos_site_id
 _symmetry_equiv_pos_as_xyz
  1  'x, y, z'
loop_
 _atom_site_type_symbol
 _atom_site_label
 _atom_site_symmetry_multiplicity
 _atom_site_fract_x
 _atom_site_fract_y
 _atom_site_fract_z
 _atom_site_occupancy
  Y  Y0  1  0.666667  0.333333  0.000000  1
  Y  Y1  1  0.333333  0.666667  0.000000  1
  Ho  Ho2  1  0.333333  0.666667  0.500000  1
  Ho  Ho3  1  0.666667  0.333333  0.500000  1
  Ho  Ho4  1  0.758240  0.758240  0.749879  1
  Ho  Ho5  1  0.241760  0.000000  0.749879  1
  Ho  Ho6  1  0.000000  0.241760  0.749879  1
  Ho  Ho7  1  0.241760  0.241760  0.250121  1
  Ho  Ho8  1  0.758240  0.000000  0.250121  1
  Ho  Ho9  1  0.000000  0.758240  0.250121  1
  Sn  Sn10  1  0.397874  0.397874  0.749280  1
  Sn  Sn11  1  0.602126  0.000000  0.749280  1
  Sn  Sn12  1  0.000000  0.602126  0.749280  1
  Sn  Sn13  1  0.602126  0.602126  0.250720  1
  Sn  Sn14  1  0.397874  0.000000  0.250720  1
  Sn  Sn15  1  0.000000  0.397874  0.250720  1
  P  P16  1  0.000000  0.000000  0.000000  1
  P  P17  1  0.000000  0.000000  0.500000  1
