# generated using pymatgen
data_Tb2YCu2(AgSn2)2
_symmetry_space_group_name_H-M   'P 1'
_cell_length_a   4.52973155
_cell_length_b   7.23094308
_cell_length_c   8.67600214
_cell_angle_alpha   115.37225168
_cell_angle_beta   105.13234258
_cell_angle_gamma   89.99999956
_symmetry_Int_Tables_number   1
_chemical_formula_structural   Tb2YCu2(AgSn2)2
_chemical_formula_sum   'Tb2 Y1 Cu2 Ag2 Sn4'
_cell_volume   245.81500330
_cell_formula_units_Z   1
loop_
 _symmetry_equiv_pos_site_id
 _symmetry_equiv_pos_as_xyz
  1  'x, y, z'
loop_
 _atom_site_type_symbol
 _atom_site_label
 _atom_site_symmetry_multiplicity
 _atom_site_fract_x
 _atom_site_fract_y
 _atom_site_fract_z
 _atom_site_occupancy
  Tb  Tb0  1  0.871385  0.347683  0.742770  1
  Tb  Tb1  1  0.128615  0.652317  0.257230  1
  Y  Y2  1  0.000000  0.000000  0.000000  1
  Cu  Cu3  1  0.340960  0.027601  0.681920  1
  Cu  Cu4  1  0.659040  0.972399  0.318080  1
  Ag  Ag5  1  0.317568  0.621817  0.635136  1
  Ag  Ag6  1  0.682432  0.378183  0.364864  1
  Sn  Sn7  1  0.217323  0.178139  0.434646  1
  Sn  Sn8  1  0.782677  0.821861  0.565354  1
  Sn  Sn9  1  0.505462  0.306824  0.010922  1
  Sn  Sn10  1  0.494538  0.693176  0.989078  1
