# generated using pymatgen
data_LaNd3(MoN3)4
_symmetry_space_group_name_H-M   'P 1'
_cell_length_a   7.37009326
_cell_length_b   7.37009365
_cell_length_c   6.33058000
_cell_angle_alpha   75.08758496
_cell_angle_beta   75.08758416
_cell_angle_gamma   83.15923742
_symmetry_Int_Tables_number   1
_chemical_formula_structural   LaNd3(MoN3)4
_chemical_formula_sum   'La1 Nd3 Mo4 N12'
_cell_volume   320.57826961
_cell_formula_units_Z   1
loop_
 _symmetry_equiv_pos_site_id
 _symmetry_equiv_pos_as_xyz
  1  'x, y, z'
loop_
 _atom_site_type_symbol
 _atom_site_label
 _atom_site_symmetry_multiplicity
 _atom_site_fract_x
 _atom_site_fract_y
 _atom_site_fract_z
 _atom_site_occupancy
  La  La0  1  0.311216  0.688784  0.750000  1
  Nd  Nd1  1  0.907168  0.092832  0.750000  1
  Nd  Nd2  1  0.688702  0.311298  0.250000  1
  Nd  Nd3  1  0.088286  0.911714  0.250000  1
  Mo  Mo4  1  0.801652  0.620761  0.753942  1
  Mo  Mo5  1  0.199828  0.378382  0.247707  1
  Mo  Mo6  1  0.621618  0.800172  0.252293  1
  Mo  Mo7  1  0.379239  0.198348  0.746058  1
  N  N8  1  0.219900  0.002715  0.846921  1
  N  N9  1  0.341023  0.368628  0.475789  1
  N  N10  1  0.664462  0.631247  0.521518  1
  N  N11  1  0.613330  0.109039  0.649301  1
  N  N12  1  0.997285  0.780100  0.653079  1
  N  N13  1  0.774903  0.001351  0.153155  1
  N  N14  1  0.115879  0.614228  0.150745  1
  N  N15  1  0.890961  0.386670  0.850699  1
  N  N16  1  0.998649  0.225097  0.346845  1
  N  N17  1  0.368753  0.335538  0.978482  1
  N  N18  1  0.631372  0.658977  0.024211  1
  N  N19  1  0.385772  0.884121  0.349255  1
