# generated using pymatgen
data_Pr2Cd2In6Pd
_symmetry_space_group_name_H-M   'P 1'
_cell_length_a   4.78921200
_cell_length_b   4.67573200
_cell_length_c   12.42481700
_cell_angle_alpha   90.00000000
_cell_angle_beta   90.00000000
_cell_angle_gamma   90.00000000
_symmetry_Int_Tables_number   1
_chemical_formula_structural   Pr2Cd2In6Pd
_chemical_formula_sum   'Pr2 Cd2 In6 Pd1'
_cell_volume   278.22981922
_cell_formula_units_Z   1
loop_
 _symmetry_equiv_pos_site_id
 _symmetry_equiv_pos_as_xyz
  1  'x, y, z'
loop_
 _atom_site_type_symbol
 _atom_site_label
 _atom_site_symmetry_multiplicity
 _atom_site_fract_x
 _atom_site_fract_y
 _atom_site_fract_z
 _atom_site_occupancy
  Pr  Pr0  1  0.000000  0.000000  0.309563  1
  Pr  Pr1  1  0.000000  0.000000  0.692435  1
  Cd  Cd2  1  0.500000  0.000000  0.122861  1
  Cd  Cd3  1  0.500000  0.000000  0.499297  1
  In  In4  1  0.000000  0.500000  0.122639  1
  In  In5  1  0.500000  0.500000  0.308767  1
  In  In6  1  0.000000  0.500000  0.500284  1
  In  In7  1  0.500000  0.500000  0.688955  1
  In  In8  1  0.500000  0.000000  0.881078  1
  In  In9  1  0.000000  0.500000  0.876991  1
  Pd  Pd10  1  0.000000  0.000000  0.997130  1
