# generated using pymatgen
data_Cs4Zr6AsBr18
_symmetry_space_group_name_H-M   'P 1'
_cell_length_a   10.94317558
_cell_length_b   11.28105527
_cell_length_c   11.37262397
_cell_angle_alpha   118.25260022
_cell_angle_beta   100.53559710
_cell_angle_gamma   104.36872110
_symmetry_Int_Tables_number   1
_chemical_formula_structural   Cs4Zr6AsBr18
_chemical_formula_sum   'Cs4 Zr6 As1 Br18'
_cell_volume   1121.37070844
_cell_formula_units_Z   1
loop_
 _symmetry_equiv_pos_site_id
 _symmetry_equiv_pos_as_xyz
  1  'x, y, z'
loop_
 _atom_site_type_symbol
 _atom_site_label
 _atom_site_symmetry_multiplicity
 _atom_site_fract_x
 _atom_site_fract_y
 _atom_site_fract_z
 _atom_site_occupancy
  Cs  Cs0  1  0.663322  0.537577  0.231493  1
  Cs  Cs1  1  0.336678  0.462423  0.768507  1
  Cs  Cs2  1  0.699312  0.228908  0.565338  1
  Cs  Cs3  1  0.300688  0.771092  0.434662  1
  Zr  Zr4  1  0.154129  0.057348  0.232577  1
  Zr  Zr5  1  0.845871  0.942652  0.767423  1
  Zr  Zr6  1  0.858576  0.124082  0.130680  1
  Zr  Zr7  1  0.141424  0.875918  0.869320  1
  Zr  Zr8  1  0.148448  0.241222  0.045855  1
  Zr  Zr9  1  0.851552  0.758778  0.954145  1
  As  As10  1  0.000000  0.000000  0.000000  1
  Br  Br11  1  0.007253  0.394262  0.188862  1
  Br  Br12  1  0.992747  0.605738  0.811138  1
  Br  Br13  1  0.324939  0.325049  0.303112  1
  Br  Br14  1  0.675061  0.674951  0.696888  1
  Br  Br15  1  0.312400  0.504096  0.098292  1
  Br  Br16  1  0.687600  0.495904  0.901708  1
  Br  Br17  1  0.004123  0.802946  0.203324  1
  Br  Br18  1  0.995877  0.197054  0.796676  1
  Br  Br19  1  0.708741  0.257505  0.271171  1
  Br  Br20  1  0.291259  0.742495  0.728829  1
  Br  Br21  1  0.312202  0.127390  0.909875  1
  Br  Br22  1  0.687798  0.872610  0.090125  1
  Br  Br23  1  0.015206  0.196986  0.393511  1
  Br  Br24  1  0.984794  0.803014  0.606489  1
  Br  Br25  1  0.316264  0.928927  0.110303  1
  Br  Br26  1  0.683736  0.071073  0.889697  1
  Br  Br27  1  0.325041  0.119770  0.484762  1
  Br  Br28  1  0.674959  0.880230  0.515238  1
