# generated using pymatgen
data_Dy2MgCdPt2
_symmetry_space_group_name_H-M   'P 1'
_cell_length_a   4.13049200
_cell_length_b   7.16219800
_cell_length_c   8.76394600
_cell_angle_alpha   90.00000000
_cell_angle_beta   90.00000000
_cell_angle_gamma   90.00000000
_symmetry_Int_Tables_number   1
_chemical_formula_structural   Dy2MgCdPt2
_chemical_formula_sum   'Dy4 Mg2 Cd2 Pt4'
_cell_volume   259.26733361
_cell_formula_units_Z   2
loop_
 _symmetry_equiv_pos_site_id
 _symmetry_equiv_pos_as_xyz
  1  'x, y, z'
loop_
 _atom_site_type_symbol
 _atom_site_label
 _atom_site_symmetry_multiplicity
 _atom_site_fract_x
 _atom_site_fract_y
 _atom_site_fract_z
 _atom_site_occupancy
  Dy  Dy0  1  0.250000  0.043044  0.323443  1
  Dy  Dy1  1  0.250000  0.543044  0.176557  1
  Dy  Dy2  1  0.750000  0.958697  0.676200  1
  Dy  Dy3  1  0.750000  0.458697  0.823800  1
  Mg  Mg4  1  0.250000  0.132497  0.942053  1
  Mg  Mg5  1  0.250000  0.632497  0.557947  1
  Cd  Cd6  1  0.750000  0.861367  0.062770  1
  Cd  Cd7  1  0.750000  0.361367  0.437230  1
  Pt  Pt8  1  0.250000  0.243410  0.640116  1
  Pt  Pt9  1  0.250000  0.743410  0.859884  1
  Pt  Pt10  1  0.750000  0.760985  0.379926  1
  Pt  Pt11  1  0.750000  0.260985  0.120074  1
