# generated using pymatgen
data_La6Pr9Th(CdIr)4
_symmetry_space_group_name_H-M   'P 1'
_cell_length_a   10.06436869
_cell_length_b   10.06260169
_cell_length_c   10.10331614
_cell_angle_alpha   59.78690293
_cell_angle_beta   60.13900030
_cell_angle_gamma   60.32276205
_symmetry_Int_Tables_number   1
_chemical_formula_structural   La6Pr9Th(CdIr)4
_chemical_formula_sum   'La6 Pr9 Th1 Cd4 Ir4'
_cell_volume   724.83840926
_cell_formula_units_Z   1
loop_
 _symmetry_equiv_pos_site_id
 _symmetry_equiv_pos_as_xyz
  1  'x, y, z'
loop_
 _atom_site_type_symbol
 _atom_site_label
 _atom_site_symmetry_multiplicity
 _atom_site_fract_x
 _atom_site_fract_y
 _atom_site_fract_z
 _atom_site_occupancy
  La  La0  1  0.348049  0.346236  0.958011  1
  La  La1  1  0.349448  0.956652  0.346966  1
  La  La2  1  0.957855  0.348281  0.347832  1
  La  La3  1  0.810221  0.189818  0.188371  1
  La  La4  1  0.187894  0.810910  0.809254  1
  La  La5  1  0.189579  0.810506  0.189564  1
  Pr  Pr6  1  0.807555  0.191320  0.807987  1
  Pr  Pr7  1  0.190779  0.192470  0.807382  1
  Pr  Pr8  1  0.805885  0.807888  0.190792  1
  Pr  Pr9  1  0.939197  0.562587  0.563833  1
  Pr  Pr10  1  0.562013  0.937521  0.936438  1
  Pr  Pr11  1  0.562660  0.940287  0.562895  1
  Pr  Pr12  1  0.938020  0.560934  0.937364  1
  Pr  Pr13  1  0.562468  0.561498  0.940424  1
  Pr  Pr14  1  0.938083  0.938372  0.561121  1
  Th  Th15  1  0.343641  0.344774  0.346371  1
  Cd  Cd16  1  0.580883  0.579022  0.579182  1
  Cd  Cd17  1  0.579602  0.579032  0.259241  1
  Cd  Cd18  1  0.578424  0.259322  0.579748  1
  Cd  Cd19  1  0.259326  0.577612  0.579542  1
  Ir  Ir20  1  0.139350  0.140067  0.145101  1
  Ir  Ir21  1  0.148145  0.143223  0.570375  1
  Ir  Ir22  1  0.149691  0.572456  0.143994  1
  Ir  Ir23  1  0.571229  0.149207  0.148210  1
