# generated using pymatgen
data_Hf3Ti5Al15Ru7
_symmetry_space_group_name_H-M   'P 1'
_cell_length_a   8.73876495
_cell_length_b   8.73058811
_cell_length_c   8.73757366
_cell_angle_alpha   120.14175638
_cell_angle_beta   120.04264461
_cell_angle_gamma   89.86343796
_symmetry_Int_Tables_number   1
_chemical_formula_structural   Hf3Ti5Al15Ru7
_chemical_formula_sum   'Hf3 Ti5 Al15 Ru7'
_cell_volume   470.62431172
_cell_formula_units_Z   1
loop_
 _symmetry_equiv_pos_site_id
 _symmetry_equiv_pos_as_xyz
  1  'x, y, z'
loop_
 _atom_site_type_symbol
 _atom_site_label
 _atom_site_symmetry_multiplicity
 _atom_site_fract_x
 _atom_site_fract_y
 _atom_site_fract_z
 _atom_site_occupancy
  Hf  Hf0  1  0.798648  0.284600  0.071978  1
  Hf  Hf1  1  0.212547  0.284768  0.486085  1
  Hf  Hf2  1  0.210081  0.704611  0.494690  1
  Ti  Ti3  1  0.223809  0.727584  0.940185  1
  Ti  Ti4  1  0.787241  0.727653  0.503817  1
  Ti  Ti5  1  0.775843  0.272313  0.496609  1
  Ti  Ti6  1  0.377604  0.122465  0.744964  1
  Ti  Ti7  1  0.381893  0.638991  0.256485  1
  Al  Al8  1  0.987268  0.503462  0.516500  1
  Al  Al9  1  0.167428  0.334749  0.167210  1
  Al  Al10  1  0.155635  0.972188  0.816840  1
  Al  Al11  1  0.151701  0.348418  0.809918  1
  Al  Al12  1  0.538579  0.348230  0.196621  1
  Al  Al13  1  0.847947  0.651476  0.803833  1
  Al  Al14  1  0.837451  0.022533  0.184960  1
  Al  Al15  1  0.835640  0.661046  0.181808  1
  Al  Al16  1  0.479315  0.661203  0.825662  1
  Al  Al17  1  0.383835  0.119515  0.256973  1
  Al  Al18  1  0.862559  0.119654  0.735714  1
  Al  Al19  1  0.618419  0.877694  0.259070  1
  Al  Al20  1  0.620913  0.363711  0.742778  1
  Al  Al21  1  0.620377  0.875423  0.740106  1
  Al  Al22  1  0.135313  0.875334  0.254882  1
  Ru  Ru23  1  0.000019  0.000210  0.502462  1
  Ru  Ru24  1  0.497700  0.000194  0.000247  1
  Ru  Ru25  1  0.497320  0.498580  0.001242  1
  Ru  Ru26  1  0.497851  0.500354  0.501643  1
  Ru  Ru27  1  0.998611  0.500311  0.002452  1
  Ru  Ru28  1  0.999978  0.003304  0.003354  1
  Ru  Ru29  1  0.498472  0.999423  0.500914  1
