# generated using pymatgen
data_Ho10(SnBi)3
_symmetry_space_group_name_H-M   'P 1'
_cell_length_a   9.03492400
_cell_length_b   9.03283152
_cell_length_c   6.43491600
_cell_angle_alpha   90.00000000
_cell_angle_beta   90.00000000
_cell_angle_gamma   120.00765599
_symmetry_Int_Tables_number   1
_chemical_formula_structural   Ho10(SnBi)3
_chemical_formula_sum   'Ho10 Sn3 Bi3'
_cell_volume   454.76645020
_cell_formula_units_Z   1
loop_
 _symmetry_equiv_pos_site_id
 _symmetry_equiv_pos_as_xyz
  1  'x, y, z'
loop_
 _atom_site_type_symbol
 _atom_site_label
 _atom_site_symmetry_multiplicity
 _atom_site_fract_x
 _atom_site_fract_y
 _atom_site_fract_z
 _atom_site_occupancy
  Ho  Ho0  1  0.995326  0.757913  0.750000  1
  Ho  Ho1  1  0.995426  0.234656  0.250000  1
  Ho  Ho2  1  0.760770  0.765344  0.250000  1
  Ho  Ho3  1  0.763969  0.000000  0.750000  1
  Ho  Ho4  1  0.237413  0.242087  0.750000  1
  Ho  Ho5  1  0.240961  0.000000  0.250000  1
  Ho  Ho6  1  0.335220  0.666500  0.501808  1
  Ho  Ho7  1  0.668721  0.333500  0.998192  1
  Ho  Ho8  1  0.668721  0.333500  0.501808  1
  Ho  Ho9  1  0.335220  0.666500  0.998192  1
  Sn  Sn10  1  0.000580  0.395138  0.750000  1
  Sn  Sn11  1  0.605441  0.604862  0.750000  1
  Sn  Sn12  1  0.604529  0.000000  0.250000  1
  Bi  Bi13  1  0.392682  0.000000  0.750000  1
  Bi  Bi14  1  0.394074  0.393127  0.250000  1
  Bi  Bi15  1  0.000947  0.606873  0.250000  1
