# generated using pymatgen
data_Ca2LaNi6B2Rh
_symmetry_space_group_name_H-M   'P 1'
_cell_length_a   7.94221115
_cell_length_b   7.94221155
_cell_length_c   7.94220940
_cell_angle_alpha   37.75993061
_cell_angle_beta   37.75993812
_cell_angle_gamma   37.75993102
_symmetry_Int_Tables_number   1
_chemical_formula_structural   Ca2LaNi6B2Rh
_chemical_formula_sum   'Ca2 La1 Ni6 B2 Rh1'
_cell_volume   168.55564752
_cell_formula_units_Z   1
loop_
 _symmetry_equiv_pos_site_id
 _symmetry_equiv_pos_as_xyz
  1  'x, y, z'
loop_
 _atom_site_type_symbol
 _atom_site_label
 _atom_site_symmetry_multiplicity
 _atom_site_fract_x
 _atom_site_fract_y
 _atom_site_fract_z
 _atom_site_occupancy
  Ca  Ca0  1  0.358128  0.358128  0.358128  1
  Ca  Ca1  1  0.498123  0.498123  0.498123  1
  La  La2  1  0.644382  0.644382  0.644382  1
  Ni  Ni3  1  0.566680  0.060209  0.060209  1
  Ni  Ni4  1  0.060209  0.060209  0.566680  1
  Ni  Ni5  1  0.060209  0.566680  0.060209  1
  Ni  Ni6  1  0.940000  0.432346  0.940000  1
  Ni  Ni7  1  0.940000  0.940000  0.432346  1
  Ni  Ni8  1  0.432346  0.940000  0.940000  1
  B  B9  1  0.831776  0.831776  0.831776  1
  B  B10  1  0.168085  0.168085  0.168085  1
  Rh  Rh11  1  0.000061  0.000061  0.000061  1
