# generated using pymatgen
data_TbNdFe2(WO6)2
_symmetry_space_group_name_H-M   'P 1'
_cell_length_a   5.32136550
_cell_length_b   7.51087415
_cell_length_c   11.12179400
_cell_angle_alpha   89.99996928
_cell_angle_beta   90.00002623
_cell_angle_gamma   90.08635460
_symmetry_Int_Tables_number   1
_chemical_formula_structural   TbNdFe2(WO6)2
_chemical_formula_sum   'Tb2 Nd2 Fe4 W4 O24'
_cell_volume   444.51654294
_cell_formula_units_Z   2
loop_
 _symmetry_equiv_pos_site_id
 _symmetry_equiv_pos_as_xyz
  1  'x, y, z'
loop_
 _atom_site_type_symbol
 _atom_site_label
 _atom_site_symmetry_multiplicity
 _atom_site_fract_x
 _atom_site_fract_y
 _atom_site_fract_z
 _atom_site_occupancy
  Tb  Tb0  1  0.548181  0.253121  0.545877  1
  Tb  Tb1  1  0.048180  0.753121  0.954124  1
  Nd  Nd2  1  0.957913  0.253177  0.044242  1
  Nd  Nd3  1  0.457913  0.753178  0.455758  1
  Fe  Fe4  1  0.457324  0.510011  0.138718  1
  Fe  Fe5  1  0.957324  0.010012  0.361282  1
  Fe  Fe6  1  0.044721  0.506469  0.640218  1
  Fe  Fe7  1  0.544721  0.006469  0.859782  1
  W  W8  1  0.449133  0.995845  0.141659  1
  W  W9  1  0.949132  0.495846  0.358341  1
  W  W10  1  0.052379  0.999835  0.643504  1
  W  W11  1  0.552379  0.499835  0.856496  1
  O  O12  1  0.739621  0.546417  0.019103  1
  O  O13  1  0.734090  0.956332  0.028503  1
  O  O14  1  0.324827  0.755287  0.118492  1
  O  O15  1  0.550950  0.244688  0.141715  1
  O  O16  1  0.131267  0.064174  0.209672  1
  O  O17  1  0.116504  0.439896  0.215303  1
  O  O18  1  0.616504  0.939895  0.284696  1
  O  O19  1  0.631266  0.564175  0.290328  1
  O  O20  1  0.050952  0.744688  0.358284  1
  O  O21  1  0.824826  0.255287  0.381507  1
  O  O22  1  0.234088  0.456332  0.471498  1
  O  O23  1  0.239621  0.046417  0.480897  1
  O  O24  1  0.762063  0.536402  0.521436  1
  O  O25  1  0.767917  0.965516  0.529874  1
  O  O26  1  0.162876  0.757181  0.620369  1
  O  O27  1  0.937043  0.246196  0.645910  1
  O  O28  1  0.373204  0.069270  0.706903  1
  O  O29  1  0.389993  0.440388  0.711368  1
  O  O30  1  0.889993  0.940387  0.788632  1
  O  O31  1  0.873204  0.569271  0.793098  1
  O  O32  1  0.437044  0.746197  0.854090  1
  O  O33  1  0.662875  0.257181  0.879631  1
  O  O34  1  0.267917  0.465516  0.970126  1
  O  O35  1  0.262062  0.036402  0.978564  1
