# generated using pymatgen
data_Ba4Sr4Si3Sn
_symmetry_space_group_name_H-M   'P 1'
_cell_length_a   5.31320300
_cell_length_b   8.70195463
_cell_length_c   9.85911514
_cell_angle_alpha   89.30129075
_cell_angle_beta   90.00000000
_cell_angle_gamma   90.00000000
_symmetry_Int_Tables_number   1
_chemical_formula_structural   Ba4Sr4Si3Sn
_chemical_formula_sum   'Ba4 Sr4 Si3 Sn1'
_cell_volume   455.80477321
_cell_formula_units_Z   1
loop_
 _symmetry_equiv_pos_site_id
 _symmetry_equiv_pos_as_xyz
  1  'x, y, z'
loop_
 _atom_site_type_symbol
 _atom_site_label
 _atom_site_symmetry_multiplicity
 _atom_site_fract_x
 _atom_site_fract_y
 _atom_site_fract_z
 _atom_site_occupancy
  Ba  Ba0  1  0.750000  0.972467  0.671358  1
  Ba  Ba1  1  0.250000  0.029206  0.329202  1
  Ba  Ba2  1  0.750000  0.471469  0.823226  1
  Ba  Ba3  1  0.250000  0.519059  0.178613  1
  Sr  Sr4  1  0.750000  0.861104  0.088268  1
  Sr  Sr5  1  0.250000  0.155940  0.922810  1
  Sr  Sr6  1  0.750000  0.354453  0.423969  1
  Sr  Sr7  1  0.250000  0.639015  0.565888  1
  Si  Si8  1  0.750000  0.732901  0.395645  1
  Si  Si9  1  0.250000  0.264307  0.602964  1
  Si  Si10  1  0.750000  0.236762  0.107973  1
  Sn  Sn11  1  0.250000  0.763318  0.890084  1
