# generated using pymatgen
data_MoOsCl10
_symmetry_space_group_name_H-M   'P 1'
_cell_length_a   13.08131742
_cell_length_b   13.08421457
_cell_length_c   6.57599261
_cell_angle_alpha   85.76853190
_cell_angle_beta   85.86121535
_cell_angle_gamma   88.47443092
_symmetry_Int_Tables_number   1
_chemical_formula_structural   MoOsCl10
_chemical_formula_sum   'Mo3 Os3 Cl30'
_cell_volume   1119.28677121
_cell_formula_units_Z   3
loop_
 _symmetry_equiv_pos_site_id
 _symmetry_equiv_pos_as_xyz
  1  'x, y, z'
loop_
 _atom_site_type_symbol
 _atom_site_label
 _atom_site_symmetry_multiplicity
 _atom_site_fract_x
 _atom_site_fract_y
 _atom_site_fract_z
 _atom_site_occupancy
  Mo  Mo0  1  0.106182  0.892876  0.000286  1
  Mo  Mo1  1  0.439887  0.226530  0.566209  1
  Mo  Mo2  1  0.560201  0.773922  0.433302  1
  Os  Os3  1  0.898022  0.102071  0.000110  1
  Os  Os4  1  0.768737  0.564906  0.433641  1
  Os  Os5  1  0.231310  0.435087  0.566367  1
  Cl  Cl6  1  0.501066  0.316844  0.812085  1
  Cl  Cl7  1  0.263325  0.267254  0.742641  1
  Cl  Cl8  1  0.163180  0.979909  0.702417  1
  Cl  Cl9  1  0.600905  0.597346  0.610100  1
  Cl  Cl10  1  0.220406  0.587808  0.384052  1
  Cl  Cl11  1  0.736150  0.732730  0.256724  1
  Cl  Cl12  1  0.158886  0.353893  0.317754  1
  Cl  Cl13  1  0.068501  0.072641  0.126676  1
  Cl  Cl14  1  0.651182  0.834821  0.678538  1
  Cl  Cl15  1  0.592844  0.213411  0.384739  1
  Cl  Cl16  1  0.115516  0.736464  0.872441  1
  Cl  Cl17  1  0.020761  0.837361  0.299467  1
  Cl  Cl18  1  0.921104  0.553628  0.251466  1
  Cl  Cl19  1  0.830439  0.024735  0.302290  1
  Cl  Cl20  1  0.406510  0.786148  0.613742  1
  Cl  Cl21  1  0.780347  0.412467  0.615689  1
  Cl  Cl22  1  0.549011  0.927584  0.252102  1
  Cl  Cl23  1  0.974539  0.169578  0.697826  1
  Cl  Cl24  1  0.841452  0.646756  0.681413  1
  Cl  Cl25  1  0.888723  0.257062  0.129659  1
  Cl  Cl26  1  0.498219  0.682808  0.189293  1
  Cl  Cl27  1  0.348186  0.165115  0.321902  1
  Cl  Cl28  1  0.079210  0.447086  0.747842  1
  Cl  Cl29  1  0.742595  0.110392  0.869748  1
  Cl  Cl30  1  0.451316  0.072556  0.748134  1
  Cl  Cl31  1  0.399635  0.402645  0.390164  1
  Cl  Cl32  1  0.313395  0.507393  0.814755  1
  Cl  Cl33  1  0.263467  0.884849  0.128010  1
  Cl  Cl34  1  0.927676  0.931045  0.873392  1
  Cl  Cl35  1  0.687116  0.492277  0.185025  1
