# generated using pymatgen
data_CePr9Al2(ZnRu3)2
_symmetry_space_group_name_H-M   'P 1'
_cell_length_a   8.68798576
_cell_length_b   8.52647260
_cell_length_c   8.48183437
_cell_angle_alpha   108.12289742
_cell_angle_beta   110.37118589
_cell_angle_gamma   109.49908950
_symmetry_Int_Tables_number   1
_chemical_formula_structural   CePr9Al2(ZnRu3)2
_chemical_formula_sum   'Ce1 Pr9 Al2 Zn2 Ru6'
_cell_volume   486.02919673
_cell_formula_units_Z   1
loop_
 _symmetry_equiv_pos_site_id
 _symmetry_equiv_pos_as_xyz
  1  'x, y, z'
loop_
 _atom_site_type_symbol
 _atom_site_label
 _atom_site_symmetry_multiplicity
 _atom_site_fract_x
 _atom_site_fract_y
 _atom_site_fract_z
 _atom_site_occupancy
  Ce  Ce0  1  0.249529  0.693100  0.448233  1
  Pr  Pr1  1  0.747077  0.812188  0.060598  1
  Pr  Pr2  1  0.439369  0.253576  0.690376  1
  Pr  Pr3  1  0.684203  0.436055  0.250275  1
  Pr  Pr4  1  0.061442  0.750851  0.814930  1
  Pr  Pr5  1  0.814759  0.064217  0.751317  1
  Pr  Pr6  1  0.222933  0.223293  0.225358  1
  Pr  Pr7  1  0.504635  0.000301  0.281944  1
  Pr  Pr8  1  0.278511  0.501500  0.998305  1
  Pr  Pr9  1  0.995369  0.279042  0.495707  1
  Al  Al10  1  0.908638  0.495433  0.003556  1
  Al  Al11  1  0.999892  0.908623  0.502499  1
  Zn  Zn12  1  0.593240  0.591290  0.585708  1
  Zn  Zn13  1  0.499752  0.007653  0.914583  1
  Ru  Ru14  1  0.241971  0.125100  0.870994  1
  Ru  Ru15  1  0.754413  0.375270  0.634034  1
  Ru  Ru16  1  0.874334  0.246562  0.122230  1
  Ru  Ru17  1  0.132711  0.846649  0.270028  1
  Ru  Ru18  1  0.637850  0.757250  0.369140  1
  Ru  Ru19  1  0.359372  0.632049  0.710183  1
