# generated using pymatgen
data_CeTm4Si7Pt9
_symmetry_space_group_name_H-M   'P 1'
_cell_length_a   10.13816900
_cell_length_b   10.13816933
_cell_length_c   4.07672100
_cell_angle_alpha   90.00000000
_cell_angle_beta   90.00000000
_cell_angle_gamma   120.00000217
_symmetry_Int_Tables_number   1
_chemical_formula_structural   CeTm4Si7Pt9
_chemical_formula_sum   'Ce1 Tm4 Si7 Pt9'
_cell_volume   362.87803407
_cell_formula_units_Z   1
loop_
 _symmetry_equiv_pos_site_id
 _symmetry_equiv_pos_as_xyz
  1  'x, y, z'
loop_
 _atom_site_type_symbol
 _atom_site_label
 _atom_site_symmetry_multiplicity
 _atom_site_fract_x
 _atom_site_fract_y
 _atom_site_fract_z
 _atom_site_occupancy
  Ce  Ce0  1  0.000000  0.000000  0.000000  1
  Tm  Tm1  1  0.333333  0.666667  0.500000  1
  Tm  Tm2  1  0.898459  0.456542  0.500000  1
  Tm  Tm3  1  0.558082  0.101541  0.500000  1
  Tm  Tm4  1  0.543458  0.441918  0.500000  1
  Si  Si5  1  0.241403  0.186311  0.500000  1
  Si  Si6  1  0.813689  0.055092  0.500000  1
  Si  Si7  1  0.944908  0.758597  0.500000  1
  Si  Si8  1  0.557968  0.653591  0.000000  1
  Si  Si9  1  0.346409  0.904378  0.000000  1
  Si  Si10  1  0.095622  0.442032  0.000000  1
  Si  Si11  1  0.666667  0.333333  0.000000  1
  Pt  Pt12  1  0.216539  0.930406  0.500000  1
  Pt  Pt13  1  0.069594  0.286133  0.500000  1
  Pt  Pt14  1  0.713867  0.783461  0.500000  1
  Pt  Pt15  1  0.317209  0.417582  0.000000  1
  Pt  Pt16  1  0.582418  0.899628  0.000000  1
  Pt  Pt17  1  0.100372  0.682791  0.000000  1
  Pt  Pt18  1  0.375324  0.167672  0.000000  1
  Pt  Pt19  1  0.832328  0.207653  0.000000  1
  Pt  Pt20  1  0.792347  0.624676  0.000000  1
