# generated using pymatgen
data_U2Fe2NiGe
_symmetry_space_group_name_H-M   'P 1'
_cell_length_a   5.09253176
_cell_length_b   5.32725648
_cell_length_c   7.62842500
_cell_angle_alpha   90.00000000
_cell_angle_beta   90.00000000
_cell_angle_gamma   121.53681364
_symmetry_Int_Tables_number   1
_chemical_formula_structural   U2Fe2NiGe
_chemical_formula_sum   'U4 Fe4 Ni2 Ge2'
_cell_volume   176.38713209
_cell_formula_units_Z   2
loop_
 _symmetry_equiv_pos_site_id
 _symmetry_equiv_pos_as_xyz
  1  'x, y, z'
loop_
 _atom_site_type_symbol
 _atom_site_label
 _atom_site_symmetry_multiplicity
 _atom_site_fract_x
 _atom_site_fract_y
 _atom_site_fract_z
 _atom_site_occupancy
  U  U0  1  0.308593  0.654297  0.428853  1
  U  U1  1  0.691407  0.345703  0.928853  1
  U  U2  1  0.691407  0.345703  0.571147  1
  U  U3  1  0.308593  0.654297  0.071147  1
  Fe  Fe4  1  0.174736  0.339656  0.750000  1
  Fe  Fe5  1  0.825264  0.164919  0.250000  1
  Fe  Fe6  1  0.825264  0.660344  0.250000  1
  Fe  Fe7  1  0.174736  0.835081  0.750000  1
  Ni  Ni8  1  0.659937  0.829969  0.750000  1
  Ni  Ni9  1  0.340063  0.170031  0.250000  1
  Ge  Ge10  1  0.000000  0.000000  0.500000  1
  Ge  Ge11  1  0.000000  0.000000  0.000000  1
