# generated using pymatgen
data_LaEu7(SiPd)8
_symmetry_space_group_name_H-M   'P 1'
_cell_length_a   5.88047245
_cell_length_b   7.89855792
_cell_length_c   10.88796500
_cell_angle_alpha   88.27906698
_cell_angle_beta   90.06203622
_cell_angle_gamma   89.95806368
_symmetry_Int_Tables_number   1
_chemical_formula_structural   LaEu7(SiPd)8
_chemical_formula_sum   'La1 Eu7 Si8 Pd8'
_cell_volume   505.48751129
_cell_formula_units_Z   1
loop_
 _symmetry_equiv_pos_site_id
 _symmetry_equiv_pos_as_xyz
  1  'x, y, z'
loop_
 _atom_site_type_symbol
 _atom_site_label
 _atom_site_symmetry_multiplicity
 _atom_site_fract_x
 _atom_site_fract_y
 _atom_site_fract_z
 _atom_site_occupancy
  La  La0  1  0.627349  0.328202  0.366337  1
  Eu  Eu1  1  0.368063  0.970951  0.140643  1
  Eu  Eu2  1  0.630575  0.028357  0.858926  1
  Eu  Eu3  1  0.868121  0.527627  0.858181  1
  Eu  Eu4  1  0.131319  0.473198  0.140546  1
  Eu  Eu5  1  0.874471  0.828063  0.365067  1
  Eu  Eu6  1  0.126191  0.171797  0.635209  1
  Eu  Eu7  1  0.372847  0.673268  0.635041  1
  Si  Si8  1  0.869968  0.536858  0.575626  1
  Si  Si9  1  0.130586  0.465014  0.425777  1
  Si  Si10  1  0.372489  0.964490  0.424200  1
  Si  Si11  1  0.629746  0.035028  0.576114  1
  Si  Si12  1  0.632683  0.630055  0.139195  1
  Si  Si13  1  0.367345  0.368708  0.860734  1
  Si  Si14  1  0.131757  0.868878  0.860680  1
  Si  Si15  1  0.867717  0.130185  0.139488  1
  Pd  Pd16  1  0.895534  0.842382  0.055645  1
  Pd  Pd17  1  0.102435  0.156999  0.944139  1
  Pd  Pd18  1  0.396506  0.656914  0.944141  1
  Pd  Pd19  1  0.604158  0.342460  0.055505  1
  Pd  Pd20  1  0.885482  0.819914  0.667991  1
  Pd  Pd21  1  0.114791  0.180742  0.331628  1
  Pd  Pd22  1  0.386885  0.679664  0.332294  1
  Pd  Pd23  1  0.612985  0.320247  0.666892  1
