# generated using pymatgen
data_Ce5Fe9Mo3P12Ru7
_symmetry_space_group_name_H-M   'P 1'
_cell_length_a   12.45854700
_cell_length_b   12.45854708
_cell_length_c   3.80844800
_cell_angle_alpha   90.00000000
_cell_angle_beta   90.00000000
_cell_angle_gamma   120.00000244
_symmetry_Int_Tables_number   1
_chemical_formula_structural   Ce5Fe9Mo3P12Ru7
_chemical_formula_sum   'Ce5 Fe9 Mo3 P12 Ru7'
_cell_volume   511.93337491
_cell_formula_units_Z   1
loop_
 _symmetry_equiv_pos_site_id
 _symmetry_equiv_pos_as_xyz
  1  'x, y, z'
loop_
 _atom_site_type_symbol
 _atom_site_label
 _atom_site_symmetry_multiplicity
 _atom_site_fract_x
 _atom_site_fract_y
 _atom_site_fract_z
 _atom_site_occupancy
  Ce  Ce0  1  0.181899  0.181899  0.500000  1
  Ce  Ce1  1  0.818101  0.000000  0.500000  1
  Ce  Ce2  1  0.000000  0.818101  0.500000  1
  Ce  Ce3  1  0.333333  0.666667  0.000000  1
  Ce  Ce4  1  0.666667  0.333333  0.000000  1
  Fe  Fe5  1  0.717720  0.717720  0.500000  1
  Fe  Fe6  1  0.282280  0.000000  0.500000  1
  Fe  Fe7  1  0.000000  0.282280  0.500000  1
  Fe  Fe8  1  0.177610  0.372764  0.000000  1
  Fe  Fe9  1  0.627236  0.804846  0.000000  1
  Fe  Fe10  1  0.195154  0.822390  0.000000  1
  Fe  Fe11  1  0.804846  0.627236  0.000000  1
  Fe  Fe12  1  0.822390  0.195154  0.000000  1
  Fe  Fe13  1  0.372764  0.177610  0.000000  1
  Mo  Mo14  1  0.565917  0.565917  0.000000  1
  Mo  Mo15  1  0.434083  0.000000  0.000000  1
  Mo  Mo16  1  0.000000  0.434083  0.000000  1
  P  P17  1  0.808815  0.808815  0.000000  1
  P  P18  1  0.191185  0.000000  0.000000  1
  P  P19  1  0.000000  0.191185  0.000000  1
  P  P20  1  0.161352  0.470255  0.500000  1
  P  P21  1  0.529745  0.691097  0.500000  1
  P  P22  1  0.308903  0.838648  0.500000  1
  P  P23  1  0.691097  0.529745  0.500000  1
  P  P24  1  0.838648  0.308903  0.500000  1
  P  P25  1  0.470255  0.161352  0.500000  1
  P  P26  1  0.364737  0.364737  0.000000  1
  P  P27  1  0.635263  0.000000  0.000000  1
  P  P28  1  0.000000  0.635263  0.000000  1
  Ru  Ru29  1  0.356457  0.484180  0.500000  1
  Ru  Ru30  1  0.515820  0.872277  0.500000  1
  Ru  Ru31  1  0.127723  0.643543  0.500000  1
  Ru  Ru32  1  0.872277  0.515820  0.500000  1
  Ru  Ru33  1  0.643543  0.127723  0.500000  1
  Ru  Ru34  1  0.484180  0.356457  0.500000  1
  Ru  Ru35  1  0.000000  0.000000  0.000000  1
