# generated using pymatgen
data_ErTa5(B2Os5)2
_symmetry_space_group_name_H-M   'P 1'
_cell_length_a   9.58066583
_cell_length_b   9.58066583
_cell_length_c   3.06107000
_cell_angle_alpha   90.00000000
_cell_angle_beta   90.00000000
_cell_angle_gamma   90.33862013
_symmetry_Int_Tables_number   1
_chemical_formula_structural   ErTa5(B2Os5)2
_chemical_formula_sum   'Er1 Ta5 B4 Os10'
_cell_volume   280.96813012
_cell_formula_units_Z   1
loop_
 _symmetry_equiv_pos_site_id
 _symmetry_equiv_pos_as_xyz
  1  'x, y, z'
loop_
 _atom_site_type_symbol
 _atom_site_label
 _atom_site_symmetry_multiplicity
 _atom_site_fract_x
 _atom_site_fract_y
 _atom_site_fract_z
 _atom_site_occupancy
  Er  Er0  1  0.824218  0.675782  0.000000  1
  Ta  Ta1  1  0.180005  0.319995  0.000000  1
  Ta  Ta2  1  0.323655  0.822424  0.000000  1
  Ta  Ta3  1  0.677576  0.176345  0.000000  1
  Ta  Ta4  1  0.501793  0.501035  0.000000  1
  Ta  Ta5  1  0.998965  0.998207  0.000000  1
  B  B6  1  0.619934  0.880066  0.000000  1
  B  B7  1  0.377728  0.122272  0.000000  1
  B  B8  1  0.121314  0.619885  0.000000  1
  B  B9  1  0.880115  0.378686  0.000000  1
  Os  Os10  1  0.558280  0.725225  0.500000  1
  Os  Os11  1  0.426652  0.283450  0.500000  1
  Os  Os12  1  0.081135  0.782270  0.500000  1
  Os  Os13  1  0.929713  0.216232  0.500000  1
  Os  Os14  1  0.283768  0.570287  0.500000  1
  Os  Os15  1  0.717730  0.418865  0.500000  1
  Os  Os16  1  0.216550  0.073348  0.500000  1
  Os  Os17  1  0.774775  0.941720  0.500000  1
  Os  Os18  1  0.495851  0.004149  0.500000  1
  Os  Os19  1  0.010244  0.489756  0.500000  1
