# generated using pymatgen
data_Ta3NbSi4Ir3Ru
_symmetry_space_group_name_H-M   'P 1'
_cell_length_a   3.82655300
_cell_length_b   6.42651069
_cell_length_c   7.31342265
_cell_angle_alpha   89.86856806
_cell_angle_beta   90.00000000
_cell_angle_gamma   90.00000000
_symmetry_Int_Tables_number   1
_chemical_formula_structural   Ta3NbSi4Ir3Ru
_chemical_formula_sum   'Ta3 Nb1 Si4 Ir3 Ru1'
_cell_volume   179.84670991
_cell_formula_units_Z   1
loop_
 _symmetry_equiv_pos_site_id
 _symmetry_equiv_pos_as_xyz
  1  'x, y, z'
loop_
 _atom_site_type_symbol
 _atom_site_label
 _atom_site_symmetry_multiplicity
 _atom_site_fract_x
 _atom_site_fract_y
 _atom_site_fract_z
 _atom_site_occupancy
  Ta  Ta0  1  0.750000  0.525536  0.827503  1
  Ta  Ta1  1  0.750000  0.021392  0.675191  1
  Ta  Ta2  1  0.250000  0.478327  0.172774  1
  Nb  Nb3  1  0.250000  0.974085  0.325691  1
  Si  Si4  1  0.250000  0.228203  0.876295  1
  Si  Si5  1  0.250000  0.730491  0.625606  1
  Si  Si6  1  0.750000  0.772615  0.121825  1
  Si  Si7  1  0.750000  0.267677  0.376117  1
  Ir  Ir8  1  0.250000  0.352139  0.564688  1
  Ir  Ir9  1  0.750000  0.644948  0.435988  1
  Ir  Ir10  1  0.750000  0.151701  0.061665  1
  Ru  Ru11  1  0.250000  0.852884  0.936658  1
