# generated using pymatgen
data_Ti5Nb3Al15Co7
_symmetry_space_group_name_H-M   'P 1'
_cell_length_a   8.46746818
_cell_length_b   8.46479060
_cell_length_c   8.46746733
_cell_angle_alpha   120.11110491
_cell_angle_beta   119.95983390
_cell_angle_gamma   89.94770230
_symmetry_Int_Tables_number   1
_chemical_formula_structural   Ti5Nb3Al15Co7
_chemical_formula_sum   'Ti5 Nb3 Al15 Co7'
_cell_volume   428.88399110
_cell_formula_units_Z   1
loop_
 _symmetry_equiv_pos_site_id
 _symmetry_equiv_pos_as_xyz
  1  'x, y, z'
loop_
 _atom_site_type_symbol
 _atom_site_label
 _atom_site_symmetry_multiplicity
 _atom_site_fract_x
 _atom_site_fract_y
 _atom_site_fract_z
 _atom_site_occupancy
  Ti  Ti0  1  0.219804  0.719484  0.931083  1
  Ti  Ti1  1  0.788402  0.719484  0.499681  1
  Ti  Ti2  1  0.781935  0.278135  0.496200  1
  Ti  Ti3  1  0.379694  0.122210  0.742516  1
  Ti  Ti4  1  0.379661  0.639036  0.259375  1
  Nb  Nb5  1  0.794704  0.290787  0.078602  1
  Nb  Nb6  1  0.212185  0.290787  0.496083  1
  Nb  Nb7  1  0.208226  0.705902  0.497676  1
  Al  Al8  1  0.992414  0.502314  0.509900  1
  Al  Al9  1  0.161790  0.336642  0.174850  1
  Al  Al10  1  0.158813  0.977195  0.818382  1
  Al  Al11  1  0.155509  0.342244  0.813862  1
  Al  Al12  1  0.528381  0.342244  0.186735  1
  Al  Al13  1  0.843528  0.655132  0.811605  1
  Al  Al14  1  0.839825  0.020842  0.181017  1
  Al  Al15  1  0.839048  0.660288  0.179239  1
  Al  Al16  1  0.481049  0.660288  0.821241  1
  Al  Al17  1  0.380373  0.119906  0.260435  1
  Al  Al18  1  0.859472  0.119906  0.739532  1
  Al  Al19  1  0.619639  0.879071  0.259431  1
  Al  Al20  1  0.620443  0.361605  0.741161  1
  Al  Al21  1  0.620937  0.879061  0.741358  1
  Al  Al22  1  0.137702  0.879061  0.258126  1
  Co  Co23  1  0.999865  0.999538  0.501138  1
  Co  Co24  1  0.498400  0.999538  0.999673  1
  Co  Co25  1  0.498071  0.500840  0.002769  1
  Co  Co26  1  0.499303  0.500610  0.497502  1
  Co  Co27  1  0.003109  0.500610  0.001308  1
  Co  Co28  1  0.000700  0.998770  0.998070  1
  Co  Co29  1  0.497013  0.998464  0.501451  1
