# generated using pymatgen
data_Sr3DySb3
_symmetry_space_group_name_H-M   'P 1'
_cell_length_a   8.46723039
_cell_length_b   8.46723058
_cell_length_c   8.51571729
_cell_angle_alpha   70.66526511
_cell_angle_beta   70.66526695
_cell_angle_gamma   108.95299176
_symmetry_Int_Tables_number   1
_chemical_formula_structural   Sr3DySb3
_chemical_formula_sum   'Sr6 Dy2 Sb6'
_cell_volume   474.51133761
_cell_formula_units_Z   2
loop_
 _symmetry_equiv_pos_site_id
 _symmetry_equiv_pos_as_xyz
  1  'x, y, z'
loop_
 _atom_site_type_symbol
 _atom_site_label
 _atom_site_symmetry_multiplicity
 _atom_site_fract_x
 _atom_site_fract_y
 _atom_site_fract_z
 _atom_site_occupancy
  Sr  Sr0  1  0.000584  0.363547  0.495602  1
  Sr  Sr1  1  0.496492  0.497404  0.144935  1
  Sr  Sr2  1  0.640894  0.143625  0.359293  1
  Sr  Sr3  1  0.363547  0.000584  0.995602  1
  Sr  Sr4  1  0.497404  0.496492  0.644935  1
  Sr  Sr5  1  0.143625  0.640894  0.859293  1
  Dy  Dy6  1  0.862398  0.000242  0.998298  1
  Dy  Dy7  1  0.000242  0.862398  0.498298  1
  Sb  Sb8  1  0.647376  0.875994  0.747354  1
  Sb  Sb9  1  0.875994  0.647376  0.247354  1
  Sb  Sb10  1  0.225312  0.109299  0.634783  1
  Sb  Sb11  1  0.759370  0.377462  0.869734  1
  Sb  Sb12  1  0.377462  0.759370  0.369734  1
  Sb  Sb13  1  0.109299  0.225312  0.134783  1
