# generated using pymatgen
data_LuTh3(InNi2)2
_symmetry_space_group_name_H-M   'P 1'
_cell_length_a   7.55035258
_cell_length_b   7.55035258
_cell_length_c   3.67279300
_cell_angle_alpha   90.00000000
_cell_angle_beta   90.00000000
_cell_angle_gamma   91.33656080
_symmetry_Int_Tables_number   1
_chemical_formula_structural   LuTh3(InNi2)2
_chemical_formula_sum   'Lu1 Th3 In2 Ni4'
_cell_volume   209.32097130
_cell_formula_units_Z   1
loop_
 _symmetry_equiv_pos_site_id
 _symmetry_equiv_pos_as_xyz
  1  'x, y, z'
loop_
 _atom_site_type_symbol
 _atom_site_label
 _atom_site_symmetry_multiplicity
 _atom_site_fract_x
 _atom_site_fract_y
 _atom_site_fract_z
 _atom_site_occupancy
  Lu  Lu0  1  0.827084  0.672916  0.500000  1
  Th  Th1  1  0.675741  0.171514  0.500000  1
  Th  Th2  1  0.328486  0.824259  0.500000  1
  Th  Th3  1  0.169925  0.330075  0.500000  1
  In  In4  1  0.510944  0.504087  0.000000  1
  In  In5  1  0.995913  0.989056  0.000000  1
  Ni  Ni6  1  0.124703  0.624325  0.000000  1
  Ni  Ni7  1  0.875675  0.375297  0.000000  1
  Ni  Ni8  1  0.620247  0.879753  0.000000  1
  Ni  Ni9  1  0.371282  0.128718  0.000000  1
