# generated using pymatgen
data_Li8Dy5Y3Sn7Sb
_symmetry_space_group_name_H-M   'P 1'
_cell_length_a   9.38115100
_cell_length_b   9.38098456
_cell_length_c   7.28852401
_cell_angle_alpha   90.07485554
_cell_angle_beta   90.00000000
_cell_angle_gamma   120.00059042
_symmetry_Int_Tables_number   1
_chemical_formula_structural   Li8Dy5Y3Sn7Sb
_chemical_formula_sum   'Li8 Dy5 Y3 Sn7 Sb1'
_cell_volume   555.48417408
_cell_formula_units_Z   1
loop_
 _symmetry_equiv_pos_site_id
 _symmetry_equiv_pos_as_xyz
  1  'x, y, z'
loop_
 _atom_site_type_symbol
 _atom_site_label
 _atom_site_symmetry_multiplicity
 _atom_site_fract_x
 _atom_site_fract_y
 _atom_site_fract_z
 _atom_site_occupancy
  Li  Li0  1  0.166706  0.333413  0.288584  1
  Li  Li1  1  0.166814  0.833237  0.289041  1
  Li  Li2  1  0.666422  0.833237  0.289041  1
  Li  Li3  1  0.833351  0.666702  0.788687  1
  Li  Li4  1  0.832518  0.166299  0.789587  1
  Li  Li5  1  0.333779  0.166299  0.789587  1
  Li  Li6  1  0.333664  0.667328  0.668512  1
  Li  Li7  1  0.666686  0.333371  0.169311  1
  Dy  Dy8  1  0.487543  0.975087  0.994434  1
  Dy  Dy9  1  0.489622  0.512923  0.995148  1
  Dy  Dy10  1  0.023300  0.512923  0.995148  1
  Dy  Dy11  1  0.998915  0.997829  0.498712  1
  Dy  Dy12  1  0.999020  0.998039  0.001681  1
  Y  Y13  1  0.512563  0.025124  0.493891  1
  Y  Y14  1  0.515156  0.489353  0.491971  1
  Y  Y15  1  0.974198  0.489353  0.491971  1
  Sn  Sn16  1  0.166487  0.832794  0.730114  1
  Sn  Sn17  1  0.666307  0.832794  0.730114  1
  Sn  Sn18  1  0.833298  0.666596  0.230186  1
  Sn  Sn19  1  0.833769  0.167186  0.229819  1
  Sn  Sn20  1  0.333416  0.167186  0.229819  1
  Sn  Sn21  1  0.332878  0.665758  0.261507  1
  Sn  Sn22  1  0.666876  0.333752  0.762735  1
  Sb  Sb23  1  0.166710  0.333420  0.732396  1
