# generated using pymatgen
data_ZrSc3CoOs7
_symmetry_space_group_name_H-M   'P 1'
_cell_length_a   5.16218808
_cell_length_b   5.16218765
_cell_length_c   8.56890392
_cell_angle_alpha   90.13525762
_cell_angle_beta   89.86474510
_cell_angle_gamma   119.75247801
_symmetry_Int_Tables_number   1
_chemical_formula_structural   ZrSc3CoOs7
_chemical_formula_sum   'Zr1 Sc3 Co1 Os7'
_cell_volume   198.24384811
_cell_formula_units_Z   1
loop_
 _symmetry_equiv_pos_site_id
 _symmetry_equiv_pos_as_xyz
  1  'x, y, z'
loop_
 _atom_site_type_symbol
 _atom_site_label
 _atom_site_symmetry_multiplicity
 _atom_site_fract_x
 _atom_site_fract_y
 _atom_site_fract_z
 _atom_site_occupancy
  Zr  Zr0  1  0.334066  0.665934  0.068740  1
  Sc  Sc1  1  0.333902  0.666098  0.435808  1
  Sc  Sc2  1  0.668249  0.331751  0.563365  1
  Sc  Sc3  1  0.668410  0.331590  0.934109  1
  Co  Co4  1  0.827800  0.172200  0.249654  1
  Os  Os5  1  0.002190  0.997810  0.495465  1
  Os  Os6  1  0.999934  0.000066  0.003001  1
  Os  Os7  1  0.824472  0.654067  0.249904  1
  Os  Os8  1  0.345933  0.175528  0.249904  1
  Os  Os9  1  0.169174  0.830826  0.749729  1
  Os  Os10  1  0.171509  0.345640  0.750160  1
  Os  Os11  1  0.654360  0.828491  0.750160  1
