# generated using pymatgen
data_SmTm7Cu4(As3O)4
_symmetry_space_group_name_H-M   'P 1'
_cell_length_a   33.85954149
_cell_length_b   3.90700500
_cell_length_c   3.89574063
_cell_angle_alpha   90.00000000
_cell_angle_beta   90.05867509
_cell_angle_gamma   90.00000000
_symmetry_Int_Tables_number   1
_chemical_formula_structural   SmTm7Cu4(As3O)4
_chemical_formula_sum   'Sm1 Tm7 Cu4 As12 O4'
_cell_volume   515.36491247
_cell_formula_units_Z   1
loop_
 _symmetry_equiv_pos_site_id
 _symmetry_equiv_pos_as_xyz
  1  'x, y, z'
loop_
 _atom_site_type_symbol
 _atom_site_label
 _atom_site_symmetry_multiplicity
 _atom_site_fract_x
 _atom_site_fract_y
 _atom_site_fract_z
 _atom_site_occupancy
  Sm  Sm0  1  0.673315  0.750002  0.196407  1
  Tm  Tm1  1  0.467403  0.750002  0.251051  1
  Tm  Tm2  1  0.031627  0.250002  0.751002  1
  Tm  Tm3  1  0.968843  0.750002  0.248478  1
  Tm  Tm4  1  0.529937  0.250002  0.749515  1
  Tm  Tm5  1  0.326367  0.250002  0.802589  1
  Tm  Tm6  1  0.173223  0.750002  0.302159  1
  Tm  Tm7  1  0.827908  0.250002  0.697935  1
  Cu  Cu8  1  0.249838  0.250002  0.305096  1
  Cu  Cu9  1  0.249808  0.750002  0.804747  1
  Cu  Cu10  1  0.752137  0.250002  0.195064  1
  Cu  Cu11  1  0.752109  0.750002  0.695009  1
  As  As12  1  0.394928  0.250002  0.306723  1
  As  As13  1  0.104519  0.750002  0.805425  1
  As  As14  1  0.896145  0.250002  0.195555  1
  As  As15  1  0.602276  0.750002  0.690655  1
  As  As16  1  0.394593  0.750002  0.777359  1
  As  As17  1  0.104833  0.250002  0.276906  1
  As  As18  1  0.895843  0.750002  0.720715  1
  As  As19  1  0.602363  0.250002  0.227612  1
  As  As20  1  0.202567  0.250002  0.803572  1
  As  As21  1  0.297095  0.750002  0.303932  1
  As  As22  1  0.705606  0.250002  0.695782  1
  As  As23  1  0.798900  0.750002  0.196648  1
  O  O24  1  0.498730  0.750002  0.751920  1
  O  O25  1  0.000198  0.250002  0.251359  1
  O  O26  1  0.000176  0.750002  0.748178  1
  O  O27  1  0.498714  0.250002  0.248607  1
