# generated using pymatgen
data_Tb3HoAl4PtRh3
_symmetry_space_group_name_H-M   'P 1'
_cell_length_a   4.28710300
_cell_length_b   6.89065867
_cell_length_c   7.93440062
_cell_angle_alpha   89.92813089
_cell_angle_beta   90.00000000
_cell_angle_gamma   90.00000000
_symmetry_Int_Tables_number   1
_chemical_formula_structural   Tb3HoAl4PtRh3
_chemical_formula_sum   'Tb3 Ho1 Al4 Pt1 Rh3'
_cell_volume   234.38965440
_cell_formula_units_Z   1
loop_
 _symmetry_equiv_pos_site_id
 _symmetry_equiv_pos_as_xyz
  1  'x, y, z'
loop_
 _atom_site_type_symbol
 _atom_site_label
 _atom_site_symmetry_multiplicity
 _atom_site_fract_x
 _atom_site_fract_y
 _atom_site_fract_z
 _atom_site_occupancy
  Tb  Tb0  1  0.250000  0.533200  0.181885  1
  Tb  Tb1  1  0.750000  0.462475  0.819730  1
  Tb  Tb2  1  0.250000  0.034844  0.321463  1
  Ho  Ho3  1  0.750000  0.966749  0.677806  1
  Al  Al4  1  0.250000  0.635853  0.561010  1
  Al  Al5  1  0.750000  0.363323  0.439517  1
  Al  Al6  1  0.750000  0.864733  0.062175  1
  Al  Al7  1  0.250000  0.138623  0.938639  1
  Pt  Pt8  1  0.250000  0.768477  0.877287  1
  Rh  Rh9  1  0.750000  0.234419  0.119076  1
  Rh  Rh10  1  0.750000  0.734472  0.381710  1
  Rh  Rh11  1  0.250000  0.262832  0.619703  1
