# generated using pymatgen
data_Pr9DySe10
_symmetry_space_group_name_H-M   'P 1'
_cell_length_a   7.33594419
_cell_length_b   8.44331900
_cell_length_c   9.58033731
_cell_angle_alpha   103.26392795
_cell_angle_beta   96.77520399
_cell_angle_gamma   106.82016314
_symmetry_Int_Tables_number   1
_chemical_formula_structural   Pr9DySe10
_chemical_formula_sum   'Pr9 Dy1 Se10'
_cell_volume   541.93080121
_cell_formula_units_Z   1
loop_
 _symmetry_equiv_pos_site_id
 _symmetry_equiv_pos_as_xyz
  1  'x, y, z'
loop_
 _atom_site_type_symbol
 _atom_site_label
 _atom_site_symmetry_multiplicity
 _atom_site_fract_x
 _atom_site_fract_y
 _atom_site_fract_z
 _atom_site_occupancy
  Pr  Pr0  1  0.799932  0.599355  0.596447  1
  Pr  Pr1  1  0.592522  0.196161  0.197843  1
  Pr  Pr2  1  0.407478  0.803839  0.802157  1
  Pr  Pr3  1  0.599865  0.701376  0.200653  1
  Pr  Pr4  1  0.200068  0.400645  0.403553  1
  Pr  Pr5  1  0.400135  0.298624  0.799347  1
  Pr  Pr6  1  0.000000  0.000000  0.000000  1
  Pr  Pr7  1  0.202213  0.901357  0.400613  1
  Pr  Pr8  1  0.797787  0.098643  0.599387  1
  Dy  Dy9  1  0.000000  0.500000  0.000000  1
  Se  Se10  1  0.709060  0.645498  0.901705  1
  Se  Se11  1  0.500500  0.250574  0.499731  1
  Se  Se12  1  0.709750  0.160813  0.903581  1
  Se  Se13  1  0.290250  0.839187  0.096419  1
  Se  Se14  1  0.499500  0.749426  0.500269  1
  Se  Se15  1  0.098896  0.453340  0.709200  1
  Se  Se16  1  0.290940  0.354502  0.098295  1
  Se  Se17  1  0.898963  0.051180  0.299900  1
  Se  Se18  1  0.101037  0.948820  0.700100  1
  Se  Se19  1  0.901104  0.546660  0.290800  1
