# generated using pymatgen
data_Ho8Ga3Ir
_symmetry_space_group_name_H-M   'P 1'
_cell_length_a   10.03887000
_cell_length_b   10.03886961
_cell_length_c   6.99789300
_cell_angle_alpha   90.00000000
_cell_angle_beta   90.00000000
_cell_angle_gamma   120.00000127
_symmetry_Int_Tables_number   1
_chemical_formula_structural   Ho8Ga3Ir
_chemical_formula_sum   'Ho16 Ga6 Ir2'
_cell_volume   610.75575477
_cell_formula_units_Z   2
loop_
 _symmetry_equiv_pos_site_id
 _symmetry_equiv_pos_as_xyz
  1  'x, y, z'
loop_
 _atom_site_type_symbol
 _atom_site_label
 _atom_site_symmetry_multiplicity
 _atom_site_fract_x
 _atom_site_fract_y
 _atom_site_fract_z
 _atom_site_occupancy
  Ho  Ho0  1  0.170983  0.829017  0.509701  1
  Ho  Ho1  1  0.658032  0.829017  0.509701  1
  Ho  Ho2  1  0.170983  0.341968  0.509701  1
  Ho  Ho3  1  0.829017  0.170983  0.009701  1
  Ho  Ho4  1  0.341968  0.170983  0.009701  1
  Ho  Ho5  1  0.829017  0.658032  0.009701  1
  Ho  Ho6  1  0.333333  0.666667  0.837246  1
  Ho  Ho7  1  0.666667  0.333333  0.337246  1
  Ho  Ho8  1  0.465498  0.534502  0.205686  1
  Ho  Ho9  1  0.069004  0.534502  0.205686  1
  Ho  Ho10  1  0.465498  0.930996  0.205686  1
  Ho  Ho11  1  0.534502  0.465498  0.705686  1
  Ho  Ho12  1  0.930996  0.465498  0.705686  1
  Ho  Ho13  1  0.534502  0.069004  0.705686  1
  Ho  Ho14  1  0.000000  0.000000  0.232613  1
  Ho  Ho15  1  0.000000  0.000000  0.732613  1
  Ga  Ga16  1  0.163448  0.836552  0.958956  1
  Ga  Ga17  1  0.673102  0.836552  0.958956  1
  Ga  Ga18  1  0.163448  0.326898  0.958956  1
  Ga  Ga19  1  0.836552  0.163448  0.458956  1
  Ga  Ga20  1  0.326898  0.163448  0.458956  1
  Ga  Ga21  1  0.836552  0.673102  0.458956  1
  Ir  Ir22  1  0.333333  0.666667  0.444134  1
  Ir  Ir23  1  0.666667  0.333333  0.944134  1
