# generated using pymatgen
data_Th2AlSi4Rh3
_symmetry_space_group_name_H-M   'P 1'
_cell_length_a   8.31291232
_cell_length_b   8.31291311
_cell_length_c   5.83830246
_cell_angle_alpha   70.50280319
_cell_angle_beta   70.50279174
_cell_angle_gamma   92.84390326
_symmetry_Int_Tables_number   1
_chemical_formula_structural   Th2AlSi4Rh3
_chemical_formula_sum   'Th4 Al2 Si8 Rh6'
_cell_volume   352.57548875
_cell_formula_units_Z   2
loop_
 _symmetry_equiv_pos_site_id
 _symmetry_equiv_pos_as_xyz
  1  'x, y, z'
loop_
 _atom_site_type_symbol
 _atom_site_label
 _atom_site_symmetry_multiplicity
 _atom_site_fract_x
 _atom_site_fract_y
 _atom_site_fract_z
 _atom_site_occupancy
  Th  Th0  1  0.866190  0.602455  0.763412  1
  Th  Th1  1  0.133810  0.397545  0.236588  1
  Th  Th2  1  0.397545  0.133810  0.736588  1
  Th  Th3  1  0.602455  0.866190  0.263412  1
  Al  Al4  1  0.771289  0.228711  0.750000  1
  Al  Al5  1  0.228711  0.771289  0.250000  1
  Si  Si6  1  0.515894  0.484106  0.750000  1
  Si  Si7  1  0.484106  0.515894  0.250000  1
  Si  Si8  1  0.215378  0.784622  0.750000  1
  Si  Si9  1  0.784622  0.215378  0.250000  1
  Si  Si10  1  0.263124  0.049360  0.339431  1
  Si  Si11  1  0.736876  0.950640  0.660569  1
  Si  Si12  1  0.950640  0.736876  0.160569  1
  Si  Si13  1  0.049360  0.263124  0.839431  1
  Rh  Rh14  1  0.530650  0.261139  0.138400  1
  Rh  Rh15  1  0.738861  0.469350  0.361600  1
  Rh  Rh16  1  0.469350  0.738861  0.861600  1
  Rh  Rh17  1  0.261139  0.530650  0.638400  1
  Rh  Rh18  1  0.994360  0.005640  0.250000  1
  Rh  Rh19  1  0.005640  0.994360  0.750000  1
