# generated using pymatgen
data_Li(ScI3)2
_symmetry_space_group_name_H-M   'P 1'
_cell_length_a   7.52137200
_cell_length_b   7.52137217
_cell_length_c   13.68349400
_cell_angle_alpha   90.00000000
_cell_angle_beta   90.00000000
_cell_angle_gamma   119.99999044
_symmetry_Int_Tables_number   1
_chemical_formula_structural   Li(ScI3)2
_chemical_formula_sum   'Li2 Sc4 I12'
_cell_volume   670.38120161
_cell_formula_units_Z   2
loop_
 _symmetry_equiv_pos_site_id
 _symmetry_equiv_pos_as_xyz
  1  'x, y, z'
loop_
 _atom_site_type_symbol
 _atom_site_label
 _atom_site_symmetry_multiplicity
 _atom_site_fract_x
 _atom_site_fract_y
 _atom_site_fract_z
 _atom_site_occupancy
  Li  Li0  1  0.333333  0.666667  0.871587  1
  Li  Li1  1  0.666667  0.333333  0.371587  1
  Sc  Sc2  1  0.000000  0.000000  0.125615  1
  Sc  Sc3  1  0.000000  0.000000  0.376462  1
  Sc  Sc4  1  0.000000  0.000000  0.625615  1
  Sc  Sc5  1  0.000000  0.000000  0.876462  1
  I  I6  1  0.002983  0.685397  0.000339  1
  I  I7  1  0.316288  0.000306  0.251683  1
  I  I8  1  0.999694  0.315982  0.251683  1
  I  I9  1  0.314603  0.317586  0.000339  1
  I  I10  1  0.317586  0.314603  0.500339  1
  I  I11  1  0.682414  0.997017  0.000339  1
  I  I12  1  0.315982  0.999694  0.751683  1
  I  I13  1  0.684018  0.683712  0.251683  1
  I  I14  1  0.683712  0.684018  0.751683  1
  I  I15  1  0.997017  0.682414  0.500339  1
  I  I16  1  0.685397  0.002983  0.500339  1
  I  I17  1  0.000306  0.316288  0.751683  1
