# generated using pymatgen
data_Pr17Sm2ErPb16
_symmetry_space_group_name_H-M   'P 1'
_cell_length_a   8.47556005
_cell_length_b   8.59803400
_cell_length_c   16.34168400
_cell_angle_alpha   90.00000000
_cell_angle_beta   90.00000000
_cell_angle_gamma   89.99303194
_symmetry_Int_Tables_number   1
_chemical_formula_structural   Pr17Sm2ErPb16
_chemical_formula_sum   'Pr17 Sm2 Er1 Pb16'
_cell_volume   1190.87003787
_cell_formula_units_Z   1
loop_
 _symmetry_equiv_pos_site_id
 _symmetry_equiv_pos_as_xyz
  1  'x, y, z'
loop_
 _atom_site_type_symbol
 _atom_site_label
 _atom_site_symmetry_multiplicity
 _atom_site_fract_x
 _atom_site_fract_y
 _atom_site_fract_z
 _atom_site_occupancy
  Pr  Pr0  1  0.378754  0.841955  0.881397  1
  Pr  Pr1  1  0.876795  0.659148  0.618458  1
  Pr  Pr2  1  0.622623  0.158434  0.381007  1
  Pr  Pr3  1  0.122622  0.341519  0.119649  1
  Pr  Pr4  1  0.622623  0.158434  0.118993  1
  Pr  Pr5  1  0.122622  0.341519  0.380351  1
  Pr  Pr6  1  0.378754  0.841955  0.618603  1
  Pr  Pr7  1  0.876795  0.659148  0.881542  1
  Pr  Pr8  1  0.533275  0.320702  0.899652  1
  Pr  Pr9  1  0.032354  0.176776  0.600649  1
  Pr  Pr10  1  0.466691  0.677861  0.398697  1
  Pr  Pr11  1  0.966953  0.821995  0.100725  1
  Pr  Pr12  1  0.466691  0.677861  0.101303  1
  Pr  Pr13  1  0.966953  0.821995  0.399275  1
  Pr  Pr14  1  0.533275  0.320702  0.600348  1
  Pr  Pr15  1  0.032354  0.176776  0.899351  1
  Pr  Pr16  1  0.208203  0.502381  0.750000  1
  Sm  Sm17  1  0.790856  0.497128  0.250000  1
  Sm  Sm18  1  0.291074  0.003320  0.250000  1
  Er  Er19  1  0.709560  0.996035  0.750000  1
  Pb  Pb20  1  0.281069  0.031133  0.045736  1
  Pb  Pb21  1  0.781196  0.469317  0.454265  1
  Pb  Pb22  1  0.719367  0.969668  0.545837  1
  Pb  Pb23  1  0.218733  0.532052  0.956312  1
  Pb  Pb24  1  0.719367  0.969668  0.954163  1
  Pb  Pb25  1  0.218733  0.532052  0.543688  1
  Pb  Pb26  1  0.281069  0.031133  0.454264  1
  Pb  Pb27  1  0.781196  0.469317  0.045735  1
  Pb  Pb28  1  0.576382  0.628058  0.750000  1
  Pb  Pb29  1  0.071102  0.878816  0.750000  1
  Pb  Pb30  1  0.427459  0.375020  0.250000  1
  Pb  Pb31  1  0.926603  0.124204  0.250000  1
  Pb  Pb32  1  0.344105  0.147674  0.750000  1
  Pb  Pb33  1  0.839494  0.345474  0.750000  1
  Pb  Pb34  1  0.656933  0.848789  0.250000  1
  Pb  Pb35  1  0.157368  0.651981  0.250000  1
