# generated using pymatgen
data_Zr10Ga2(SnBi)3
_symmetry_space_group_name_H-M   'P 1'
_cell_length_a   8.83530202
_cell_length_b   8.81194987
_cell_length_c   5.91857000
_cell_angle_alpha   90.00000000
_cell_angle_beta   90.00000000
_cell_angle_gamma   120.07899684
_symmetry_Int_Tables_number   1
_chemical_formula_structural   Zr10Ga2(SnBi)3
_chemical_formula_sum   'Zr10 Ga2 Sn3 Bi3'
_cell_volume   398.74438298
_cell_formula_units_Z   1
loop_
 _symmetry_equiv_pos_site_id
 _symmetry_equiv_pos_as_xyz
  1  'x, y, z'
loop_
 _atom_site_type_symbol
 _atom_site_label
 _atom_site_symmetry_multiplicity
 _atom_site_fract_x
 _atom_site_fract_y
 _atom_site_fract_z
 _atom_site_occupancy
  Zr  Zr0  1  0.000275  0.267907  0.250000  1
  Zr  Zr1  1  0.736741  0.000666  0.750000  1
  Zr  Zr2  1  0.739625  0.733485  0.250000  1
  Zr  Zr3  1  0.671349  0.338316  0.501482  1
  Zr  Zr4  1  0.994695  0.728911  0.750000  1
  Zr  Zr5  1  0.262740  0.269105  0.750000  1
  Zr  Zr6  1  0.330503  0.663443  0.998290  1
  Zr  Zr7  1  0.671349  0.338316  0.998518  1
  Zr  Zr8  1  0.330503  0.663443  0.501710  1
  Zr  Zr9  1  0.260324  0.994671  0.250000  1
  Ga  Ga10  1  0.000248  0.000246  0.998903  1
  Ga  Ga11  1  0.000248  0.000246  0.501097  1
  Sn  Sn12  1  0.000815  0.609640  0.250000  1
  Sn  Sn13  1  0.999451  0.389440  0.750000  1
  Sn  Sn14  1  0.610475  0.611916  0.750000  1
  Bi  Bi15  1  0.611632  0.999301  0.250000  1
  Bi  Bi16  1  0.387405  0.000872  0.750000  1
  Bi  Bi17  1  0.391624  0.390075  0.250000  1
