# generated using pymatgen
data_CaMo2(PO4)3
_symmetry_space_group_name_H-M   'P 1'
_cell_length_a   8.83018585
_cell_length_b   8.83018602
_cell_length_c   9.07737513
_cell_angle_alpha   60.97940968
_cell_angle_beta   60.97941036
_cell_angle_gamma   60.39799786
_symmetry_Int_Tables_number   1
_chemical_formula_structural   CaMo2(PO4)3
_chemical_formula_sum   'Ca2 Mo4 P6 O24'
_cell_volume   509.31302845
_cell_formula_units_Z   2
loop_
 _symmetry_equiv_pos_site_id
 _symmetry_equiv_pos_as_xyz
  1  'x, y, z'
loop_
 _atom_site_type_symbol
 _atom_site_label
 _atom_site_symmetry_multiplicity
 _atom_site_fract_x
 _atom_site_fract_y
 _atom_site_fract_z
 _atom_site_occupancy
  Ca  Ca0  1  0.007878  0.488628  0.749475  1
  Ca  Ca1  1  0.511372  0.992122  0.250525  1
  Mo  Mo2  1  0.647950  0.139657  0.816511  1
  Mo  Mo3  1  0.860343  0.352050  0.183489  1
  Mo  Mo4  1  0.150696  0.641486  0.312335  1
  Mo  Mo5  1  0.358514  0.849304  0.687665  1
  P  P6  1  0.256248  0.452753  0.001415  1
  P  P7  1  0.458125  0.245323  0.502875  1
  P  P8  1  0.047729  0.952271  0.500000  1
  P  P9  1  0.963033  0.036967  0.000000  1
  P  P10  1  0.547247  0.743752  0.998585  1
  P  P11  1  0.754677  0.541875  0.497125  1
  O  O12  1  0.026595  0.110360  0.329505  1
  O  O13  1  0.796582  0.520454  0.323413  1
  O  O14  1  0.415997  0.266515  0.014079  1
  O  O15  1  0.319886  0.604269  0.830865  1
  O  O16  1  0.236703  0.920833  0.507696  1
  O  O17  1  0.616843  0.284236  0.334215  1
  O  O18  1  0.479546  0.203418  0.676587  1
  O  O19  1  0.094163  0.443289  0.986733  1
  O  O20  1  0.432737  0.079612  0.503614  1
  O  O21  1  0.271042  0.408039  0.498987  1
  O  O22  1  0.889640  0.973405  0.670495  1
  O  O23  1  0.079167  0.763297  0.492304  1
  O  O24  1  0.948163  0.224160  0.990052  1
  O  O25  1  0.116077  0.999206  0.829620  1
  O  O26  1  0.556711  0.905837  0.013267  1
  O  O27  1  0.733485  0.584003  0.985921  1
  O  O28  1  0.920388  0.567263  0.496386  1
  O  O29  1  0.507537  0.801887  0.826721  1
  O  O30  1  0.395731  0.680114  0.169135  1
  O  O31  1  0.775840  0.051837  0.009948  1
  O  O32  1  0.715764  0.383157  0.665785  1
  O  O33  1  0.591961  0.728958  0.501013  1
  O  O34  1  0.198113  0.492463  0.173279  1
  O  O35  1  0.000794  0.883923  0.170380  1
