# generated using pymatgen
data_YbTh2(Al3Ni2)3
_symmetry_space_group_name_H-M   'P 1'
_cell_length_a   9.11843900
_cell_length_b   9.11843941
_cell_length_c   4.06762100
_cell_angle_alpha   90.00000000
_cell_angle_beta   90.00000000
_cell_angle_gamma   120.00000215
_symmetry_Int_Tables_number   1
_chemical_formula_structural   YbTh2(Al3Ni2)3
_chemical_formula_sum   'Yb1 Th2 Al9 Ni6'
_cell_volume   292.89510718
_cell_formula_units_Z   1
loop_
 _symmetry_equiv_pos_site_id
 _symmetry_equiv_pos_as_xyz
  1  'x, y, z'
loop_
 _atom_site_type_symbol
 _atom_site_label
 _atom_site_symmetry_multiplicity
 _atom_site_fract_x
 _atom_site_fract_y
 _atom_site_fract_z
 _atom_site_occupancy
  Yb  Yb0  1  0.000000  0.000000  0.000000  1
  Th  Th1  1  0.333333  0.666667  0.500000  1
  Th  Th2  1  0.666667  0.333333  0.500000  1
  Al  Al3  1  0.500000  0.000000  0.000000  1
  Al  Al4  1  0.000000  0.500000  0.000000  1
  Al  Al5  1  0.500000  0.500000  0.000000  1
  Al  Al6  1  0.295804  0.000000  0.500000  1
  Al  Al7  1  0.704196  0.000000  0.500000  1
  Al  Al8  1  0.000000  0.295804  0.500000  1
  Al  Al9  1  0.000000  0.704196  0.500000  1
  Al  Al10  1  0.704196  0.704196  0.500000  1
  Al  Al11  1  0.295804  0.295804  0.500000  1
  Ni  Ni12  1  0.180969  0.361939  0.000000  1
  Ni  Ni13  1  0.819031  0.638061  0.000000  1
  Ni  Ni14  1  0.638061  0.819031  0.000000  1
  Ni  Ni15  1  0.361939  0.180969  0.000000  1
  Ni  Ni16  1  0.180969  0.819031  0.000000  1
  Ni  Ni17  1  0.819031  0.180969  0.000000  1
