# generated using pymatgen
data_RbNa3RuO5
_symmetry_space_group_name_H-M   'P 1'
_cell_length_a   5.95997039
_cell_length_b   5.95997022
_cell_length_c   9.21629755
_cell_angle_alpha   79.31874553
_cell_angle_beta   79.31874418
_cell_angle_gamma   79.84390175
_symmetry_Int_Tables_number   1
_chemical_formula_structural   RbNa3RuO5
_chemical_formula_sum   'Rb2 Na6 Ru2 O10'
_cell_volume   312.69253627
_cell_formula_units_Z   2
loop_
 _symmetry_equiv_pos_site_id
 _symmetry_equiv_pos_as_xyz
  1  'x, y, z'
loop_
 _atom_site_type_symbol
 _atom_site_label
 _atom_site_symmetry_multiplicity
 _atom_site_fract_x
 _atom_site_fract_y
 _atom_site_fract_z
 _atom_site_occupancy
  Rb  Rb0  1  0.250820  0.749180  0.500000  1
  Rb  Rb1  1  0.749180  0.250820  0.500000  1
  Na  Na2  1  0.352580  0.840183  0.114960  1
  Na  Na3  1  0.159817  0.647420  0.885040  1
  Na  Na4  1  0.647420  0.159817  0.885040  1
  Na  Na5  1  0.811256  0.811256  0.273839  1
  Na  Na6  1  0.840183  0.352580  0.114960  1
  Na  Na7  1  0.188744  0.188744  0.726161  1
  Ru  Ru8  1  0.309569  0.309569  0.254265  1
  Ru  Ru9  1  0.690431  0.690431  0.745735  1
  O  O10  1  0.743312  0.743312  0.542208  1
  O  O11  1  0.256688  0.256688  0.457792  1
  O  O12  1  0.549913  0.120481  0.156337  1
  O  O13  1  0.903823  0.903823  0.755810  1
  O  O14  1  0.525382  0.525382  0.253430  1
  O  O15  1  0.120481  0.549913  0.156337  1
  O  O16  1  0.879519  0.450087  0.843663  1
  O  O17  1  0.474618  0.474618  0.746570  1
  O  O18  1  0.096177  0.096177  0.244190  1
  O  O19  1  0.450087  0.879519  0.843663  1
