# generated using pymatgen
data_Y4Tc6IrOs
_symmetry_space_group_name_H-M   'P 1'
_cell_length_a   5.27641500
_cell_length_b   5.27641574
_cell_length_c   9.21039600
_cell_angle_alpha   90.00000000
_cell_angle_beta   90.00000000
_cell_angle_gamma   120.00000161
_symmetry_Int_Tables_number   1
_chemical_formula_structural   Y4Tc6IrOs
_chemical_formula_sum   'Y4 Tc6 Ir1 Os1'
_cell_volume   222.06846030
_cell_formula_units_Z   1
loop_
 _symmetry_equiv_pos_site_id
 _symmetry_equiv_pos_as_xyz
  1  'x, y, z'
loop_
 _atom_site_type_symbol
 _atom_site_label
 _atom_site_symmetry_multiplicity
 _atom_site_fract_x
 _atom_site_fract_y
 _atom_site_fract_z
 _atom_site_occupancy
  Y  Y0  1  0.333333  0.666667  0.437387  1
  Y  Y1  1  0.666667  0.333333  0.562613  1
  Y  Y2  1  0.666667  0.333333  0.936500  1
  Y  Y3  1  0.333333  0.666667  0.063500  1
  Tc  Tc4  1  0.829163  0.170837  0.248941  1
  Tc  Tc5  1  0.829163  0.658327  0.248941  1
  Tc  Tc6  1  0.341673  0.170837  0.248941  1
  Tc  Tc7  1  0.170837  0.829163  0.751059  1
  Tc  Tc8  1  0.170837  0.341673  0.751059  1
  Tc  Tc9  1  0.658327  0.829163  0.751059  1
  Ir  Ir10  1  0.000000  0.000000  0.500000  1
  Os  Os11  1  0.000000  0.000000  0.000000  1
