# generated using pymatgen
data_Rb2LiAlH6
_symmetry_space_group_name_H-M   'P 1'
_cell_length_a   9.89728690
_cell_length_b   9.89728653
_cell_length_c   9.89728756
_cell_angle_alpha   34.20785039
_cell_angle_beta   34.20785367
_cell_angle_gamma   34.20785212
_symmetry_Int_Tables_number   1
_chemical_formula_structural   Rb2LiAlH6
_chemical_formula_sum   'Rb4 Li2 Al2 H12'
_cell_volume   273.23526799
_cell_formula_units_Z   2
loop_
 _symmetry_equiv_pos_site_id
 _symmetry_equiv_pos_as_xyz
  1  'x, y, z'
loop_
 _atom_site_type_symbol
 _atom_site_label
 _atom_site_symmetry_multiplicity
 _atom_site_fract_x
 _atom_site_fract_y
 _atom_site_fract_z
 _atom_site_occupancy
  Rb  Rb0  1  0.127191  0.127191  0.127191  1
  Rb  Rb1  1  0.872809  0.872809  0.872809  1
  Rb  Rb2  1  0.286291  0.286291  0.286291  1
  Rb  Rb3  1  0.713709  0.713709  0.713709  1
  Li  Li4  1  0.408903  0.408903  0.408903  1
  Li  Li5  1  0.591097  0.591097  0.591097  1
  Al  Al6  1  0.000000  0.000000  0.000000  1
  Al  Al7  1  0.500000  0.500000  0.500000  1
  H  H8  1  0.184206  0.184206  0.740972  1
  H  H9  1  0.740972  0.184206  0.184206  1
  H  H10  1  0.184206  0.740972  0.184206  1
  H  H11  1  0.815794  0.259028  0.815794  1
  H  H12  1  0.815794  0.815794  0.259028  1
  H  H13  1  0.259028  0.815794  0.815794  1
  H  H14  1  0.400047  0.400047  0.815880  1
  H  H15  1  0.815880  0.400047  0.400047  1
  H  H16  1  0.184120  0.599953  0.599953  1
  H  H17  1  0.599953  0.599953  0.184120  1
  H  H18  1  0.599953  0.184120  0.599953  1
  H  H19  1  0.400047  0.815880  0.400047  1
