# generated using pymatgen
data_Sr3ErBi3
_symmetry_space_group_name_H-M   'P 1'
_cell_length_a   8.61091372
_cell_length_b   8.75201481
_cell_length_c   8.61091336
_cell_angle_alpha   109.72279185
_cell_angle_beta   108.89992715
_cell_angle_gamma   109.72278509
_symmetry_Int_Tables_number   1
_chemical_formula_structural   Sr3ErBi3
_chemical_formula_sum   'Sr6 Er2 Bi6'
_cell_volume   499.95053026
_cell_formula_units_Z   2
loop_
 _symmetry_equiv_pos_site_id
 _symmetry_equiv_pos_as_xyz
  1  'x, y, z'
loop_
 _atom_site_type_symbol
 _atom_site_label
 _atom_site_symmetry_multiplicity
 _atom_site_fract_x
 _atom_site_fract_y
 _atom_site_fract_z
 _atom_site_occupancy
  Sr  Sr0  1  0.359118  0.355703  0.356044  1
  Sr  Sr1  1  0.000827  0.141874  0.498613  1
  Sr  Sr2  1  0.856044  0.855703  0.859118  1
  Sr  Sr3  1  0.998613  0.641874  0.500827  1
  Sr  Sr4  1  0.503433  0.002549  0.140391  1
  Sr  Sr5  1  0.640391  0.502549  0.003433  1
  Er  Er6  1  0.501258  0.002210  0.638398  1
  Er  Er7  1  0.138398  0.502210  0.001258  1
  Bi  Bi8  1  0.876297  0.252982  0.105316  1
  Bi  Bi9  1  0.140026  0.864917  0.255933  1
  Bi  Bi10  1  0.371236  0.629765  0.753111  1
  Bi  Bi11  1  0.253111  0.129765  0.871236  1
  Bi  Bi12  1  0.755933  0.364917  0.640026  1
  Bi  Bi13  1  0.605316  0.752982  0.376297  1
