# generated using pymatgen
data_Tb3Ga3Cu11Ni
_symmetry_space_group_name_H-M   'P 1'
_cell_length_a   8.76029076
_cell_length_b   8.76029197
_cell_length_c   4.14622500
_cell_angle_alpha   90.00000000
_cell_angle_beta   90.00000000
_cell_angle_gamma   120.24421724
_symmetry_Int_Tables_number   1
_chemical_formula_structural   Tb3Ga3Cu11Ni
_chemical_formula_sum   'Tb3 Ga3 Cu11 Ni1'
_cell_volume   274.88217443
_cell_formula_units_Z   1
loop_
 _symmetry_equiv_pos_site_id
 _symmetry_equiv_pos_as_xyz
  1  'x, y, z'
loop_
 _atom_site_type_symbol
 _atom_site_label
 _atom_site_symmetry_multiplicity
 _atom_site_fract_x
 _atom_site_fract_y
 _atom_site_fract_z
 _atom_site_occupancy
  Tb  Tb0  1  0.332051  0.661592  0.000000  1
  Tb  Tb1  1  0.661592  0.332051  0.000000  1
  Tb  Tb2  1  0.007197  0.007197  0.000000  1
  Ga  Ga3  1  0.499227  0.997044  0.500000  1
  Ga  Ga4  1  0.997044  0.499227  0.500000  1
  Ga  Ga5  1  0.497032  0.497032  0.500000  1
  Cu  Cu6  1  0.331050  0.998442  0.000000  1
  Cu  Cu7  1  0.669975  0.999664  0.000000  1
  Cu  Cu8  1  0.998442  0.331050  0.000000  1
  Cu  Cu9  1  0.999664  0.669975  0.000000  1
  Cu  Cu10  1  0.670841  0.670841  0.000000  1
  Cu  Cu11  1  0.165370  0.330602  0.500000  1
  Cu  Cu12  1  0.833550  0.668660  0.500000  1
  Cu  Cu13  1  0.668660  0.833550  0.500000  1
  Cu  Cu14  1  0.330602  0.165370  0.500000  1
  Cu  Cu15  1  0.166711  0.832659  0.500000  1
  Cu  Cu16  1  0.832659  0.166711  0.500000  1
  Ni  Ni17  1  0.338335  0.338335  0.000000  1
