# generated using pymatgen
data_ThAl3Pt
_symmetry_space_group_name_H-M   'P 1'
_cell_length_a   6.17235428
_cell_length_b   6.17235427
_cell_length_c   6.17235445
_cell_angle_alpha   139.21616162
_cell_angle_beta   139.21616610
_cell_angle_gamma   59.04539319
_symmetry_Int_Tables_number   1
_chemical_formula_structural   ThAl3Pt
_chemical_formula_sum   'Th1 Al3 Pt1'
_cell_volume   99.37280157
_cell_formula_units_Z   1
loop_
 _symmetry_equiv_pos_site_id
 _symmetry_equiv_pos_as_xyz
  1  'x, y, z'
loop_
 _atom_site_type_symbol
 _atom_site_label
 _atom_site_symmetry_multiplicity
 _atom_site_fract_x
 _atom_site_fract_y
 _atom_site_fract_z
 _atom_site_occupancy
  Th  Th0  1  0.600753  0.600753  0.000000  1
  Al  Al1  1  0.010188  0.010188  0.000000  1
  Al  Al2  1  0.855484  0.355484  0.499999  1
  Al  Al3  1  0.355484  0.855484  0.499999  1
  Pt  Pt4  1  0.236893  0.236893  0.000000  1
