# generated using pymatgen
data_KRb5Nb4(AsSe11)2
_symmetry_space_group_name_H-M   'P 1'
_cell_length_a   10.36479054
_cell_length_b   10.38380578
_cell_length_c   10.20265883
_cell_angle_alpha   83.81196063
_cell_angle_beta   95.64711194
_cell_angle_gamma   95.98638627
_symmetry_Int_Tables_number   1
_chemical_formula_structural   KRb5Nb4(AsSe11)2
_chemical_formula_sum   'K1 Rb5 Nb4 As2 Se22'
_cell_volume   1081.49336729
_cell_formula_units_Z   1
loop_
 _symmetry_equiv_pos_site_id
 _symmetry_equiv_pos_as_xyz
  1  'x, y, z'
loop_
 _atom_site_type_symbol
 _atom_site_label
 _atom_site_symmetry_multiplicity
 _atom_site_fract_x
 _atom_site_fract_y
 _atom_site_fract_z
 _atom_site_occupancy
  K  K0  1  0.143313  0.014003  0.975913  1
  Rb  Rb1  1  0.990408  0.853503  0.480352  1
  Rb  Rb2  1  0.356492  0.487147  0.072694  1
  Rb  Rb3  1  0.513059  0.643877  0.573370  1
  Rb  Rb4  1  0.891214  0.248028  0.314842  1
  Rb  Rb5  1  0.749280  0.109163  0.815990  1
  Nb  Nb6  1  0.247390  0.206123  0.587579  1
  Nb  Nb7  1  0.794454  0.752030  0.085136  1
  Nb  Nb8  1  0.501505  0.093104  0.401385  1
  Nb  Nb9  1  0.907566  0.497138  0.901390  1
  As  As10  1  0.123556  0.546877  0.636877  1
  As  As11  1  0.452611  0.879195  0.136688  1
  Se  Se12  1  0.541783  0.101734  0.147317  1
  Se  Se13  1  0.900227  0.458848  0.647563  1
  Se  Se14  1  0.220720  0.393707  0.398773  1
  Se  Se15  1  0.607325  0.779456  0.897750  1
  Se  Se16  1  0.276660  0.399711  0.744021  1
  Se  Se17  1  0.600695  0.725819  0.243281  1
  Se  Se18  1  0.524097  0.273972  0.565118  1
  Se  Se19  1  0.725289  0.475060  0.065150  1
  Se  Se20  1  0.353099  0.978862  0.601389  1
  Se  Se21  1  0.020807  0.643967  0.099740  1
  Se  Se22  1  0.237879  0.179753  0.331616  1
  Se  Se23  1  0.821243  0.761123  0.829374  1
  Se  Se24  1  0.577568  0.338663  0.343793  1
  Se  Se25  1  0.661851  0.422273  0.844374  1
  Se  Se26  1  0.682817  0.977986  0.484365  1
  Se  Se27  1  0.022511  0.315058  0.983307  1
  Se  Se28  1  0.395958  0.103348  0.789347  1
  Se  Se29  1  0.893169  0.600693  0.286904  1
  Se  Se30  1  0.034989  0.127288  0.646391  1
  Se  Se31  1  0.877922  0.964337  0.139170  1
  Se  Se32  1  0.321911  0.898713  0.323655  1
  Se  Se33  1  0.102993  0.677083  0.823108  1
