# generated using pymatgen
data_VNiAs2(SeO3)8
_symmetry_space_group_name_H-M   'P 1'
_cell_length_a   7.95808889
_cell_length_b   8.11786616
_cell_length_c   7.99860204
_cell_angle_alpha   89.33797265
_cell_angle_beta   90.28258997
_cell_angle_gamma   89.70550282
_symmetry_Int_Tables_number   1
_chemical_formula_structural   VNiAs2(SeO3)8
_chemical_formula_sum   'V1 Ni1 As2 Se8 O24'
_cell_volume   516.68353588
_cell_formula_units_Z   1
loop_
 _symmetry_equiv_pos_site_id
 _symmetry_equiv_pos_as_xyz
  1  'x, y, z'
loop_
 _atom_site_type_symbol
 _atom_site_label
 _atom_site_symmetry_multiplicity
 _atom_site_fract_x
 _atom_site_fract_y
 _atom_site_fract_z
 _atom_site_occupancy
  V  V0  1  0.500000  0.500000  0.500000  1
  Ni  Ni1  1  0.000000  0.500000  0.000000  1
  As  As2  1  0.000000  0.000000  0.500000  1
  As  As3  1  0.500000  0.000000  0.000000  1
  Se  Se4  1  0.332997  0.676504  0.164263  1
  Se  Se5  1  0.835094  0.326550  0.333658  1
  Se  Se6  1  0.682946  0.833608  0.682284  1
  Se  Se7  1  0.174056  0.164282  0.823801  1
  Se  Se8  1  0.667003  0.323496  0.835737  1
  Se  Se9  1  0.164906  0.673450  0.666342  1
  Se  Se10  1  0.317054  0.166392  0.317716  1
  Se  Se11  1  0.825944  0.835718  0.176199  1
  O  O12  1  0.256291  0.538863  0.031402  1
  O  O13  1  0.739611  0.452414  0.481459  1
  O  O14  1  0.764783  0.980054  0.537636  1
  O  O15  1  0.268449  0.010648  0.961713  1
  O  O16  1  0.536900  0.976568  0.767226  1
  O  O17  1  0.488332  0.558776  0.268859  1
  O  O18  1  0.973545  0.458332  0.251528  1
  O  O19  1  0.037975  0.012716  0.730579  1
  O  O20  1  0.978674  0.226245  0.485228  1
  O  O21  1  0.546720  0.739120  0.551340  1
  O  O22  1  0.487850  0.773710  0.026790  1
  O  O23  1  0.040819  0.247559  0.958230  1
  O  O24  1  0.743709  0.461137  0.968598  1
  O  O25  1  0.260389  0.547586  0.518541  1
  O  O26  1  0.235217  0.019946  0.462364  1
  O  O27  1  0.731551  0.989352  0.038287  1
  O  O28  1  0.463100  0.023432  0.232774  1
  O  O29  1  0.511668  0.441224  0.731141  1
  O  O30  1  0.026455  0.541668  0.748472  1
  O  O31  1  0.962025  0.987284  0.269421  1
  O  O32  1  0.021326  0.773755  0.514772  1
  O  O33  1  0.453280  0.260880  0.448660  1
  O  O34  1  0.512150  0.226290  0.973210  1
  O  O35  1  0.959181  0.752441  0.041770  1
