# generated using pymatgen
data_Tm12CdFe3Au
_symmetry_space_group_name_H-M   'P 1'
_cell_length_a   8.18053519
_cell_length_b   8.18053297
_cell_length_c   8.18053527
_cell_angle_alpha   107.48004217
_cell_angle_beta   109.64089481
_cell_angle_gamma   111.31547265
_symmetry_Int_Tables_number   1
_chemical_formula_structural   Tm12CdFe3Au
_chemical_formula_sum   'Tm12 Cd1 Fe3 Au1'
_cell_volume   420.95425671
_cell_formula_units_Z   1
loop_
 _symmetry_equiv_pos_site_id
 _symmetry_equiv_pos_as_xyz
  1  'x, y, z'
loop_
 _atom_site_type_symbol
 _atom_site_label
 _atom_site_symmetry_multiplicity
 _atom_site_fract_x
 _atom_site_fract_y
 _atom_site_fract_z
 _atom_site_occupancy
  Tm  Tm0  1  0.186568  0.413529  0.226961  1
  Tm  Tm1  1  0.813432  0.586471  0.773039  1
  Tm  Tm2  1  0.186569  0.959608  0.773039  1
  Tm  Tm3  1  0.936657  0.190738  0.745919  1
  Tm  Tm4  1  0.813431  0.040392  0.226961  1
  Tm  Tm5  1  0.063343  0.809262  0.254081  1
  Tm  Tm6  1  0.444819  0.190738  0.254083  1
  Tm  Tm7  1  0.555181  0.809262  0.745917  1
  Tm  Tm8  1  0.310995  0.308470  0.619466  1
  Tm  Tm9  1  0.689005  0.691530  0.380534  1
  Tm  Tm10  1  0.689004  0.308470  0.997474  1
  Tm  Tm11  1  0.310996  0.691530  0.002526  1
  Cd  Cd12  1  0.000000  0.500000  0.500000  1
  Fe  Fe13  1  0.381526  0.381525  0.999999  1
  Fe  Fe14  1  0.618474  0.618475  0.000001  1
  Fe  Fe15  1  0.000000  0.000000  0.000000  1
  Au  Au16  1  0.500000  0.000000  0.500000  1
