# generated using pymatgen
data_DyTm2Lu7Pb6
_symmetry_space_group_name_H-M   'P 1'
_cell_length_a   8.90644927
_cell_length_b   8.92470460
_cell_length_c   6.50507900
_cell_angle_alpha   90.00000000
_cell_angle_beta   90.00000000
_cell_angle_gamma   119.96035383
_symmetry_Int_Tables_number   1
_chemical_formula_structural   DyTm2Lu7Pb6
_chemical_formula_sum   'Dy1 Tm2 Lu7 Pb6'
_cell_volume   447.97627897
_cell_formula_units_Z   1
loop_
 _symmetry_equiv_pos_site_id
 _symmetry_equiv_pos_as_xyz
  1  'x, y, z'
loop_
 _atom_site_type_symbol
 _atom_site_label
 _atom_site_symmetry_multiplicity
 _atom_site_fract_x
 _atom_site_fract_y
 _atom_site_fract_z
 _atom_site_occupancy
  Dy  Dy0  1  0.764686  0.999675  0.750000  1
  Tm  Tm1  1  0.235105  0.235573  0.750000  1
  Tm  Tm2  1  0.233339  0.000113  0.250000  1
  Lu  Lu3  1  0.334088  0.667828  0.000139  1
  Lu  Lu4  1  0.666606  0.332261  0.000114  1
  Lu  Lu5  1  0.999221  0.764290  0.750000  1
  Lu  Lu6  1  0.764885  0.763902  0.250000  1
  Lu  Lu7  1  0.001014  0.236297  0.250000  1
  Lu  Lu8  1  0.334088  0.667828  0.499861  1
  Lu  Lu9  1  0.666606  0.332261  0.499886  1
  Pb  Pb10  1  0.001902  0.398234  0.750000  1
  Pb  Pb11  1  0.395035  0.395317  0.250000  1
  Pb  Pb12  1  0.605716  0.999898  0.250000  1
  Pb  Pb13  1  0.604452  0.602343  0.750000  1
  Pb  Pb14  1  0.393640  0.999831  0.750000  1
  Pb  Pb15  1  0.999617  0.604351  0.250000  1
