# generated using pymatgen
data_Er16In4Ru3Au
_symmetry_space_group_name_H-M   'P 1'
_cell_length_a   9.60969937
_cell_length_b   9.60970073
_cell_length_c   9.60969945
_cell_angle_alpha   60.05000393
_cell_angle_beta   60.05001014
_cell_angle_gamma   60.05000293
_symmetry_Int_Tables_number   1
_chemical_formula_structural   Er16In4Ru3Au
_chemical_formula_sum   'Er16 In4 Ru3 Au1'
_cell_volume   628.21227750
_cell_formula_units_Z   1
loop_
 _symmetry_equiv_pos_site_id
 _symmetry_equiv_pos_as_xyz
  1  'x, y, z'
loop_
 _atom_site_type_symbol
 _atom_site_label
 _atom_site_symmetry_multiplicity
 _atom_site_fract_x
 _atom_site_fract_y
 _atom_site_fract_z
 _atom_site_occupancy
  Er  Er0  1  0.107844  0.692399  0.107844  1
  Er  Er1  1  0.942242  0.942242  0.546445  1
  Er  Er2  1  0.942242  0.546445  0.942242  1
  Er  Er3  1  0.311485  0.690667  0.311485  1
  Er  Er4  1  0.941494  0.559155  0.559155  1
  Er  Er5  1  0.311485  0.311485  0.690667  1
  Er  Er6  1  0.095668  0.095668  0.095668  1
  Er  Er7  1  0.559155  0.559155  0.941494  1
  Er  Er8  1  0.107844  0.107844  0.692399  1
  Er  Er9  1  0.691392  0.314912  0.691392  1
  Er  Er10  1  0.691392  0.691392  0.314912  1
  Er  Er11  1  0.690667  0.311485  0.311485  1
  Er  Er12  1  0.314912  0.691392  0.691392  1
  Er  Er13  1  0.559155  0.941494  0.559155  1
  Er  Er14  1  0.692399  0.107844  0.107844  1
  Er  Er15  1  0.546445  0.942242  0.942242  1
  In  In16  1  0.334087  0.334087  0.334087  1
  In  In17  1  0.000912  0.332060  0.332060  1
  In  In18  1  0.332060  0.000912  0.332060  1
  In  In19  1  0.332060  0.332060  0.000912  1
  Ru  Ru20  1  0.888103  0.888103  0.326192  1
  Ru  Ru21  1  0.326192  0.888103  0.888103  1
  Ru  Ru22  1  0.888103  0.326192  0.888103  1
  Au  Au23  1  0.892658  0.892658  0.892658  1
