# generated using pymatgen
data_Tb3Ge2P4Rh9
_symmetry_space_group_name_H-M   'P 1'
_cell_length_a   3.96699300
_cell_length_b   11.39841300
_cell_length_c   12.90269900
_cell_angle_alpha   90.00000000
_cell_angle_beta   90.00000000
_cell_angle_gamma   90.00000000
_symmetry_Int_Tables_number   1
_chemical_formula_structural   Tb3Ge2P4Rh9
_chemical_formula_sum   'Tb6 Ge4 P8 Rh18'
_cell_volume   583.42681894
_cell_formula_units_Z   2
loop_
 _symmetry_equiv_pos_site_id
 _symmetry_equiv_pos_as_xyz
  1  'x, y, z'
loop_
 _atom_site_type_symbol
 _atom_site_label
 _atom_site_symmetry_multiplicity
 _atom_site_fract_x
 _atom_site_fract_y
 _atom_site_fract_z
 _atom_site_occupancy
  Tb  Tb0  1  0.000000  0.500000  0.525321  1
  Tb  Tb1  1  0.500000  0.000000  0.474679  1
  Tb  Tb2  1  0.500000  0.812973  0.207046  1
  Tb  Tb3  1  0.500000  0.187027  0.207046  1
  Tb  Tb4  1  0.000000  0.687027  0.792954  1
  Tb  Tb5  1  0.000000  0.312973  0.792954  1
  Ge  Ge6  1  0.500000  0.500000  0.876690  1
  Ge  Ge7  1  0.000000  0.000000  0.123310  1
  Ge  Ge8  1  0.500000  0.500000  0.349222  1
  Ge  Ge9  1  0.000000  0.000000  0.650778  1
  P  P10  1  0.500000  0.310976  0.618540  1
  P  P11  1  0.500000  0.689024  0.618540  1
  P  P12  1  0.000000  0.189024  0.381460  1
  P  P13  1  0.000000  0.810976  0.381460  1
  P  P14  1  0.500000  0.844813  0.894005  1
  P  P15  1  0.500000  0.155187  0.894005  1
  P  P16  1  0.000000  0.655187  0.105995  1
  P  P17  1  0.000000  0.344813  0.105995  1
  Rh  Rh18  1  0.500000  0.500000  0.158885  1
  Rh  Rh19  1  0.000000  0.000000  0.841115  1
  Rh  Rh20  1  0.500000  0.500000  0.689428  1
  Rh  Rh21  1  0.000000  0.000000  0.310572  1
  Rh  Rh22  1  0.000000  0.500000  0.991508  1
  Rh  Rh23  1  0.500000  0.000000  0.008492  1
  Rh  Rh24  1  0.500000  0.330554  0.996028  1
  Rh  Rh25  1  0.500000  0.669446  0.996028  1
  Rh  Rh26  1  0.000000  0.169446  0.003972  1
  Rh  Rh27  1  0.000000  0.830554  0.003972  1
  Rh  Rh28  1  0.500000  0.289307  0.431315  1
  Rh  Rh29  1  0.500000  0.710693  0.431315  1
  Rh  Rh30  1  0.000000  0.210693  0.568685  1
  Rh  Rh31  1  0.000000  0.789307  0.568685  1
  Rh  Rh32  1  0.500000  0.870351  0.713708  1
  Rh  Rh33  1  0.500000  0.129649  0.713708  1
  Rh  Rh34  1  0.000000  0.629649  0.286292  1
  Rh  Rh35  1  0.000000  0.370351  0.286292  1
