# generated using pymatgen
data_Hf6Al16Co3CuNi3
_symmetry_space_group_name_H-M   'P 1'
_cell_length_a   8.51772236
_cell_length_b   8.50074839
_cell_length_c   8.50588828
_cell_angle_alpha   60.11209530
_cell_angle_beta   59.91403879
_cell_angle_gamma   60.08850628
_symmetry_Int_Tables_number   1
_chemical_formula_structural   Hf6Al16Co3CuNi3
_chemical_formula_sum   'Hf6 Al16 Co3 Cu1 Ni3'
_cell_volume   435.87127184
_cell_formula_units_Z   1
loop_
 _symmetry_equiv_pos_site_id
 _symmetry_equiv_pos_as_xyz
  1  'x, y, z'
loop_
 _atom_site_type_symbol
 _atom_site_label
 _atom_site_symmetry_multiplicity
 _atom_site_fract_x
 _atom_site_fract_y
 _atom_site_fract_z
 _atom_site_occupancy
  Hf  Hf0  1  0.685712  0.685712  0.314288  1
  Hf  Hf1  1  0.307189  0.692811  0.307550  1
  Hf  Hf2  1  0.687812  0.312188  0.312939  1
  Hf  Hf3  1  0.314288  0.314288  0.685712  1
  Hf  Hf4  1  0.692811  0.307189  0.692450  1
  Hf  Hf5  1  0.312188  0.687812  0.687061  1
  Al  Al6  1  0.878522  0.884095  0.354478  1
  Al  Al7  1  0.889323  0.353312  0.881536  1
  Al  Al8  1  0.353312  0.889323  0.875829  1
  Al  Al9  1  0.884095  0.878522  0.882905  1
  Al  Al10  1  0.121478  0.115905  0.645522  1
  Al  Al11  1  0.110677  0.646688  0.118464  1
  Al  Al12  1  0.646688  0.110677  0.124171  1
  Al  Al13  1  0.115905  0.121478  0.117095  1
  Al  Al14  1  0.668925  0.667023  0.002598  1
  Al  Al15  1  0.665453  0.003245  0.664709  1
  Al  Al16  1  0.003245  0.665453  0.666594  1
  Al  Al17  1  0.667023  0.668925  0.661454  1
  Al  Al18  1  0.331075  0.332977  0.997402  1
  Al  Al19  1  0.334547  0.996755  0.335291  1
  Al  Al20  1  0.996755  0.334547  0.333406  1
  Al  Al21  1  0.332977  0.331075  0.338546  1
  Co  Co22  1  0.000000  0.000000  0.000000  1
  Co  Co23  1  0.500000  0.000000  0.500000  1
  Co  Co24  1  0.000000  0.500000  0.000000  1
  Cu  Cu25  1  0.500000  0.500000  0.000000  1
  Ni  Ni26  1  0.000000  0.000000  0.500000  1
  Ni  Ni27  1  0.000000  0.500000  0.500000  1
  Ni  Ni28  1  0.500000  0.000000  0.000000  1
