# generated using pymatgen
data_GdTm3(NiP)4
_symmetry_space_group_name_H-M   'P 1'
_cell_length_a   3.87337200
_cell_length_b   3.87337202
_cell_length_c   15.21992400
_cell_angle_alpha   90.00000000
_cell_angle_beta   90.00000000
_cell_angle_gamma   120.00001688
_symmetry_Int_Tables_number   1
_chemical_formula_structural   GdTm3(NiP)4
_chemical_formula_sum   'Gd1 Tm3 Ni4 P4'
_cell_volume   197.75226288
_cell_formula_units_Z   1
loop_
 _symmetry_equiv_pos_site_id
 _symmetry_equiv_pos_as_xyz
  1  'x, y, z'
loop_
 _atom_site_type_symbol
 _atom_site_label
 _atom_site_symmetry_multiplicity
 _atom_site_fract_x
 _atom_site_fract_y
 _atom_site_fract_z
 _atom_site_occupancy
  Gd  Gd0  1  0.000000  0.000000  0.250000  1
  Tm  Tm1  1  0.000000  0.000000  0.501233  1
  Tm  Tm2  1  0.000000  0.000000  0.998767  1
  Tm  Tm3  1  0.000000  0.000000  0.750000  1
  Ni  Ni4  1  0.333333  0.666667  0.372965  1
  Ni  Ni5  1  0.666667  0.333333  0.631614  1
  Ni  Ni6  1  0.666667  0.333333  0.868386  1
  Ni  Ni7  1  0.333333  0.666667  0.127035  1
  P  P8  1  0.333333  0.666667  0.877839  1
  P  P9  1  0.666667  0.333333  0.121590  1
  P  P10  1  0.666667  0.333333  0.378410  1
  P  P11  1  0.333333  0.666667  0.622161  1
