# generated using pymatgen
data_PrNd3Ga18(PdRu2)2
_symmetry_space_group_name_H-M   'P 1'
_cell_length_a   7.63527945
_cell_length_b   7.64944352
_cell_length_c   9.74454900
_cell_angle_alpha   90.00000000
_cell_angle_beta   90.00000000
_cell_angle_gamma   119.54236913
_symmetry_Int_Tables_number   1
_chemical_formula_structural   PrNd3Ga18(PdRu2)2
_chemical_formula_sum   'Pr1 Nd3 Ga18 Pd2 Ru4'
_cell_volume   495.14391130
_cell_formula_units_Z   1
loop_
 _symmetry_equiv_pos_site_id
 _symmetry_equiv_pos_as_xyz
  1  'x, y, z'
loop_
 _atom_site_type_symbol
 _atom_site_label
 _atom_site_symmetry_multiplicity
 _atom_site_fract_x
 _atom_site_fract_y
 _atom_site_fract_z
 _atom_site_occupancy
  Pr  Pr0  1  0.997227  0.673172  0.250000  1
  Nd  Nd1  1  0.002530  0.327145  0.750000  1
  Nd  Nd2  1  0.672362  0.997645  0.250000  1
  Nd  Nd3  1  0.327308  0.002522  0.750000  1
  Ga  Ga4  1  0.136491  0.137247  0.250000  1
  Ga  Ga5  1  0.863909  0.863972  0.750000  1
  Ga  Ga6  1  0.005401  0.339841  0.075531  1
  Ga  Ga7  1  0.994543  0.659124  0.923018  1
  Ga  Ga8  1  0.994543  0.659124  0.576982  1
  Ga  Ga9  1  0.342139  0.006257  0.424028  1
  Ga  Ga10  1  0.005401  0.339841  0.424469  1
  Ga  Ga11  1  0.658846  0.994531  0.576655  1
  Ga  Ga12  1  0.658846  0.994531  0.923345  1
  Ga  Ga13  1  0.342139  0.006257  0.075972  1
  Ga  Ga14  1  0.343037  0.342958  0.562126  1
  Ga  Ga15  1  0.656225  0.657041  0.438597  1
  Ga  Ga16  1  0.656225  0.657041  0.061403  1
  Ga  Ga17  1  0.343037  0.342958  0.937874  1
  Ga  Ga18  1  0.336868  0.550036  0.250000  1
  Ga  Ga19  1  0.663918  0.449643  0.750000  1
  Ga  Ga20  1  0.548791  0.334533  0.250000  1
  Ga  Ga21  1  0.450004  0.664432  0.750000  1
  Pd  Pd22  1  0.000053  0.000290  0.999745  1
  Pd  Pd23  1  0.000053  0.000290  0.500255  1
  Ru  Ru24  1  0.673403  0.327072  0.999871  1
  Ru  Ru25  1  0.326648  0.672713  0.999349  1
  Ru  Ru26  1  0.326648  0.672713  0.500651  1
  Ru  Ru27  1  0.673403  0.327072  0.500129  1
