# generated using pymatgen
data_TbErSn(AsRh2)6
_symmetry_space_group_name_H-M   'P 1'
_cell_length_a   10.06931000
_cell_length_b   10.06930841
_cell_length_c   3.93730500
_cell_angle_alpha   90.00000000
_cell_angle_beta   90.00000000
_cell_angle_gamma   119.99999865
_symmetry_Int_Tables_number   1
_chemical_formula_structural   TbErSn(AsRh2)6
_chemical_formula_sum   'Tb1 Er1 Sn1 As6 Rh12'
_cell_volume   345.72361892
_cell_formula_units_Z   1
loop_
 _symmetry_equiv_pos_site_id
 _symmetry_equiv_pos_as_xyz
  1  'x, y, z'
loop_
 _atom_site_type_symbol
 _atom_site_label
 _atom_site_symmetry_multiplicity
 _atom_site_fract_x
 _atom_site_fract_y
 _atom_site_fract_z
 _atom_site_occupancy
  Tb  Tb0  1  0.666667  0.333333  0.749871  1
  Er  Er1  1  0.333333  0.666667  0.246585  1
  Sn  Sn2  1  0.000000  0.000000  0.630247  1
  As  As3  1  0.288668  0.881848  0.746648  1
  As  As4  1  0.118152  0.406820  0.746648  1
  As  As5  1  0.593180  0.711332  0.746648  1
  As  As6  1  0.710443  0.115420  0.250777  1
  As  As7  1  0.884580  0.595023  0.250777  1
  As  As8  1  0.404977  0.289557  0.250777  1
  Rh  Rh9  1  0.069615  0.619078  0.748214  1
  Rh  Rh10  1  0.380922  0.450538  0.748214  1
  Rh  Rh11  1  0.549462  0.930385  0.748214  1
  Rh  Rh12  1  0.936147  0.385965  0.249617  1
  Rh  Rh13  1  0.614035  0.550182  0.249617  1
  Rh  Rh14  1  0.449818  0.063853  0.249617  1
  Rh  Rh15  1  0.290110  0.127203  0.752831  1
  Rh  Rh16  1  0.872797  0.162909  0.752831  1
  Rh  Rh17  1  0.837091  0.709890  0.752831  1
  Rh  Rh18  1  0.730400  0.879733  0.244222  1
  Rh  Rh19  1  0.120267  0.850668  0.244222  1
  Rh  Rh20  1  0.149332  0.269600  0.244222  1
