# generated using pymatgen
data_Dy7HoHg4
_symmetry_space_group_name_H-M   'P 1'
_cell_length_a   5.09400800
_cell_length_b   7.03009963
_cell_length_c   9.29631970
_cell_angle_alpha   90.05002767
_cell_angle_beta   90.00000000
_cell_angle_gamma   90.00000000
_symmetry_Int_Tables_number   1
_chemical_formula_structural   Dy7HoHg4
_chemical_formula_sum   'Dy7 Ho1 Hg4'
_cell_volume   332.91394537
_cell_formula_units_Z   1
loop_
 _symmetry_equiv_pos_site_id
 _symmetry_equiv_pos_as_xyz
  1  'x, y, z'
loop_
 _atom_site_type_symbol
 _atom_site_label
 _atom_site_symmetry_multiplicity
 _atom_site_fract_x
 _atom_site_fract_y
 _atom_site_fract_z
 _atom_site_occupancy
  Dy  Dy0  1  0.250000  0.019233  0.807075  1
  Dy  Dy1  1  0.250000  0.518195  0.691978  1
  Dy  Dy2  1  0.750000  0.981419  0.194142  1
  Dy  Dy3  1  0.750000  0.482311  0.307111  1
  Dy  Dy4  1  0.250000  0.166994  0.425376  1
  Dy  Dy5  1  0.250000  0.664913  0.073148  1
  Dy  Dy6  1  0.750000  0.833637  0.575866  1
  Ho  Ho7  1  0.750000  0.333050  0.925084  1
  Hg  Hg8  1  0.250000  0.734162  0.395516  1
  Hg  Hg9  1  0.250000  0.232567  0.103012  1
  Hg  Hg10  1  0.750000  0.267202  0.603749  1
  Hg  Hg11  1  0.750000  0.766317  0.897943  1
