# generated using pymatgen
data_TbTmPb4
_symmetry_space_group_name_H-M   'P 1'
_cell_length_a   8.53235343
_cell_length_b   8.53235369
_cell_length_c   4.53163500
_cell_angle_alpha   90.00000000
_cell_angle_beta   90.00000000
_cell_angle_gamma   148.53837790
_symmetry_Int_Tables_number   1
_chemical_formula_structural   TbTmPb4
_chemical_formula_sum   'Tb1 Tm1 Pb4'
_cell_volume   172.18790785
_cell_formula_units_Z   1
loop_
 _symmetry_equiv_pos_site_id
 _symmetry_equiv_pos_as_xyz
  1  'x, y, z'
loop_
 _atom_site_type_symbol
 _atom_site_label
 _atom_site_symmetry_multiplicity
 _atom_site_fract_x
 _atom_site_fract_y
 _atom_site_fract_z
 _atom_site_occupancy
  Tb  Tb0  1  0.404950  0.595051  0.750000  1
  Tm  Tm1  1  0.595449  0.404552  0.249999  1
  Pb  Pb2  1  0.931670  0.068332  0.249999  1
  Pb  Pb3  1  0.248238  0.751764  0.249999  1
  Pb  Pb4  1  0.750794  0.249208  0.750000  1
  Pb  Pb5  1  0.068904  0.931098  0.750000  1
