# generated using pymatgen
data_Yb8Pr11ErSn16
_symmetry_space_group_name_H-M   'P 1'
_cell_length_a   8.03070009
_cell_length_b   8.52370488
_cell_length_c   16.10249853
_cell_angle_alpha   90.05484807
_cell_angle_beta   89.93186486
_cell_angle_gamma   90.14307809
_symmetry_Int_Tables_number   1
_chemical_formula_structural   Yb8Pr11ErSn16
_chemical_formula_sum   'Yb8 Pr11 Er1 Sn16'
_cell_volume   1102.23252135
_cell_formula_units_Z   1
loop_
 _symmetry_equiv_pos_site_id
 _symmetry_equiv_pos_as_xyz
  1  'x, y, z'
loop_
 _atom_site_type_symbol
 _atom_site_label
 _atom_site_symmetry_multiplicity
 _atom_site_fract_x
 _atom_site_fract_y
 _atom_site_fract_z
 _atom_site_occupancy
  Yb  Yb0  1  0.828045  0.669214  0.624196  1
  Yb  Yb1  1  0.669662  0.171215  0.376148  1
  Yb  Yb2  1  0.170480  0.329385  0.122775  1
  Yb  Yb3  1  0.668512  0.170549  0.123168  1
  Yb  Yb4  1  0.159479  0.498988  0.750067  1
  Yb  Yb5  1  0.660685  0.999386  0.749527  1
  Yb  Yb6  1  0.839973  0.497362  0.248729  1
  Yb  Yb7  1  0.341475  0.002037  0.247965  1
  Pr  Pr8  1  0.166690  0.326198  0.374672  1
  Pr  Pr9  1  0.331731  0.828513  0.625058  1
  Pr  Pr10  1  0.831371  0.672352  0.877096  1
  Pr  Pr11  1  0.492694  0.315501  0.904811  1
  Pr  Pr12  1  0.989675  0.184878  0.597149  1
  Pr  Pr13  1  0.511354  0.686046  0.402886  1
  Pr  Pr14  1  0.009457  0.814468  0.096671  1
  Pr  Pr15  1  0.509291  0.685037  0.095581  1
  Pr  Pr16  1  0.006894  0.816124  0.403547  1
  Pr  Pr17  1  0.492477  0.316223  0.596703  1
  Pr  Pr18  1  0.991395  0.185308  0.904686  1
  Er  Er19  1  0.329498  0.830088  0.876432  1
  Sn  Sn20  1  0.327317  0.034955  0.037889  1
  Sn  Sn21  1  0.827427  0.464216  0.460448  1
  Sn  Sn22  1  0.672322  0.964528  0.538926  1
  Sn  Sn23  1  0.176250  0.537903  0.960521  1
  Sn  Sn24  1  0.664872  0.964172  0.960734  1
  Sn  Sn25  1  0.168449  0.536754  0.538657  1
  Sn  Sn26  1  0.330431  0.036409  0.460425  1
  Sn  Sn27  1  0.831086  0.461990  0.040447  1
  Sn  Sn28  1  0.527969  0.607650  0.751926  1
  Sn  Sn29  1  0.030875  0.896393  0.752689  1
  Sn  Sn30  1  0.469803  0.395622  0.249055  1
  Sn  Sn31  1  0.967461  0.104190  0.248777  1
  Sn  Sn32  1  0.289637  0.139728  0.751697  1
  Sn  Sn33  1  0.786948  0.357431  0.750804  1
  Sn  Sn34  1  0.713374  0.858607  0.249155  1
  Sn  Sn35  1  0.214939  0.640579  0.249984  1
