# generated using pymatgen
data_Sc8CoRu4Rh3
_symmetry_space_group_name_H-M   'P 1'
_cell_length_a   6.37867400
_cell_length_b   4.54559500
_cell_length_c   9.12759900
_cell_angle_alpha   89.99989310
_cell_angle_beta   89.99836657
_cell_angle_gamma   90.00257914
_symmetry_Int_Tables_number   1
_chemical_formula_structural   Sc8CoRu4Rh3
_chemical_formula_sum   'Sc8 Co1 Ru4 Rh3'
_cell_volume   264.65353382
_cell_formula_units_Z   1
loop_
 _symmetry_equiv_pos_site_id
 _symmetry_equiv_pos_as_xyz
  1  'x, y, z'
loop_
 _atom_site_type_symbol
 _atom_site_label
 _atom_site_symmetry_multiplicity
 _atom_site_fract_x
 _atom_site_fract_y
 _atom_site_fract_z
 _atom_site_occupancy
  Sc  Sc0  1  0.002901  0.750001  0.122108  1
  Sc  Sc1  1  0.497586  0.749990  0.122176  1
  Sc  Sc2  1  0.000955  0.250017  0.374975  1
  Sc  Sc3  1  0.499505  0.249986  0.375020  1
  Sc  Sc4  1  0.497126  0.749991  0.627853  1
  Sc  Sc5  1  0.002410  0.750010  0.627877  1
  Sc  Sc6  1  0.494919  0.249981  0.874990  1
  Sc  Sc7  1  0.004625  0.250014  0.875011  1
  Co  Co8  1  0.249854  0.750002  0.875013  1
  Ru  Ru9  1  0.250148  0.249999  0.124046  1
  Ru  Ru10  1  0.750188  0.749994  0.374976  1
  Ru  Ru11  1  0.249817  0.250003  0.625990  1
  Ru  Ru12  1  0.749820  0.750001  0.874978  1
  Rh  Rh13  1  0.750144  0.249995  0.124633  1
  Rh  Rh14  1  0.250153  0.749998  0.375001  1
  Rh  Rh15  1  0.749852  0.250003  0.625353  1
