# generated using pymatgen
data_Sm2Ge2Os2C
_symmetry_space_group_name_H-M   'P 1'
_cell_length_a   5.96231424
_cell_length_b   5.96231388
_cell_length_c   7.01010522
_cell_angle_alpha   125.30533916
_cell_angle_beta   125.30533430
_cell_angle_gamma   41.19056833
_symmetry_Int_Tables_number   1
_chemical_formula_structural   Sm2Ge2Os2C
_chemical_formula_sum   'Sm2 Ge2 Os2 C1'
_cell_volume   129.10346434
_cell_formula_units_Z   1
loop_
 _symmetry_equiv_pos_site_id
 _symmetry_equiv_pos_as_xyz
  1  'x, y, z'
loop_
 _atom_site_type_symbol
 _atom_site_label
 _atom_site_symmetry_multiplicity
 _atom_site_fract_x
 _atom_site_fract_y
 _atom_site_fract_z
 _atom_site_occupancy
  Sm  Sm0  1  0.561537  0.561537  0.294892  1
  Sm  Sm1  1  0.438464  0.438464  0.705109  1
  Ge  Ge2  1  0.842051  0.842051  0.300972  1
  Ge  Ge3  1  0.157949  0.157949  0.699028  1
  Os  Os4  1  0.200512  0.200512  0.096894  1
  Os  Os5  1  0.799488  0.799488  0.903106  1
  C  C6  1  0.000000  0.000000  0.000000  1
