# generated using pymatgen
data_Gd4Y(TcO6)2
_symmetry_space_group_name_H-M   'P 1'
_cell_length_a   6.91730918
_cell_length_b   6.91730906
_cell_length_c   7.63335330
_cell_angle_alpha   73.62107126
_cell_angle_beta   73.62107323
_cell_angle_gamma   48.71236674
_symmetry_Int_Tables_number   1
_chemical_formula_structural   Gd4Y(TcO6)2
_chemical_formula_sum   'Gd4 Y1 Tc2 O12'
_cell_volume   260.97187711
_cell_formula_units_Z   1
loop_
 _symmetry_equiv_pos_site_id
 _symmetry_equiv_pos_as_xyz
  1  'x, y, z'
loop_
 _atom_site_type_symbol
 _atom_site_label
 _atom_site_symmetry_multiplicity
 _atom_site_fract_x
 _atom_site_fract_y
 _atom_site_fract_z
 _atom_site_occupancy
  Gd  Gd0  1  0.499589  0.499589  0.500225  1
  Gd  Gd1  1  0.184413  0.184413  0.175495  1
  Gd  Gd2  1  0.815657  0.815657  0.825443  1
  Gd  Gd3  1  0.805087  0.805087  0.358045  1
  Y  Y4  1  0.194461  0.194461  0.643775  1
  Tc  Tc5  1  0.714026  0.286656  0.999231  1
  Tc  Tc6  1  0.286656  0.714026  0.999231  1
  O  O7  1  0.998828  0.998828  0.173982  1
  O  O8  1  0.002400  0.002400  0.823367  1
  O  O9  1  0.499229  0.499229  0.797637  1
  O  O10  1  0.501457  0.501457  0.201286  1
  O  O11  1  0.594731  0.094293  0.575539  1
  O  O12  1  0.907181  0.401333  0.427794  1
  O  O13  1  0.401333  0.907181  0.427794  1
  O  O14  1  0.412385  0.913334  0.915841  1
  O  O15  1  0.088342  0.586599  0.081969  1
  O  O16  1  0.586599  0.088342  0.081969  1
  O  O17  1  0.913334  0.412385  0.915841  1
  O  O18  1  0.094293  0.594731  0.575539  1
