# generated using pymatgen
data_Zn2FeRh3O8
_symmetry_space_group_name_H-M   'P 1'
_cell_length_a   6.15762631
_cell_length_b   6.15740841
_cell_length_c   6.02264704
_cell_angle_alpha   120.74354189
_cell_angle_beta   89.99459640
_cell_angle_gamma   60.00131611
_symmetry_Int_Tables_number   1
_chemical_formula_structural   Zn2FeRh3O8
_chemical_formula_sum   'Zn2 Fe1 Rh3 O8'
_cell_volume   159.62382003
_cell_formula_units_Z   1
loop_
 _symmetry_equiv_pos_site_id
 _symmetry_equiv_pos_as_xyz
  1  'x, y, z'
loop_
 _atom_site_type_symbol
 _atom_site_label
 _atom_site_symmetry_multiplicity
 _atom_site_fract_x
 _atom_site_fract_y
 _atom_site_fract_z
 _atom_site_occupancy
  Zn  Zn0  1  0.878772  0.742456  0.863682  1
  Zn  Zn1  1  0.121228  0.257544  0.136318  1
  Fe  Fe2  1  0.500000  0.500000  0.000000  1
  Rh  Rh3  1  0.000000  0.000000  0.500000  1
  Rh  Rh4  1  0.500000  0.000000  0.500000  1
  Rh  Rh5  1  0.500000  0.500000  0.500000  1
  O  O6  1  0.738419  0.023121  0.744113  1
  O  O7  1  0.738415  0.482576  0.744115  1
  O  O8  1  0.260805  0.978351  0.717507  1
  O  O9  1  0.261581  0.976879  0.255887  1
  O  O10  1  0.261585  0.517424  0.255885  1
  O  O11  1  0.739195  0.021649  0.282493  1
  O  O12  1  0.279004  0.482583  0.744163  1
  O  O13  1  0.720996  0.517417  0.255837  1
