# generated using pymatgen
data_Tb2Dy2Hf3AlPt4
_symmetry_space_group_name_H-M   'P 1'
_cell_length_a   4.57594400
_cell_length_b   7.10122017
_cell_length_c   8.16238451
_cell_angle_alpha   87.00257370
_cell_angle_beta   90.00000000
_cell_angle_gamma   90.00000000
_symmetry_Int_Tables_number   1
_chemical_formula_structural   Tb2Dy2Hf3AlPt4
_chemical_formula_sum   'Tb2 Dy2 Hf3 Al1 Pt4'
_cell_volume   264.87206452
_cell_formula_units_Z   1
loop_
 _symmetry_equiv_pos_site_id
 _symmetry_equiv_pos_as_xyz
  1  'x, y, z'
loop_
 _atom_site_type_symbol
 _atom_site_label
 _atom_site_symmetry_multiplicity
 _atom_site_fract_x
 _atom_site_fract_y
 _atom_site_fract_z
 _atom_site_occupancy
  Tb  Tb0  1  0.750000  0.517142  0.814968  1
  Tb  Tb1  1  0.750000  0.039320  0.671208  1
  Dy  Dy2  1  0.250000  0.472374  0.187072  1
  Dy  Dy3  1  0.250000  0.988218  0.337154  1
  Hf  Hf4  1  0.250000  0.855839  0.924038  1
  Hf  Hf5  1  0.750000  0.137517  0.070825  1
  Hf  Hf6  1  0.750000  0.640285  0.435284  1
  Al  Al7  1  0.250000  0.358620  0.572004  1
  Pt  Pt8  1  0.250000  0.725602  0.609736  1
  Pt  Pt9  1  0.750000  0.270523  0.380935  1
  Pt  Pt10  1  0.750000  0.765706  0.102269  1
  Pt  Pt11  1  0.250000  0.228857  0.894508  1
