# generated using pymatgen
data_Na2PH
_symmetry_space_group_name_H-M   'P 1'
_cell_length_a   5.05368094
_cell_length_b   4.78273906
_cell_length_c   4.83585418
_cell_angle_alpha   116.92304702
_cell_angle_beta   58.56044300
_cell_angle_gamma   121.72331397
_symmetry_Int_Tables_number   1
_chemical_formula_structural   Na2PH
_chemical_formula_sum   'Na2 P1 H1'
_cell_volume   82.21907414
_cell_formula_units_Z   1
loop_
 _symmetry_equiv_pos_site_id
 _symmetry_equiv_pos_as_xyz
  1  'x, y, z'
loop_
 _atom_site_type_symbol
 _atom_site_label
 _atom_site_symmetry_multiplicity
 _atom_site_fract_x
 _atom_site_fract_y
 _atom_site_fract_z
 _atom_site_occupancy
  Na  Na0  1  0.334281  0.212037  0.525825  1
  Na  Na1  1  0.831759  0.699682  0.015265  1
  P  P2  1  0.095213  0.469061  0.258585  1
  H  H3  1  0.873532  0.226036  0.462743  1
