# generated using pymatgen
data_Dy2LuAuO6
_symmetry_space_group_name_H-M   'P 1'
_cell_length_a   3.54925097
_cell_length_b   5.53437767
_cell_length_c   7.09729114
_cell_angle_alpha   89.09894361
_cell_angle_beta   102.28490803
_cell_angle_gamma   91.01356022
_symmetry_Int_Tables_number   1
_chemical_formula_structural   Dy2LuAuO6
_chemical_formula_sum   'Dy2 Lu1 Au1 O6'
_cell_volume   136.18753434
_cell_formula_units_Z   1
loop_
 _symmetry_equiv_pos_site_id
 _symmetry_equiv_pos_as_xyz
  1  'x, y, z'
loop_
 _atom_site_type_symbol
 _atom_site_label
 _atom_site_symmetry_multiplicity
 _atom_site_fract_x
 _atom_site_fract_y
 _atom_site_fract_z
 _atom_site_occupancy
  Dy  Dy0  1  0.610397  0.531144  0.761858  1
  Dy  Dy1  1  0.389603  0.468856  0.238142  1
  Lu  Lu2  1  0.000000  0.000000  0.500000  1
  Au  Au3  1  0.000000  0.000000  0.000000  1
  O  O4  1  0.831924  0.679167  0.103504  1
  O  O5  1  0.168076  0.320833  0.896496  1
  O  O6  1  0.523252  0.251080  0.531956  1
  O  O7  1  0.476748  0.748920  0.468044  1
  O  O8  1  0.122472  0.806693  0.780594  1
  O  O9  1  0.877528  0.193307  0.219406  1
