# generated using pymatgen
data_Tb2TmGa5Ir
_symmetry_space_group_name_H-M   'P 1'
_cell_length_a   6.95752587
_cell_length_b   6.95752499
_cell_length_c   4.28055200
_cell_angle_alpha   90.00000000
_cell_angle_beta   90.00000000
_cell_angle_gamma   119.82760798
_symmetry_Int_Tables_number   1
_chemical_formula_structural   Tb2TmGa5Ir
_chemical_formula_sum   'Tb2 Tm1 Ga5 Ir1'
_cell_volume   179.75948895
_cell_formula_units_Z   1
loop_
 _symmetry_equiv_pos_site_id
 _symmetry_equiv_pos_as_xyz
  1  'x, y, z'
loop_
 _atom_site_type_symbol
 _atom_site_label
 _atom_site_symmetry_multiplicity
 _atom_site_fract_x
 _atom_site_fract_y
 _atom_site_fract_z
 _atom_site_occupancy
  Tb  Tb0  1  0.588080  0.999568  0.000000  1
  Tb  Tb1  1  0.999568  0.588080  0.000000  1
  Tm  Tm2  1  0.409061  0.409061  0.000000  1
  Ga  Ga3  1  0.236098  0.000544  0.500000  1
  Ga  Ga4  1  0.000544  0.236098  0.500000  1
  Ga  Ga5  1  0.763831  0.763831  0.500000  1
  Ga  Ga6  1  0.334137  0.665559  0.500000  1
  Ga  Ga7  1  0.665559  0.334137  0.500000  1
  Ir  Ir8  1  0.003122  0.003122  0.000000  1
