# generated using pymatgen
data_Ca2P7Ru12
_symmetry_space_group_name_H-M   'P 1'
_cell_length_a   9.43902200
_cell_length_b   9.43902164
_cell_length_c   3.95127900
_cell_angle_alpha   90.00000000
_cell_angle_beta   90.00000000
_cell_angle_gamma   119.99999425
_symmetry_Int_Tables_number   1
_chemical_formula_structural   Ca2P7Ru12
_chemical_formula_sum   'Ca2 P7 Ru12'
_cell_volume   304.87536497
_cell_formula_units_Z   1
loop_
 _symmetry_equiv_pos_site_id
 _symmetry_equiv_pos_as_xyz
  1  'x, y, z'
loop_
 _atom_site_type_symbol
 _atom_site_label
 _atom_site_symmetry_multiplicity
 _atom_site_fract_x
 _atom_site_fract_y
 _atom_site_fract_z
 _atom_site_occupancy
  Ca  Ca0  1  0.666667  0.333333  0.500000  1
  Ca  Ca1  1  0.333333  0.666667  0.000000  1
  P  P2  1  0.602244  0.716244  0.500000  1
  P  P3  1  0.000000  0.000000  0.000000  1
  P  P4  1  0.283756  0.886000  0.500000  1
  P  P5  1  0.114000  0.397756  0.500000  1
  P  P6  1  0.887310  0.577038  0.000000  1
  P  P7  1  0.422962  0.310272  0.000000  1
  P  P8  1  0.689728  0.112690  0.000000  1
  Ru  Ru9  1  0.559949  0.953079  0.500000  1
  Ru  Ru10  1  0.393131  0.440051  0.500000  1
  Ru  Ru11  1  0.915690  0.120202  0.500000  1
  Ru  Ru12  1  0.204513  0.084310  0.500000  1
  Ru  Ru13  1  0.879798  0.795487  0.500000  1
  Ru  Ru14  1  0.728502  0.890500  0.000000  1
  Ru  Ru15  1  0.109500  0.838001  0.000000  1
  Ru  Ru16  1  0.161999  0.271498  0.000000  1
  Ru  Ru17  1  0.422556  0.063918  0.000000  1
  Ru  Ru18  1  0.936082  0.358639  0.000000  1
  Ru  Ru19  1  0.641361  0.577444  0.000000  1
  Ru  Ru20  1  0.046921  0.606869  0.500000  1
