# generated using pymatgen
data_AlCoBi2(TeO6)2
_symmetry_space_group_name_H-M   'P 1'
_cell_length_a   5.12964300
_cell_length_b   8.87837900
_cell_length_c   10.13944300
_cell_angle_alpha   89.99857448
_cell_angle_beta   89.99858454
_cell_angle_gamma   90.00262184
_symmetry_Int_Tables_number   1
_chemical_formula_structural   AlCoBi2(TeO6)2
_chemical_formula_sum   'Al2 Co2 Bi4 Te4 O24'
_cell_volume   461.77978732
_cell_formula_units_Z   2
loop_
 _symmetry_equiv_pos_site_id
 _symmetry_equiv_pos_as_xyz
  1  'x, y, z'
loop_
 _atom_site_type_symbol
 _atom_site_label
 _atom_site_symmetry_multiplicity
 _atom_site_fract_x
 _atom_site_fract_y
 _atom_site_fract_z
 _atom_site_occupancy
  Al  Al0  1  0.000006  0.333188  0.750001  1
  Al  Al1  1  0.999994  0.666812  0.249999  1
  Co  Co2  1  0.500002  0.833284  0.750001  1
  Co  Co3  1  0.499998  0.166716  0.249999  1
  Bi  Bi4  1  0.000000  0.000000  0.500000  1
  Bi  Bi5  1  0.500000  0.500000  0.500000  1
  Bi  Bi6  1  0.000000  0.000000  0.000000  1
  Bi  Bi7  1  0.500000  0.500000  0.000000  1
  Te  Te8  1  0.500086  0.165508  0.750002  1
  Te  Te9  1  0.000103  0.667838  0.750001  1
  Te  Te10  1  0.999897  0.332162  0.249999  1
  Te  Te11  1  0.499914  0.834492  0.249998  1
  O  O12  1  0.630888  0.996992  0.644313  1
  O  O13  1  0.124151  0.498781  0.643463  1
  O  O14  1  0.689312  0.313002  0.644079  1
  O  O15  1  0.189234  0.816519  0.643590  1
  O  O16  1  0.184287  0.188190  0.643645  1
  O  O17  1  0.682373  0.686220  0.644099  1
  O  O18  1  0.189193  0.183477  0.143579  1
  O  O19  1  0.689286  0.686995  0.144069  1
  O  O20  1  0.124114  0.501224  0.143448  1
  O  O21  1  0.630850  0.003020  0.144307  1
  O  O22  1  0.682355  0.313781  0.144115  1
  O  O23  1  0.184272  0.811812  0.143660  1
  O  O24  1  0.875849  0.501219  0.356537  1
  O  O25  1  0.369112  0.003008  0.355687  1
  O  O26  1  0.810766  0.183481  0.356410  1
  O  O27  1  0.310688  0.686998  0.355921  1
  O  O28  1  0.317627  0.313780  0.355901  1
  O  O29  1  0.815713  0.811810  0.356355  1
  O  O30  1  0.310714  0.313005  0.855931  1
  O  O31  1  0.810807  0.816523  0.856421  1
  O  O32  1  0.369150  0.996980  0.855693  1
  O  O33  1  0.875886  0.498776  0.856552  1
  O  O34  1  0.815728  0.188188  0.856340  1
  O  O35  1  0.317645  0.686219  0.855885  1
