# generated using pymatgen
data_Cs3TlCl6
_symmetry_space_group_name_H-M   'P 1'
_cell_length_a   9.47090600
_cell_length_b   9.47090600
_cell_length_c   7.86551500
_cell_angle_alpha   90.00000000
_cell_angle_beta   90.00000000
_cell_angle_gamma   90.00000000
_symmetry_Int_Tables_number   1
_chemical_formula_structural   Cs3TlCl6
_chemical_formula_sum   'Cs6 Tl2 Cl12'
_cell_volume   705.52144003
_cell_formula_units_Z   2
loop_
 _symmetry_equiv_pos_site_id
 _symmetry_equiv_pos_as_xyz
  1  'x, y, z'
loop_
 _atom_site_type_symbol
 _atom_site_label
 _atom_site_symmetry_multiplicity
 _atom_site_fract_x
 _atom_site_fract_y
 _atom_site_fract_z
 _atom_site_occupancy
  Cs  Cs0  1  0.000000  0.000000  0.500000  1
  Cs  Cs1  1  0.000000  0.000000  0.000000  1
  Cs  Cs2  1  0.234510  0.584910  0.500000  1
  Cs  Cs3  1  0.765490  0.415090  0.500000  1
  Cs  Cs4  1  0.415090  0.234510  0.000000  1
  Cs  Cs5  1  0.584910  0.765490  0.000000  1
  Tl  Tl6  1  0.500000  0.000000  0.500000  1
  Tl  Tl7  1  0.000000  0.500000  0.000000  1
  Cl  Cl8  1  0.690485  0.058523  0.739150  1
  Cl  Cl9  1  0.309515  0.941477  0.739150  1
  Cl  Cl10  1  0.941477  0.690485  0.239150  1
  Cl  Cl11  1  0.058523  0.309515  0.239150  1
  Cl  Cl12  1  0.309515  0.941477  0.260850  1
  Cl  Cl13  1  0.690485  0.058523  0.260850  1
  Cl  Cl14  1  0.058523  0.309515  0.760850  1
  Cl  Cl15  1  0.941477  0.690485  0.760850  1
  Cl  Cl16  1  0.570730  0.732186  0.500000  1
  Cl  Cl17  1  0.429270  0.267814  0.500000  1
  Cl  Cl18  1  0.267814  0.570730  0.000000  1
  Cl  Cl19  1  0.732186  0.429270  0.000000  1
