# generated using pymatgen
data_Cs8(RuO3)3
_symmetry_space_group_name_H-M   'P 1'
_cell_length_a   8.47374100
_cell_length_b   11.84731600
_cell_length_c   20.91680900
_cell_angle_alpha   90.00000000
_cell_angle_beta   105.14165503
_cell_angle_gamma   90.00000000
_symmetry_Int_Tables_number   1
_chemical_formula_structural   Cs8(RuO3)3
_chemical_formula_sum   'Cs32 Ru12 O36'
_cell_volume   2026.96028459
_cell_formula_units_Z   4
loop_
 _symmetry_equiv_pos_site_id
 _symmetry_equiv_pos_as_xyz
  1  'x, y, z'
loop_
 _atom_site_type_symbol
 _atom_site_label
 _atom_site_symmetry_multiplicity
 _atom_site_fract_x
 _atom_site_fract_y
 _atom_site_fract_z
 _atom_site_occupancy
  Cs  Cs0  1  0.538993  0.871713  0.084067  1
  Cs  Cs1  1  0.461007  0.371713  0.415933  1
  Cs  Cs2  1  0.461007  0.128287  0.915933  1
  Cs  Cs3  1  0.538993  0.628287  0.584067  1
  Cs  Cs4  1  0.530228  0.125994  0.584612  1
  Cs  Cs5  1  0.469772  0.625994  0.915388  1
  Cs  Cs6  1  0.469772  0.874006  0.415388  1
  Cs  Cs7  1  0.530228  0.374006  0.084612  1
  Cs  Cs8  1  0.734355  0.862624  0.733118  1
  Cs  Cs9  1  0.265645  0.362624  0.766882  1
  Cs  Cs10  1  0.265645  0.137376  0.266882  1
  Cs  Cs11  1  0.734355  0.637376  0.233118  1
  Cs  Cs12  1  0.752745  0.394105  0.736458  1
  Cs  Cs13  1  0.247255  0.894105  0.763542  1
  Cs  Cs14  1  0.247255  0.605895  0.263542  1
  Cs  Cs15  1  0.752745  0.105895  0.236458  1
  Cs  Cs16  1  0.773395  0.374843  0.941565  1
  Cs  Cs17  1  0.226605  0.874843  0.558435  1
  Cs  Cs18  1  0.226605  0.625157  0.058435  1
  Cs  Cs19  1  0.773395  0.125157  0.441565  1
  Cs  Cs20  1  0.955118  0.127261  0.863159  1
  Cs  Cs21  1  0.044882  0.627261  0.636841  1
  Cs  Cs22  1  0.044882  0.872739  0.136841  1
  Cs  Cs23  1  0.955118  0.372739  0.363159  1
  Cs  Cs24  1  0.002501  0.125379  0.643757  1
  Cs  Cs25  1  0.997499  0.625379  0.856243  1
  Cs  Cs26  1  0.997499  0.874621  0.356243  1
  Cs  Cs27  1  0.002501  0.374621  0.143757  1
  Cs  Cs28  1  0.214281  0.372736  0.555376  1
  Cs  Cs29  1  0.785719  0.872736  0.944624  1
  Cs  Cs30  1  0.785719  0.627264  0.444624  1
  Cs  Cs31  1  0.214281  0.127264  0.055376  1
  Ru  Ru32  1  0.554774  0.143391  0.751640  1
  Ru  Ru33  1  0.445226  0.643391  0.748360  1
  Ru  Ru34  1  0.445226  0.856609  0.248360  1
  Ru  Ru35  1  0.554774  0.356609  0.251640  1
  Ru  Ru36  1  0.799195  0.874287  0.563540  1
  Ru  Ru37  1  0.200805  0.374287  0.936460  1
  Ru  Ru38  1  0.200805  0.125713  0.436460  1
  Ru  Ru39  1  0.799195  0.625713  0.063540  1
  Ru  Ru40  1  0.790569  0.377825  0.566260  1
  Ru  Ru41  1  0.209431  0.877825  0.933740  1
  Ru  Ru42  1  0.209431  0.622175  0.433740  1
  Ru  Ru43  1  0.790569  0.122175  0.066260  1
  O  O44  1  0.586953  0.376424  0.577969  1
  O  O45  1  0.413047  0.876424  0.922031  1
  O  O46  1  0.413047  0.623576  0.422031  1
  O  O47  1  0.586953  0.123576  0.077969  1
  O  O48  1  0.603533  0.241112  0.821896  1
  O  O49  1  0.396467  0.741112  0.678104  1
  O  O50  1  0.396467  0.758888  0.178104  1
  O  O51  1  0.603533  0.258888  0.321896  1
  O  O52  1  0.840120  0.120561  0.986608  1
  O  O53  1  0.159880  0.620561  0.513392  1
  O  O54  1  0.159880  0.879439  0.013392  1
  O  O55  1  0.840120  0.379439  0.486608  1
  O  O56  1  0.592908  0.878428  0.573543  1
  O  O57  1  0.407092  0.378428  0.926457  1
  O  O58  1  0.407092  0.121572  0.426457  1
  O  O59  1  0.592908  0.621572  0.073543  1
  O  O60  1  0.738226  0.109582  0.724563  1
  O  O61  1  0.261774  0.609582  0.775437  1
  O  O62  1  0.261774  0.890418  0.275437  1
  O  O63  1  0.738226  0.390418  0.224563  1
  O  O64  1  0.971708  0.378366  0.638769  1
  O  O65  1  0.028292  0.878366  0.861231  1
  O  O66  1  0.028292  0.621634  0.361231  1
  O  O67  1  0.971708  0.121634  0.138769  1
  O  O68  1  0.038728  0.370984  0.857722  1
  O  O69  1  0.961272  0.870984  0.642278  1
  O  O70  1  0.961272  0.629016  0.142278  1
  O  O71  1  0.038728  0.129016  0.357722  1
  O  O72  1  0.149972  0.126726  0.515021  1
  O  O73  1  0.850028  0.626726  0.984979  1
  O  O74  1  0.850028  0.873274  0.484979  1
  O  O75  1  0.149972  0.373274  0.015021  1
  O  O76  1  0.347001  0.107666  0.709875  1
  O  O77  1  0.652999  0.607666  0.790125  1
  O  O78  1  0.652999  0.892334  0.290125  1
  O  O79  1  0.347001  0.392334  0.209875  1
