# generated using pymatgen
data_Cs5ScGa2Se7
_symmetry_space_group_name_H-M   'P 1'
_cell_length_a   11.51841859
_cell_length_b   11.51841828
_cell_length_c   9.76547002
_cell_angle_alpha   76.24733685
_cell_angle_beta   76.24733819
_cell_angle_gamma   71.81500054
_symmetry_Int_Tables_number   1
_chemical_formula_structural   Cs5ScGa2Se7
_chemical_formula_sum   'Cs10 Sc2 Ga4 Se14'
_cell_volume   1176.69865546
_cell_formula_units_Z   2
loop_
 _symmetry_equiv_pos_site_id
 _symmetry_equiv_pos_as_xyz
  1  'x, y, z'
loop_
 _atom_site_type_symbol
 _atom_site_label
 _atom_site_symmetry_multiplicity
 _atom_site_fract_x
 _atom_site_fract_y
 _atom_site_fract_z
 _atom_site_occupancy
  Cs  Cs0  1  0.025937  0.435229  0.717739  1
  Cs  Cs1  1  0.435229  0.025937  0.717739  1
  Cs  Cs2  1  0.974063  0.564771  0.282261  1
  Cs  Cs3  1  0.564771  0.974063  0.282261  1
  Cs  Cs4  1  0.289519  0.710481  0.000000  1
  Cs  Cs5  1  0.710481  0.289519  0.000000  1
  Cs  Cs6  1  0.844164  0.155836  0.500000  1
  Cs  Cs7  1  0.155836  0.844164  0.500000  1
  Cs  Cs8  1  0.427818  0.427818  0.690825  1
  Cs  Cs9  1  0.572182  0.572182  0.309175  1
  Sc  Sc10  1  0.213845  0.213845  0.180474  1
  Sc  Sc11  1  0.786155  0.786155  0.819526  1
  Ga  Ga12  1  0.071509  0.071509  0.058269  1
  Ga  Ga13  1  0.928491  0.928491  0.941731  1
  Ga  Ga14  1  0.346961  0.346961  0.335683  1
  Ga  Ga15  1  0.653039  0.653039  0.664317  1
  Se  Se16  1  0.995031  0.284071  0.111883  1
  Se  Se17  1  0.284071  0.995031  0.111883  1
  Se  Se18  1  0.004969  0.715929  0.888117  1
  Se  Se19  1  0.715929  0.004969  0.888117  1
  Se  Se20  1  0.206272  0.206272  0.444636  1
  Se  Se21  1  0.793728  0.793728  0.555364  1
  Se  Se22  1  0.062732  0.062732  0.812540  1
  Se  Se23  1  0.937268  0.937268  0.187460  1
  Se  Se24  1  0.356116  0.356116  0.071491  1
  Se  Se25  1  0.643884  0.643884  0.928509  1
  Se  Se26  1  0.251070  0.549793  0.396259  1
  Se  Se27  1  0.549793  0.251070  0.396259  1
  Se  Se28  1  0.748930  0.450207  0.603741  1
  Se  Se29  1  0.450207  0.748930  0.603741  1
