# generated using pymatgen
data_Li2Cu(TeO4)2
_symmetry_space_group_name_H-M   'P 1'
_cell_length_a   5.21711294
_cell_length_b   5.40148899
_cell_length_c   5.86750401
_cell_angle_alpha   104.30743748
_cell_angle_beta   85.19750977
_cell_angle_gamma   111.36390777
_symmetry_Int_Tables_number   1
_chemical_formula_structural   Li2Cu(TeO4)2
_chemical_formula_sum   'Li2 Cu1 Te2 O8'
_cell_volume   149.20583789
_cell_formula_units_Z   1
loop_
 _symmetry_equiv_pos_site_id
 _symmetry_equiv_pos_as_xyz
  1  'x, y, z'
loop_
 _atom_site_type_symbol
 _atom_site_label
 _atom_site_symmetry_multiplicity
 _atom_site_fract_x
 _atom_site_fract_y
 _atom_site_fract_z
 _atom_site_occupancy
  Li  Li0  1  0.064510  0.615163  0.791193  1
  Li  Li1  1  0.935490  0.384837  0.208807  1
  Cu  Cu2  1  0.500000  0.500000  0.000000  1
  Te  Te3  1  0.733935  0.990947  0.650395  1
  Te  Te4  1  0.266065  0.009053  0.349605  1
  O  O5  1  0.272218  0.723209  0.084971  1
  O  O6  1  0.864935  0.779830  0.357789  1
  O  O7  1  0.727782  0.276791  0.915029  1
  O  O8  1  0.337801  0.799487  0.571765  1
  O  O9  1  0.240856  0.253667  0.180880  1
  O  O10  1  0.135065  0.220170  0.642211  1
  O  O11  1  0.759144  0.746333  0.819120  1
  O  O12  1  0.662199  0.200513  0.428235  1
