# generated using pymatgen
data_Zr3Zn5Ir
_symmetry_space_group_name_H-M   'P 1'
_cell_length_a   7.26559800
_cell_length_b   7.26559625
_cell_length_c   3.45615000
_cell_angle_alpha   90.00000000
_cell_angle_beta   90.00000000
_cell_angle_gamma   119.99999097
_symmetry_Int_Tables_number   1
_chemical_formula_structural   Zr3Zn5Ir
_chemical_formula_sum   'Zr3 Zn5 Ir1'
_cell_volume   158.00319891
_cell_formula_units_Z   1
loop_
 _symmetry_equiv_pos_site_id
 _symmetry_equiv_pos_as_xyz
  1  'x, y, z'
loop_
 _atom_site_type_symbol
 _atom_site_label
 _atom_site_symmetry_multiplicity
 _atom_site_fract_x
 _atom_site_fract_y
 _atom_site_fract_z
 _atom_site_occupancy
  Zr  Zr0  1  0.406443  0.389499  0.000000  1
  Zr  Zr1  1  0.610501  0.016944  0.000000  1
  Zr  Zr2  1  0.983056  0.593557  0.000000  1
  Zn  Zn3  1  0.726575  0.737580  0.500000  1
  Zn  Zn4  1  0.262420  0.988994  0.500000  1
  Zn  Zn5  1  0.011006  0.273425  0.500000  1
  Zn  Zn6  1  0.000000  0.000000  0.000000  1
  Zn  Zn7  1  0.333333  0.666667  0.500000  1
  Ir  Ir8  1  0.666667  0.333333  0.500000  1
