# generated using pymatgen
data_Tb9Ce7(ErIr3)4
_symmetry_space_group_name_H-M   'P 1'
_cell_length_a   11.01938983
_cell_length_b   11.02070355
_cell_length_c   6.32826889
_cell_angle_alpha   89.68358911
_cell_angle_beta   89.95519525
_cell_angle_gamma   90.00438964
_symmetry_Int_Tables_number   1
_chemical_formula_structural   Tb9Ce7(ErIr3)4
_chemical_formula_sum   'Tb9 Ce7 Er4 Ir12'
_cell_volume   768.50205878
_cell_formula_units_Z   1
loop_
 _symmetry_equiv_pos_site_id
 _symmetry_equiv_pos_as_xyz
  1  'x, y, z'
loop_
 _atom_site_type_symbol
 _atom_site_label
 _atom_site_symmetry_multiplicity
 _atom_site_fract_x
 _atom_site_fract_y
 _atom_site_fract_z
 _atom_site_occupancy
  Tb  Tb0  1  0.409469  0.212627  0.879183  1
  Tb  Tb1  1  0.207746  0.413068  0.620208  1
  Tb  Tb2  1  0.208195  0.586150  0.119206  1
  Tb  Tb3  1  0.791583  0.414039  0.116905  1
  Tb  Tb4  1  0.792673  0.585674  0.617129  1
  Tb  Tb5  1  0.914552  0.708547  0.117508  1
  Tb  Tb6  1  0.913525  0.291158  0.616606  1
  Tb  Tb7  1  0.086420  0.708416  0.618187  1
  Tb  Tb8  1  0.086930  0.291646  0.117454  1
  Ce  Ce9  1  0.289344  0.093764  0.382372  1
  Ce  Ce10  1  0.290029  0.911625  0.881959  1
  Ce  Ce11  1  0.708029  0.091976  0.881546  1
  Ce  Ce12  1  0.711586  0.908543  0.381868  1
  Ce  Ce13  1  0.592280  0.786544  0.883241  1
  Ce  Ce14  1  0.589990  0.211867  0.382775  1
  Ce  Ce15  1  0.408584  0.787685  0.382394  1
  Er  Er16  1  0.999149  0.999771  0.501212  1
  Er  Er17  1  0.999018  0.001041  0.001754  1
  Er  Er18  1  0.499055  0.497575  0.005175  1
  Er  Er19  1  0.500350  0.500208  0.506259  1
  Ir  Ir20  1  0.841370  0.149840  0.246374  1
  Ir  Ir21  1  0.843096  0.849311  0.747868  1
  Ir  Ir22  1  0.154433  0.150730  0.745138  1
  Ir  Ir23  1  0.157788  0.850995  0.247377  1
  Ir  Ir24  1  0.651128  0.343437  0.746936  1
  Ir  Ir25  1  0.650711  0.656157  0.247015  1
  Ir  Ir26  1  0.350419  0.344480  0.256864  1
  Ir  Ir27  1  0.350685  0.657763  0.750857  1
  Ir  Ir28  1  0.500194  0.998566  0.122387  1
  Ir  Ir29  1  0.500779  0.997178  0.620007  1
  Ir  Ir30  1  0.000752  0.499854  0.878800  1
  Ir  Ir31  1  0.000141  0.499768  0.377436  1
