# generated using pymatgen
data_Li4Ni9As7W
_symmetry_space_group_name_H-M   'P 1'
_cell_length_a   9.43177239
_cell_length_b   9.50192200
_cell_length_c   3.73296900
_cell_angle_alpha   90.00000000
_cell_angle_beta   90.00000000
_cell_angle_gamma   120.19391703
_symmetry_Int_Tables_number   1
_chemical_formula_structural   Li4Ni9As7W
_chemical_formula_sum   'Li4 Ni9 As7 W1'
_cell_volume   289.15974929
_cell_formula_units_Z   1
loop_
 _symmetry_equiv_pos_site_id
 _symmetry_equiv_pos_as_xyz
  1  'x, y, z'
loop_
 _atom_site_type_symbol
 _atom_site_label
 _atom_site_symmetry_multiplicity
 _atom_site_fract_x
 _atom_site_fract_y
 _atom_site_fract_z
 _atom_site_occupancy
  Li  Li0  1  0.443909  0.212217  0.500000  1
  Li  Li1  1  0.787596  0.233537  0.500000  1
  Li  Li2  1  0.332920  0.667783  0.000000  1
  Li  Li3  1  0.999058  0.001710  0.500000  1
  Ni  Ni4  1  0.278713  0.375277  0.500000  1
  Ni  Ni5  1  0.625115  0.901990  0.500000  1
  Ni  Ni6  1  0.100120  0.718325  0.500000  1
  Ni  Ni7  1  0.500165  0.451385  0.000000  1
  Ni  Ni8  1  0.547435  0.046555  0.000000  1
  Ni  Ni9  1  0.955337  0.500630  0.000000  1
  Ni  Ni10  1  0.719780  0.763157  0.000000  1
  Ni  Ni11  1  0.237655  0.957364  0.000000  1
  Ni  Ni12  1  0.045094  0.283829  0.000000  1
  As  As13  1  0.963159  0.758287  0.000000  1
  As  As14  1  0.240688  0.205245  0.000000  1
  As  As15  1  0.794576  0.037766  0.000000  1
  As  As16  1  0.668558  0.333439  0.000000  1
  As  As17  1  0.534839  0.623582  0.500000  1
  As  As18  1  0.376397  0.912558  0.500000  1
  As  As19  1  0.088445  0.463961  0.500000  1
  W  W20  1  0.760443  0.551403  0.500000  1
