# generated using pymatgen
data_Ti7Nb4B12Os12W
_symmetry_space_group_name_H-M   'P 1'
_cell_length_a   3.08018800
_cell_length_b   8.98405986
_cell_length_c   15.52477290
_cell_angle_alpha   89.94370036
_cell_angle_beta   90.00000000
_cell_angle_gamma   90.00000000
_symmetry_Int_Tables_number   1
_chemical_formula_structural   Ti7Nb4B12Os12W
_chemical_formula_sum   'Ti7 Nb4 B12 Os12 W1'
_cell_volume   429.61051999
_cell_formula_units_Z   1
loop_
 _symmetry_equiv_pos_site_id
 _symmetry_equiv_pos_as_xyz
  1  'x, y, z'
loop_
 _atom_site_type_symbol
 _atom_site_label
 _atom_site_symmetry_multiplicity
 _atom_site_fract_x
 _atom_site_fract_y
 _atom_site_fract_z
 _atom_site_occupancy
  Ti  Ti0  1  0.000000  0.799888  0.495987  1
  Ti  Ti1  1  0.000000  0.200125  0.505458  1
  Ti  Ti2  1  0.000000  0.300536  0.004993  1
  Ti  Ti3  1  0.000000  0.697872  0.993817  1
  Ti  Ti4  1  0.000000  0.515511  0.594353  1
  Ti  Ti5  1  0.000000  0.484205  0.406560  1
  Ti  Ti6  1  0.000000  0.015341  0.904914  1
  Nb  Nb7  1  0.000000  0.685889  0.205683  1
  Nb  Nb8  1  0.000000  0.315637  0.794699  1
  Nb  Nb9  1  0.000000  0.186463  0.298099  1
  Nb  Nb10  1  0.000000  0.815742  0.703650  1
  B  B11  1  0.500000  0.603548  0.495815  1
  B  B12  1  0.500000  0.396497  0.504564  1
  B  B13  1  0.500000  0.104280  0.003215  1
  B  B14  1  0.500000  0.894106  0.993845  1
  B  B15  1  0.000000  0.610240  0.833969  1
  B  B16  1  0.000000  0.393689  0.166454  1
  B  B17  1  0.000000  0.110866  0.665014  1
  B  B18  1  0.000000  0.888908  0.338003  1
  B  B19  1  0.500000  0.711818  0.598099  1
  B  B20  1  0.500000  0.288377  0.402988  1
  B  B21  1  0.500000  0.212422  0.901533  1
  B  B22  1  0.500000  0.784154  0.096843  1
  Os  Os23  1  0.500000  0.716601  0.359660  1
  Os  Os24  1  0.500000  0.284086  0.640134  1
  Os  Os25  1  0.500000  0.215942  0.141248  1
  Os  Os26  1  0.500000  0.784337  0.859164  1
  Os  Os27  1  0.500000  0.518742  0.093001  1
  Os  Os28  1  0.500000  0.480516  0.907006  1
  Os  Os29  1  0.500000  0.019735  0.407794  1
  Os  Os30  1  0.500000  0.980400  0.592756  1
  Os  Os31  1  0.500000  0.566515  0.731543  1
  Os  Os32  1  0.500000  0.434593  0.268287  1
  Os  Os33  1  0.500000  0.066285  0.768051  1
  Os  Os34  1  0.500000  0.936247  0.232757  1
  W  W35  1  0.000000  0.979884  0.090043  1
