# generated using pymatgen
data_TbY5Al24Os7Pd
_symmetry_space_group_name_H-M   'P 1'
_cell_length_a   8.84553121
_cell_length_b   8.84184318
_cell_length_c   9.57089788
_cell_angle_alpha   89.69326171
_cell_angle_beta   90.30663831
_cell_angle_gamma   119.84818673
_symmetry_Int_Tables_number   1
_chemical_formula_structural   TbY5Al24Os7Pd
_chemical_formula_sum   'Tb1 Y5 Al24 Os7 Pd1'
_cell_volume   649.23821294
_cell_formula_units_Z   1
loop_
 _symmetry_equiv_pos_site_id
 _symmetry_equiv_pos_as_xyz
  1  'x, y, z'
loop_
 _atom_site_type_symbol
 _atom_site_label
 _atom_site_symmetry_multiplicity
 _atom_site_fract_x
 _atom_site_fract_y
 _atom_site_fract_z
 _atom_site_occupancy
  Tb  Tb0  1  0.189187  0.385073  0.251537  1
  Y  Y1  1  0.810810  0.615065  0.748471  1
  Y  Y2  1  0.614787  0.810731  0.251486  1
  Y  Y3  1  0.385025  0.189213  0.748495  1
  Y  Y4  1  0.193955  0.805998  0.252432  1
  Y  Y5  1  0.806121  0.193887  0.747532  1
  Al  Al6  1  0.330991  0.669122  0.017932  1
  Al  Al7  1  0.668995  0.330943  0.982103  1
  Al  Al8  1  0.666385  0.333625  0.515593  1
  Al  Al9  1  0.333731  0.666502  0.484411  1
  Al  Al10  1  0.163439  0.325865  0.576444  1
  Al  Al11  1  0.836546  0.674055  0.423713  1
  Al  Al12  1  0.674129  0.836639  0.576357  1
  Al  Al13  1  0.843379  0.676291  0.078428  1
  Al  Al14  1  0.325882  0.163297  0.423620  1
  Al  Al15  1  0.156671  0.323687  0.921474  1
  Al  Al16  1  0.163316  0.836806  0.575061  1
  Al  Al17  1  0.323678  0.156589  0.078509  1
  Al  Al18  1  0.836640  0.163155  0.424920  1
  Al  Al19  1  0.676318  0.843385  0.921513  1
  Al  Al20  1  0.836584  0.163254  0.074915  1
  Al  Al21  1  0.163361  0.836727  0.925109  1
  Al  Al22  1  0.560479  0.121440  0.249330  1
  Al  Al23  1  0.439494  0.878538  0.750665  1
  Al  Al24  1  0.878269  0.439473  0.249300  1
  Al  Al25  1  0.121433  0.560499  0.750647  1
  Al  Al26  1  0.561505  0.438587  0.252201  1
  Al  Al27  1  0.438724  0.561332  0.747838  1
  Al  Al28  1  0.999604  0.000556  0.250270  1
  Al  Al29  1  0.000473  0.999592  0.749755  1
  Os  Os30  1  0.500093  0.000077  0.999932  1
  Os  Os31  1  0.999874  0.500031  0.999883  1
  Os  Os32  1  0.500076  0.000134  0.500069  1
  Os  Os33  1  0.000013  0.499962  0.499980  1
  Os  Os34  1  0.500108  0.499997  0.500063  1
  Os  Os35  1  0.999951  0.999945  0.999887  1
  Os  Os36  1  0.999970  0.999916  0.500142  1
  Pd  Pd37  1  0.500003  0.500010  0.999982  1
