# generated using pymatgen
data_SmEr2Ni2Rh7
_symmetry_space_group_name_H-M   'P 1'
_cell_length_a   5.29221097
_cell_length_b   5.29221017
_cell_length_c   8.96839800
_cell_angle_alpha   72.83959595
_cell_angle_beta   72.83959863
_cell_angle_gamma   60.00000846
_symmetry_Int_Tables_number   1
_chemical_formula_structural   SmEr2Ni2Rh7
_chemical_formula_sum   'Sm1 Er2 Ni2 Rh7'
_cell_volume   204.51656081
_cell_formula_units_Z   1
loop_
 _symmetry_equiv_pos_site_id
 _symmetry_equiv_pos_as_xyz
  1  'x, y, z'
loop_
 _atom_site_type_symbol
 _atom_site_label
 _atom_site_symmetry_multiplicity
 _atom_site_fract_x
 _atom_site_fract_y
 _atom_site_fract_z
 _atom_site_occupancy
  Sm  Sm0  1  0.000000  0.000000  0.000000  1
  Er  Er1  1  0.139919  0.139919  0.580243  1
  Er  Er2  1  0.860081  0.860081  0.419757  1
  Ni  Ni3  1  0.333320  0.333320  0.000039  1
  Ni  Ni4  1  0.666680  0.666680  0.999961  1
  Rh  Rh5  1  0.078268  0.581631  0.758472  1
  Rh  Rh6  1  0.581631  0.581631  0.758472  1
  Rh  Rh7  1  0.581631  0.078268  0.758472  1
  Rh  Rh8  1  0.921732  0.418369  0.241528  1
  Rh  Rh9  1  0.418369  0.418369  0.241528  1
  Rh  Rh10  1  0.418369  0.921732  0.241528  1
  Rh  Rh11  1  0.500000  0.500000  0.500000  1
