# generated using pymatgen
data_Ce(ErCo)2
_symmetry_space_group_name_H-M   'P 1'
_cell_length_a   3.66564746
_cell_length_b   6.01326698
_cell_length_c   5.90416833
_cell_angle_alpha   120.61316550
_cell_angle_beta   108.08507478
_cell_angle_gamma   89.99999104
_symmetry_Int_Tables_number   1
_chemical_formula_structural   Ce(ErCo)2
_chemical_formula_sum   'Ce1 Er2 Co2'
_cell_volume   104.46412303
_cell_formula_units_Z   1
loop_
 _symmetry_equiv_pos_site_id
 _symmetry_equiv_pos_as_xyz
  1  'x, y, z'
loop_
 _atom_site_type_symbol
 _atom_site_label
 _atom_site_symmetry_multiplicity
 _atom_site_fract_x
 _atom_site_fract_y
 _atom_site_fract_z
 _atom_site_occupancy
  Ce  Ce0  1  0.000000  0.000000  0.000000  1
  Er  Er1  1  0.810427  0.310427  0.620853  1
  Er  Er2  1  0.189573  0.689573  0.379147  1
  Co  Co3  1  0.500000  0.293799  0.000000  1
  Co  Co4  1  0.500000  0.706201  0.000000  1
