# generated using pymatgen
data_Ce4PdPt2RhPb2
_symmetry_space_group_name_H-M   'P 1'
_cell_length_a   7.93992185
_cell_length_b   7.93992121
_cell_length_c   3.73106900
_cell_angle_alpha   90.00000000
_cell_angle_beta   90.00000000
_cell_angle_gamma   90.25260324
_symmetry_Int_Tables_number   1
_chemical_formula_structural   Ce4PdPt2RhPb2
_chemical_formula_sum   'Ce4 Pd1 Pt2 Rh1 Pb2'
_cell_volume   235.21308630
_cell_formula_units_Z   1
loop_
 _symmetry_equiv_pos_site_id
 _symmetry_equiv_pos_as_xyz
  1  'x, y, z'
loop_
 _atom_site_type_symbol
 _atom_site_label
 _atom_site_symmetry_multiplicity
 _atom_site_fract_x
 _atom_site_fract_y
 _atom_site_fract_z
 _atom_site_occupancy
  Ce  Ce0  1  0.668200  0.168200  0.500000  1
  Ce  Ce1  1  0.176534  0.333463  0.500000  1
  Ce  Ce2  1  0.833463  0.676534  0.500000  1
  Ce  Ce3  1  0.320601  0.820601  0.500000  1
  Pd  Pd4  1  0.871377  0.371377  0.000000  1
  Pt  Pt5  1  0.370824  0.126248  0.000000  1
  Pt  Pt6  1  0.626248  0.870824  0.000000  1
  Rh  Rh7  1  0.130680  0.630680  0.000000  1
  Pb  Pb8  1  0.000458  0.001616  0.000000  1
  Pb  Pb9  1  0.501616  0.500458  0.000000  1
