# generated using pymatgen
data_Lu4Ni3Pt
_symmetry_space_group_name_H-M   'P 1'
_cell_length_a   4.19126500
_cell_length_b   5.39134685
_cell_length_c   6.87221966
_cell_angle_alpha   90.13520241
_cell_angle_beta   90.00000000
_cell_angle_gamma   90.00000000
_symmetry_Int_Tables_number   1
_chemical_formula_structural   Lu4Ni3Pt
_chemical_formula_sum   'Lu4 Ni3 Pt1'
_cell_volume   155.28811461
_cell_formula_units_Z   1
loop_
 _symmetry_equiv_pos_site_id
 _symmetry_equiv_pos_as_xyz
  1  'x, y, z'
loop_
 _atom_site_type_symbol
 _atom_site_label
 _atom_site_symmetry_multiplicity
 _atom_site_fract_x
 _atom_site_fract_y
 _atom_site_fract_z
 _atom_site_occupancy
  Lu  Lu0  1  0.250000  0.636278  0.177165  1
  Lu  Lu1  1  0.750000  0.364206  0.825758  1
  Lu  Lu2  1  0.750000  0.131283  0.316975  1
  Lu  Lu3  1  0.250000  0.865861  0.682519  1
  Ni  Ni4  1  0.250000  0.124383  0.035244  1
  Ni  Ni5  1  0.750000  0.869628  0.965063  1
  Ni  Ni6  1  0.750000  0.647350  0.455847  1
  Pt  Pt7  1  0.250000  0.361011  0.541430  1
