# generated using pymatgen
data_Tb2Dy2TcB12Os
_symmetry_space_group_name_H-M   'P 1'
_cell_length_a   3.68001100
_cell_length_b   9.17346821
_cell_length_c   11.57006305
_cell_angle_alpha   89.91809978
_cell_angle_beta   90.00000000
_cell_angle_gamma   90.00000000
_symmetry_Int_Tables_number   1
_chemical_formula_structural   Tb2Dy2TcB12Os
_chemical_formula_sum   'Tb4 Dy4 Tc2 B24 Os2'
_cell_volume   390.58715679
_cell_formula_units_Z   2
loop_
 _symmetry_equiv_pos_site_id
 _symmetry_equiv_pos_as_xyz
  1  'x, y, z'
loop_
 _atom_site_type_symbol
 _atom_site_label
 _atom_site_symmetry_multiplicity
 _atom_site_fract_x
 _atom_site_fract_y
 _atom_site_fract_z
 _atom_site_occupancy
  Tb  Tb0  1  0.000000  0.324980  0.415167  1
  Tb  Tb1  1  0.000000  0.675020  0.584833  1
  Tb  Tb2  1  0.000000  0.821413  0.087366  1
  Tb  Tb3  1  0.000000  0.178587  0.912634  1
  Dy  Dy4  1  0.000000  0.941670  0.370946  1
  Dy  Dy5  1  0.000000  0.058330  0.629054  1
  Dy  Dy6  1  0.000000  0.443718  0.129949  1
  Dy  Dy7  1  0.000000  0.556282  0.870051  1
  Tc  Tc8  1  0.000000  0.638506  0.320327  1
  Tc  Tc9  1  0.000000  0.361494  0.679673  1
  B  B10  1  0.500000  0.553234  0.432702  1
  B  B11  1  0.500000  0.446766  0.567298  1
  B  B12  1  0.500000  0.053840  0.067356  1
  B  B13  1  0.500000  0.946160  0.932644  1
  B  B14  1  0.500000  0.747952  0.418630  1
  B  B15  1  0.500000  0.252048  0.581370  1
  B  B16  1  0.500000  0.248345  0.081553  1
  B  B17  1  0.500000  0.751655  0.918447  1
  B  B18  1  0.500000  0.790970  0.265839  1
  B  B19  1  0.500000  0.209030  0.734161  1
  B  B20  1  0.500000  0.290261  0.233890  1
  B  B21  1  0.500000  0.709739  0.766110  1
  B  B22  1  0.500000  0.631478  0.185718  1
  B  B23  1  0.500000  0.368522  0.814282  1
  B  B24  1  0.500000  0.130945  0.313581  1
  B  B25  1  0.500000  0.869055  0.686419  1
  B  B26  1  0.500000  0.983324  0.212148  1
  B  B27  1  0.500000  0.016676  0.787852  1
  B  B28  1  0.500000  0.483243  0.287526  1
  B  B29  1  0.500000  0.516757  0.712474  1
  B  B30  1  0.500000  0.604024  0.028667  1
  B  B31  1  0.500000  0.395976  0.971333  1
  B  B32  1  0.500000  0.103904  0.470934  1
  B  B33  1  0.500000  0.896095  0.529066  1
  Os  Os34  1  0.000000  0.137468  0.178210  1
  Os  Os35  1  0.000000  0.862532  0.821790  1
