# generated using pymatgen
data_Tm3LuZn4Ir3Pt
_symmetry_space_group_name_H-M   'P 1'
_cell_length_a   4.02380900
_cell_length_b   6.92320606
_cell_length_c   8.10070914
_cell_angle_alpha   89.99675827
_cell_angle_beta   90.00000000
_cell_angle_gamma   90.00000000
_symmetry_Int_Tables_number   1
_chemical_formula_structural   Tm3LuZn4Ir3Pt
_chemical_formula_sum   'Tm3 Lu1 Zn4 Ir3 Pt1'
_cell_volume   225.66679110
_cell_formula_units_Z   1
loop_
 _symmetry_equiv_pos_site_id
 _symmetry_equiv_pos_as_xyz
  1  'x, y, z'
loop_
 _atom_site_type_symbol
 _atom_site_label
 _atom_site_symmetry_multiplicity
 _atom_site_fract_x
 _atom_site_fract_y
 _atom_site_fract_z
 _atom_site_occupancy
  Tm  Tm0  1  0.250000  0.540623  0.180410  1
  Tm  Tm1  1  0.750000  0.464918  0.822901  1
  Tm  Tm2  1  0.250000  0.037045  0.315311  1
  Lu  Lu3  1  0.750000  0.953602  0.681960  1
  Zn  Zn4  1  0.250000  0.638714  0.564584  1
  Zn  Zn5  1  0.750000  0.366195  0.432993  1
  Zn  Zn6  1  0.750000  0.863957  0.064189  1
  Zn  Zn7  1  0.250000  0.134864  0.937946  1
  Ir  Ir8  1  0.250000  0.754016  0.875275  1
  Ir  Ir9  1  0.750000  0.247619  0.123247  1
  Ir  Ir10  1  0.750000  0.747753  0.378002  1
  Pt  Pt11  1  0.250000  0.250694  0.623183  1
