# generated using pymatgen
data_YThRh2Pb
_symmetry_space_group_name_H-M   'P 1'
_cell_length_a   7.90636300
_cell_length_b   7.82592400
_cell_length_c   3.69848100
_cell_angle_alpha   90.00000000
_cell_angle_beta   90.00000000
_cell_angle_gamma   90.00000000
_symmetry_Int_Tables_number   1
_chemical_formula_structural   YThRh2Pb
_chemical_formula_sum   'Y2 Th2 Rh4 Pb2'
_cell_volume   228.84201752
_cell_formula_units_Z   2
loop_
 _symmetry_equiv_pos_site_id
 _symmetry_equiv_pos_as_xyz
  1  'x, y, z'
loop_
 _atom_site_type_symbol
 _atom_site_label
 _atom_site_symmetry_multiplicity
 _atom_site_fract_x
 _atom_site_fract_y
 _atom_site_fract_z
 _atom_site_occupancy
  Y  Y0  1  0.830686  0.670270  0.500000  1
  Y  Y1  1  0.330686  0.829730  0.500000  1
  Th  Th2  1  0.671859  0.162555  0.500000  1
  Th  Th3  1  0.171859  0.337445  0.500000  1
  Rh  Rh4  1  0.864318  0.354974  0.000000  1
  Rh  Rh5  1  0.364318  0.145026  0.000000  1
  Rh  Rh6  1  0.627372  0.888597  0.000000  1
  Rh  Rh7  1  0.127372  0.611403  0.000000  1
  Pb  Pb8  1  0.005763  0.987638  0.000000  1
  Pb  Pb9  1  0.505763  0.512362  0.000000  1
