# generated using pymatgen
data_Tb7Y(ZnI6)2
_symmetry_space_group_name_H-M   'P 1'
_cell_length_a   4.19410900
_cell_length_b   14.21580806
_cell_length_c   14.94509606
_cell_angle_alpha   89.98952757
_cell_angle_beta   90.00000000
_cell_angle_gamma   90.00000000
_symmetry_Int_Tables_number   1
_chemical_formula_structural   Tb7Y(ZnI6)2
_chemical_formula_sum   'Tb7 Y1 Zn2 I12'
_cell_volume   891.06619480
_cell_formula_units_Z   1
loop_
 _symmetry_equiv_pos_site_id
 _symmetry_equiv_pos_as_xyz
  1  'x, y, z'
loop_
 _atom_site_type_symbol
 _atom_site_label
 _atom_site_symmetry_multiplicity
 _atom_site_fract_x
 _atom_site_fract_y
 _atom_site_fract_z
 _atom_site_occupancy
  Tb  Tb0  1  0.500000  0.885760  0.653066  1
  Tb  Tb1  1  0.500000  0.614233  0.153047  1
  Tb  Tb2  1  0.500000  0.385741  0.846910  1
  Tb  Tb3  1  0.000000  0.114637  0.577066  1
  Tb  Tb4  1  0.000000  0.885447  0.422798  1
  Tb  Tb5  1  0.000000  0.614579  0.922885  1
  Tb  Tb6  1  0.000000  0.385483  0.077099  1
  Y  Y7  1  0.500000  0.114300  0.346851  1
  Zn  Zn8  1  0.500000  0.000032  0.499955  1
  Zn  Zn9  1  0.500000  0.499995  0.000036  1
  I  I10  1  0.500000  0.245115  0.163097  1
  I  I11  1  0.500000  0.754752  0.837069  1
  I  I12  1  0.500000  0.745242  0.337089  1
  I  I13  1  0.500000  0.254742  0.662930  1
  I  I14  1  0.000000  0.259640  0.413611  1
  I  I15  1  0.000000  0.740063  0.586259  1
  I  I16  1  0.000000  0.759981  0.086272  1
  I  I17  1  0.000000  0.240021  0.913736  1
  I  I18  1  0.000000  0.998986  0.238873  1
  I  I19  1  0.000000  0.001248  0.761352  1
  I  I20  1  0.000000  0.498751  0.261392  1
  I  I21  1  0.000000  0.501251  0.738607  1
