# generated using pymatgen
data_YbDy3Y4(B6Ru)4
_symmetry_space_group_name_H-M   'P 1'
_cell_length_a   3.66865100
_cell_length_b   9.15676084
_cell_length_c   11.54293801
_cell_angle_alpha   89.91004786
_cell_angle_beta   90.00000000
_cell_angle_gamma   90.00000000
_symmetry_Int_Tables_number   1
_chemical_formula_structural   YbDy3Y4(B6Ru)4
_chemical_formula_sum   'Yb1 Dy3 Y4 B24 Ru4'
_cell_volume   387.76097468
_cell_formula_units_Z   1
loop_
 _symmetry_equiv_pos_site_id
 _symmetry_equiv_pos_as_xyz
  1  'x, y, z'
loop_
 _atom_site_type_symbol
 _atom_site_label
 _atom_site_symmetry_multiplicity
 _atom_site_fract_x
 _atom_site_fract_y
 _atom_site_fract_z
 _atom_site_occupancy
  Yb  Yb0  1  0.000000  0.324074  0.413673  1
  Dy  Dy1  1  0.000000  0.058157  0.628092  1
  Dy  Dy2  1  0.000000  0.442849  0.129892  1
  Dy  Dy3  1  0.000000  0.556169  0.871964  1
  Y  Y4  1  0.000000  0.675404  0.584868  1
  Y  Y5  1  0.000000  0.822872  0.086377  1
  Y  Y6  1  0.000000  0.177519  0.914566  1
  Y  Y7  1  0.000000  0.944142  0.371384  1
  B  B8  1  0.500000  0.553752  0.432435  1
  B  B9  1  0.500000  0.445592  0.567243  1
  B  B10  1  0.500000  0.053470  0.066879  1
  B  B11  1  0.500000  0.945808  0.932325  1
  B  B12  1  0.500000  0.747821  0.419216  1
  B  B13  1  0.500000  0.252602  0.580699  1
  B  B14  1  0.500000  0.247270  0.080759  1
  B  B15  1  0.500000  0.752080  0.919472  1
  B  B16  1  0.500000  0.791056  0.266266  1
  B  B17  1  0.500000  0.210060  0.733758  1
  B  B18  1  0.500000  0.289750  0.233664  1
  B  B19  1  0.500000  0.709478  0.766411  1
  B  B20  1  0.500000  0.632082  0.186222  1
  B  B21  1  0.500000  0.368222  0.814809  1
  B  B22  1  0.500000  0.131787  0.314030  1
  B  B23  1  0.500000  0.868406  0.685340  1
  B  B24  1  0.500000  0.983857  0.211863  1
  B  B25  1  0.500000  0.016155  0.787235  1
  B  B26  1  0.500000  0.484165  0.287973  1
  B  B27  1  0.500000  0.515852  0.712545  1
  B  B28  1  0.500000  0.608718  0.030371  1
  B  B29  1  0.500000  0.391351  0.970404  1
  B  B30  1  0.500000  0.105532  0.470707  1
  B  B31  1  0.500000  0.893737  0.529351  1
  Ru  Ru32  1  0.000000  0.639045  0.320739  1
  Ru  Ru33  1  0.000000  0.362063  0.679832  1
  Ru  Ru34  1  0.000000  0.136948  0.177613  1
  Ru  Ru35  1  0.000000  0.862156  0.821026  1
