# generated using pymatgen
data_UBr6
_symmetry_space_group_name_H-M   'P 1'
_cell_length_a   7.89029218
_cell_length_b   7.89029157
_cell_length_c   7.89029203
_cell_angle_alpha   55.84144697
_cell_angle_beta   55.84144723
_cell_angle_gamma   55.84144025
_symmetry_Int_Tables_number   1
_chemical_formula_structural   UBr6
_chemical_formula_sum   'U1 Br6'
_cell_volume   313.85975122
_cell_formula_units_Z   1
loop_
 _symmetry_equiv_pos_site_id
 _symmetry_equiv_pos_as_xyz
  1  'x, y, z'
loop_
 _atom_site_type_symbol
 _atom_site_label
 _atom_site_symmetry_multiplicity
 _atom_site_fract_x
 _atom_site_fract_y
 _atom_site_fract_z
 _atom_site_occupancy
  U  U0  1  0.000000  0.000000  0.000000  1
  Br  Br1  1  0.080943  0.365604  0.782617  1
  Br  Br2  1  0.634396  0.217383  0.919057  1
  Br  Br3  1  0.217383  0.919057  0.634396  1
  Br  Br4  1  0.919057  0.634396  0.217383  1
  Br  Br5  1  0.365604  0.782617  0.080943  1
  Br  Br6  1  0.782617  0.080943  0.365604  1
