# generated using pymatgen
data_Ti24SiAs3Se8
_symmetry_space_group_name_H-M   'P 1'
_cell_length_a   3.45295700
_cell_length_b   11.70088102
_cell_length_c   14.48644700
_cell_angle_alpha   89.99628830
_cell_angle_beta   90.00000000
_cell_angle_gamma   90.00000000
_symmetry_Int_Tables_number   1
_chemical_formula_structural   Ti24SiAs3Se8
_chemical_formula_sum   'Ti24 Si1 As3 Se8'
_cell_volume   585.29068788
_cell_formula_units_Z   1
loop_
 _symmetry_equiv_pos_site_id
 _symmetry_equiv_pos_as_xyz
  1  'x, y, z'
loop_
 _atom_site_type_symbol
 _atom_site_label
 _atom_site_symmetry_multiplicity
 _atom_site_fract_x
 _atom_site_fract_y
 _atom_site_fract_z
 _atom_site_occupancy
  Ti  Ti0  1  0.000000  0.352853  0.481261  1
  Ti  Ti1  1  0.000000  0.649139  0.516800  1
  Ti  Ti2  1  0.500000  0.146480  0.981024  1
  Ti  Ti3  1  0.500000  0.853855  0.018801  1
  Ti  Ti4  1  0.000000  0.080595  0.574792  1
  Ti  Ti5  1  0.000000  0.917827  0.426303  1
  Ti  Ti6  1  0.500000  0.419154  0.074819  1
  Ti  Ti7  1  0.500000  0.581264  0.925488  1
  Ti  Ti8  1  0.000000  0.691769  0.295816  1
  Ti  Ti9  1  0.000000  0.308954  0.705416  1
  Ti  Ti10  1  0.500000  0.808480  0.794281  1
  Ti  Ti11  1  0.500000  0.190956  0.205296  1
  Ti  Ti12  1  0.000000  0.030693  0.107521  1
  Ti  Ti13  1  0.000000  0.969552  0.892217  1
  Ti  Ti14  1  0.500000  0.469327  0.607026  1
  Ti  Ti15  1  0.500000  0.532265  0.393067  1
  Ti  Ti16  1  0.000000  0.614603  0.075265  1
  Ti  Ti17  1  0.000000  0.385477  0.924978  1
  Ti  Ti18  1  0.500000  0.884459  0.574640  1
  Ti  Ti19  1  0.500000  0.114129  0.425065  1
  Ti  Ti20  1  0.000000  0.406831  0.238020  1
  Ti  Ti21  1  0.000000  0.592697  0.761216  1
  Ti  Ti22  1  0.500000  0.092217  0.739095  1
  Ti  Ti23  1  0.500000  0.906502  0.262005  1
  Si  Si24  1  0.500000  0.759311  0.413093  1
  As  As25  1  0.000000  0.258338  0.086105  1
  As  As26  1  0.000000  0.741832  0.913726  1
  As  As27  1  0.500000  0.241386  0.586365  1
  Se  Se28  1  0.000000  0.814037  0.150086  1
  Se  Se29  1  0.000000  0.186317  0.850386  1
  Se  Se30  1  0.500000  0.685564  0.648986  1
  Se  Se31  1  0.500000  0.313982  0.350315  1
  Se  Se32  1  0.000000  0.066872  0.292368  1
  Se  Se33  1  0.000000  0.932083  0.707780  1
  Se  Se34  1  0.500000  0.432538  0.792076  1
  Se  Se35  1  0.500000  0.567659  0.208502  1
