# generated using pymatgen
data_Tb4PuTc3Ru4
_symmetry_space_group_name_H-M   'P 1'
_cell_length_a   5.21405495
_cell_length_b   5.21405433
_cell_length_c   9.23128900
_cell_angle_alpha   90.00000000
_cell_angle_beta   90.00000000
_cell_angle_gamma   115.09905160
_symmetry_Int_Tables_number   1
_chemical_formula_structural   Tb4PuTc3Ru4
_chemical_formula_sum   'Tb4 Pu1 Tc3 Ru4'
_cell_volume   227.26801666
_cell_formula_units_Z   1
loop_
 _symmetry_equiv_pos_site_id
 _symmetry_equiv_pos_as_xyz
  1  'x, y, z'
loop_
 _atom_site_type_symbol
 _atom_site_label
 _atom_site_symmetry_multiplicity
 _atom_site_fract_x
 _atom_site_fract_y
 _atom_site_fract_z
 _atom_site_occupancy
  Tb  Tb0  1  0.338692  0.661308  0.431926  1
  Tb  Tb1  1  0.670599  0.329401  0.557859  1
  Tb  Tb2  1  0.670599  0.329401  0.942141  1
  Tb  Tb3  1  0.338692  0.661308  0.068074  1
  Pu  Pu4  1  0.145272  0.854728  0.750000  1
  Tc  Tc5  1  0.838006  0.161994  0.250000  1
  Tc  Tc6  1  0.837399  0.652177  0.250000  1
  Tc  Tc7  1  0.347823  0.162601  0.250000  1
  Ru  Ru8  1  0.012711  0.987289  0.502209  1
  Ru  Ru9  1  0.012711  0.987289  0.997791  1
  Ru  Ru10  1  0.152842  0.365346  0.750000  1
  Ru  Ru11  1  0.634654  0.847158  0.750000  1
