# generated using pymatgen
data_Sr9Ac3(Si7Cl3)2
_symmetry_space_group_name_H-M   'P 1'
_cell_length_a   4.18962100
_cell_length_b   11.76532100
_cell_length_c   17.23285000
_cell_angle_alpha   90.00000000
_cell_angle_beta   90.00000000
_cell_angle_gamma   90.00000000
_symmetry_Int_Tables_number   1
_chemical_formula_structural   Sr9Ac3(Si7Cl3)2
_chemical_formula_sum   'Sr9 Ac3 Si14 Cl6'
_cell_volume   849.44570800
_cell_formula_units_Z   1
loop_
 _symmetry_equiv_pos_site_id
 _symmetry_equiv_pos_as_xyz
  1  'x, y, z'
loop_
 _atom_site_type_symbol
 _atom_site_label
 _atom_site_symmetry_multiplicity
 _atom_site_fract_x
 _atom_site_fract_y
 _atom_site_fract_z
 _atom_site_occupancy
  Sr  Sr0  1  0.500000  0.321028  0.500000  1
  Sr  Sr1  1  0.500000  0.340768  0.753037  1
  Sr  Sr2  1  0.000000  0.659995  0.748458  1
  Sr  Sr3  1  0.500000  0.340768  0.246963  1
  Sr  Sr4  1  0.000000  0.659995  0.251542  1
  Sr  Sr5  1  0.500000  0.046570  0.873916  1
  Sr  Sr6  1  0.000000  0.957109  0.625129  1
  Sr  Sr7  1  0.500000  0.046570  0.126084  1
  Sr  Sr8  1  0.000000  0.957109  0.374871  1
  Ac  Ac9  1  0.000000  0.669689  0.000000  1
  Ac  Ac10  1  0.500000  0.358207  0.000000  1
  Ac  Ac11  1  0.000000  0.635217  0.500000  1
  Si  Si12  1  0.000000  0.155578  0.000000  1
  Si  Si13  1  0.500000  0.842571  0.500000  1
  Si  Si14  1  0.500000  0.566354  0.874006  1
  Si  Si15  1  0.000000  0.436791  0.628387  1
  Si  Si16  1  0.500000  0.566354  0.125994  1
  Si  Si17  1  0.000000  0.436791  0.371613  1
  Si  Si18  1  0.000000  0.253910  0.878553  1
  Si  Si19  1  0.500000  0.747355  0.620955  1
  Si  Si20  1  0.000000  0.253910  0.121447  1
  Si  Si21  1  0.500000  0.747355  0.379045  1
  Si  Si22  1  0.000000  0.457820  0.875282  1
  Si  Si23  1  0.500000  0.542584  0.626671  1
  Si  Si24  1  0.500000  0.542584  0.373329  1
  Si  Si25  1  0.000000  0.457820  0.124718  1
  Cl  Cl26  1  0.500000  0.102651  0.693272  1
  Cl  Cl27  1  0.000000  0.896937  0.809073  1
  Cl  Cl28  1  0.000000  0.138850  0.500000  1
  Cl  Cl29  1  0.500000  0.861170  0.000000  1
  Cl  Cl30  1  0.500000  0.102651  0.306728  1
  Cl  Cl31  1  0.000000  0.896937  0.190927  1
