# generated using pymatgen
data_Nd3Al4(SiNi)3
_symmetry_space_group_name_H-M   'P 1'
_cell_length_a   13.67420211
_cell_length_b   13.67420143
_cell_length_c   4.17698300
_cell_angle_alpha   90.00000000
_cell_angle_beta   90.00000000
_cell_angle_gamma   162.53718602
_symmetry_Int_Tables_number   1
_chemical_formula_structural   Nd3Al4(SiNi)3
_chemical_formula_sum   'Nd3 Al4 Si3 Ni3'
_cell_volume   234.37619767
_cell_formula_units_Z   1
loop_
 _symmetry_equiv_pos_site_id
 _symmetry_equiv_pos_as_xyz
  1  'x, y, z'
loop_
 _atom_site_type_symbol
 _atom_site_label
 _atom_site_symmetry_multiplicity
 _atom_site_fract_x
 _atom_site_fract_y
 _atom_site_fract_z
 _atom_site_occupancy
  Nd  Nd0  1  0.003539  0.996461  0.000000  1
  Nd  Nd1  1  0.691029  0.308971  0.500000  1
  Nd  Nd2  1  0.313803  0.686197  0.500000  1
  Al  Al3  1  0.595720  0.404280  0.000000  1
  Al  Al4  1  0.406162  0.593838  0.000000  1
  Al  Al5  1  0.907950  0.092050  0.500000  1
  Al  Al6  1  0.096000  0.904000  0.500000  1
  Si  Si7  1  0.775249  0.224751  0.000000  1
  Si  Si8  1  0.226445  0.773555  0.000000  1
  Si  Si9  1  0.533253  0.466747  0.500000  1
  Ni  Ni10  1  0.858721  0.141279  0.000000  1
  Ni  Ni11  1  0.140434  0.859566  0.000000  1
  Ni  Ni12  1  0.451696  0.548304  0.500000  1
