# generated using pymatgen
data_Lu4Ga3Si3Ir7
_symmetry_space_group_name_H-M   'P 1'
_cell_length_a   7.15227153
_cell_length_b   7.15227018
_cell_length_c   7.20169400
_cell_angle_alpha   109.61126541
_cell_angle_beta   109.61126155
_cell_angle_gamma   109.33081720
_symmetry_Int_Tables_number   1
_chemical_formula_structural   Lu4Ga3Si3Ir7
_chemical_formula_sum   'Lu4 Ga3 Si3 Ir7'
_cell_volume   283.10474676
_cell_formula_units_Z   1
loop_
 _symmetry_equiv_pos_site_id
 _symmetry_equiv_pos_as_xyz
  1  'x, y, z'
loop_
 _atom_site_type_symbol
 _atom_site_label
 _atom_site_symmetry_multiplicity
 _atom_site_fract_x
 _atom_site_fract_y
 _atom_site_fract_z
 _atom_site_occupancy
  Lu  Lu0  1  0.000000  0.000000  0.533393  1
  Lu  Lu1  1  0.000000  0.486637  0.001615  1
  Lu  Lu2  1  0.486637  0.000000  0.001615  1
  Lu  Lu3  1  0.513363  0.513363  0.514978  1
  Ga  Ga4  1  0.705193  0.705193  0.011725  1
  Ga  Ga5  1  0.294807  0.000000  0.306532  1
  Ga  Ga6  1  0.000000  0.294807  0.306532  1
  Si  Si7  1  0.333497  0.333497  0.005634  1
  Si  Si8  1  0.666503  0.000000  0.672138  1
  Si  Si9  1  0.000000  0.666503  0.672138  1
  Ir  Ir10  1  0.747895  0.249038  0.502197  1
  Ir  Ir11  1  0.750962  0.498856  0.253159  1
  Ir  Ir12  1  0.501144  0.252105  0.754302  1
  Ir  Ir13  1  0.252105  0.501144  0.754302  1
  Ir  Ir14  1  0.249038  0.747895  0.502197  1
  Ir  Ir15  1  0.498856  0.750962  0.253159  1
  Ir  Ir16  1  0.000000  0.000000  0.954382  1
