# generated using pymatgen
data_La2Nd2HoTa2TlO14
_symmetry_space_group_name_H-M   'P 1'
_cell_length_a   6.51571401
_cell_length_b   6.75352205
_cell_length_c   7.81915500
_cell_angle_alpha   90.00000000
_cell_angle_beta   90.00000000
_cell_angle_gamma   110.58133363
_symmetry_Int_Tables_number   1
_chemical_formula_structural   La2Nd2HoTa2TlO14
_chemical_formula_sum   'La2 Nd2 Ho1 Ta2 Tl1 O14'
_cell_volume   322.11339584
_cell_formula_units_Z   1
loop_
 _symmetry_equiv_pos_site_id
 _symmetry_equiv_pos_as_xyz
  1  'x, y, z'
loop_
 _atom_site_type_symbol
 _atom_site_label
 _atom_site_symmetry_multiplicity
 _atom_site_fract_x
 _atom_site_fract_y
 _atom_site_fract_z
 _atom_site_occupancy
  La  La0  1  0.493330  0.499221  0.493384  1
  La  La1  1  0.493330  0.499221  0.006616  1
  Nd  Nd2  1  0.554167  0.008180  0.750000  1
  Nd  Nd3  1  0.468802  0.999829  0.250000  1
  Ho  Ho4  1  0.995682  0.529022  0.250000  1
  Ta  Ta5  1  0.005153  0.005072  0.497239  1
  Ta  Ta6  1  0.005153  0.005072  0.002761  1
  Tl  Tl7  1  0.002357  0.529769  0.750000  1
  O  O8  1  0.949648  0.022994  0.750000  1
  O  O9  1  0.068440  0.942185  0.250000  1
  O  O10  1  0.354690  0.633813  0.250000  1
  O  O11  1  0.657776  0.373808  0.750000  1
  O  O12  1  0.348774  0.626721  0.750000  1
  O  O13  1  0.629679  0.371995  0.250000  1
  O  O14  1  0.324987  0.080715  0.966847  1
  O  O15  1  0.676288  0.916947  0.475351  1
  O  O16  1  0.324987  0.080715  0.533153  1
  O  O17  1  0.676288  0.916947  0.024649  1
  O  O18  1  0.051415  0.298350  0.449837  1
  O  O19  1  0.933818  0.680537  0.993233  1
  O  O20  1  0.933818  0.680537  0.506767  1
  O  O21  1  0.051415  0.298350  0.050163  1
