# generated using pymatgen
data_Tb2Ta3As3P4Rh9
_symmetry_space_group_name_H-M   'P 1'
_cell_length_a   3.96535700
_cell_length_b   9.77915869
_cell_length_c   9.79080865
_cell_angle_alpha   120.00015711
_cell_angle_beta   89.99986224
_cell_angle_gamma   90.00008272
_symmetry_Int_Tables_number   1
_chemical_formula_structural   Tb2Ta3As3P4Rh9
_chemical_formula_sum   'Tb2 Ta3 As3 P4 Rh9'
_cell_volume   328.80036707
_cell_formula_units_Z   1
loop_
 _symmetry_equiv_pos_site_id
 _symmetry_equiv_pos_as_xyz
  1  'x, y, z'
loop_
 _atom_site_type_symbol
 _atom_site_label
 _atom_site_symmetry_multiplicity
 _atom_site_fract_x
 _atom_site_fract_y
 _atom_site_fract_z
 _atom_site_occupancy
  Tb  Tb0  1  0.261930  0.667240  0.332418  1
  Tb  Tb1  1  0.761925  0.333417  0.667582  1
  Ta  Ta2  1  0.761930  0.093636  0.875141  1
  Ta  Ta3  1  0.761909  0.122678  0.217651  1
  Ta  Ta4  1  0.761922  0.782243  0.905749  1
  As  As5  1  0.761910  0.875752  0.585848  1
  As  As6  1  0.761924  0.414993  0.290328  1
  As  As7  1  0.761908  0.709565  0.123007  1
  P  P8  1  0.261849  0.999601  0.999984  1
  P  P9  1  0.261906  0.117675  0.418330  1
  P  P10  1  0.261886  0.582026  0.699770  1
  P  P11  1  0.261897  0.300676  0.882528  1
  Rh  Rh12  1  0.261913  0.892273  0.162275  1
  Rh  Rh13  1  0.261939  0.838698  0.730682  1
  Rh  Rh14  1  0.261940  0.269002  0.107909  1
  Rh  Rh15  1  0.761908  0.610128  0.572837  1
  Rh  Rh16  1  0.761885  0.427499  0.038236  1
  Rh  Rh17  1  0.761896  0.961329  0.389469  1
  Rh  Rh18  1  0.261874  0.363287  0.439421  1
  Rh  Rh19  1  0.261858  0.561513  0.923904  1
  Rh  Rh20  1  0.261892  0.076768  0.636932  1
