# generated using pymatgen
data_Sc2GeRh5
_symmetry_space_group_name_H-M   'P 1'
_cell_length_a   4.12737400
_cell_length_b   5.50091500
_cell_length_c   10.77809900
_cell_angle_alpha   90.00000000
_cell_angle_beta   90.00000000
_cell_angle_gamma   90.00000000
_symmetry_Int_Tables_number   1
_chemical_formula_structural   Sc2GeRh5
_chemical_formula_sum   'Sc4 Ge2 Rh10'
_cell_volume   244.70955470
_cell_formula_units_Z   2
loop_
 _symmetry_equiv_pos_site_id
 _symmetry_equiv_pos_as_xyz
  1  'x, y, z'
loop_
 _atom_site_type_symbol
 _atom_site_label
 _atom_site_symmetry_multiplicity
 _atom_site_fract_x
 _atom_site_fract_y
 _atom_site_fract_z
 _atom_site_occupancy
  Sc  Sc0  1  0.500000  0.167979  0.640752  1
  Sc  Sc1  1  0.500000  0.832021  0.359248  1
  Sc  Sc2  1  0.500000  0.667979  0.859248  1
  Sc  Sc3  1  0.500000  0.332021  0.140752  1
  Ge  Ge4  1  0.000000  0.500000  0.500000  1
  Ge  Ge5  1  0.000000  0.000000  0.000000  1
  Rh  Rh6  1  0.500000  0.321857  0.393427  1
  Rh  Rh7  1  0.500000  0.678143  0.606573  1
  Rh  Rh8  1  0.500000  0.821857  0.106573  1
  Rh  Rh9  1  0.500000  0.178143  0.893427  1
  Rh  Rh10  1  0.000000  0.418161  0.742864  1
  Rh  Rh11  1  0.000000  0.581839  0.257136  1
  Rh  Rh12  1  0.000000  0.918161  0.757136  1
  Rh  Rh13  1  0.000000  0.081839  0.242864  1
  Rh  Rh14  1  0.000000  0.500000  0.000000  1
  Rh  Rh15  1  0.000000  0.000000  0.500000  1
