# generated using pymatgen
data_La7Tb2PrIr4
_symmetry_space_group_name_H-M   'P 1'
_cell_length_a   6.74759181
_cell_length_b   7.29602207
_cell_length_c   9.09571497
_cell_angle_alpha   95.76830308
_cell_angle_beta   111.37439634
_cell_angle_gamma   89.97211907
_symmetry_Int_Tables_number   1
_chemical_formula_structural   La7Tb2PrIr4
_chemical_formula_sum   'La7 Tb2 Pr1 Ir4'
_cell_volume   414.56070657
_cell_formula_units_Z   1
loop_
 _symmetry_equiv_pos_site_id
 _symmetry_equiv_pos_as_xyz
  1  'x, y, z'
loop_
 _atom_site_type_symbol
 _atom_site_label
 _atom_site_symmetry_multiplicity
 _atom_site_fract_x
 _atom_site_fract_y
 _atom_site_fract_z
 _atom_site_occupancy
  La  La0  1  0.978723  0.918546  0.180974  1
  La  La1  1  0.797572  0.580672  0.818020  1
  La  La2  1  0.020178  0.082513  0.819546  1
  La  La3  1  0.202643  0.417853  0.183058  1
  La  La4  1  0.644109  0.814465  0.426136  1
  La  La5  1  0.217034  0.684357  0.571364  1
  La  La6  1  0.355169  0.185946  0.572881  1
  Tb  Tb7  1  0.436248  0.751021  0.999235  1
  Tb  Tb8  1  0.565314  0.249701  0.001661  1
  Pr  Pr9  1  0.784572  0.313490  0.430857  1
  Ir  Ir10  1  0.811532  0.575493  0.212487  1
  Ir  Ir11  1  0.599678  0.926792  0.786100  1
  Ir  Ir12  1  0.188738  0.426405  0.785777  1
  Ir  Ir13  1  0.398492  0.072747  0.211903  1
