# generated using pymatgen
data_Dy2Tm(Ga2Ni3)3
_symmetry_space_group_name_H-M   'P 1'
_cell_length_a   4.08461600
_cell_length_b   8.73198331
_cell_length_c   8.73198339
_cell_angle_alpha   60.03398195
_cell_angle_beta   90.00000000
_cell_angle_gamma   90.00000000
_symmetry_Int_Tables_number   1
_chemical_formula_structural   Dy2Tm(Ga2Ni3)3
_chemical_formula_sum   'Dy2 Tm1 Ga6 Ni9'
_cell_volume   269.80890230
_cell_formula_units_Z   1
loop_
 _symmetry_equiv_pos_site_id
 _symmetry_equiv_pos_as_xyz
  1  'x, y, z'
loop_
 _atom_site_type_symbol
 _atom_site_label
 _atom_site_symmetry_multiplicity
 _atom_site_fract_x
 _atom_site_fract_y
 _atom_site_fract_z
 _atom_site_occupancy
  Dy  Dy0  1  0.500000  0.333276  0.333409  1
  Dy  Dy1  1  0.500000  0.666591  0.666724  1
  Tm  Tm2  1  0.000000  0.999853  0.000147  1
  Ga  Ga3  1  0.000000  0.516722  0.483278  1
  Ga  Ga4  1  0.000000  0.483315  0.999940  1
  Ga  Ga5  1  0.000000  0.000060  0.516685  1
  Ga  Ga6  1  0.500000  0.269348  0.730652  1
  Ga  Ga7  1  0.500000  0.730430  0.000029  1
  Ga  Ga8  1  0.500000  0.999971  0.269570  1
  Ni  Ni9  1  0.000000  0.174386  0.196170  1
  Ni  Ni10  1  0.000000  0.196092  0.629333  1
  Ni  Ni11  1  0.000000  0.629361  0.174533  1
  Ni  Ni12  1  0.000000  0.803830  0.825614  1
  Ni  Ni13  1  0.000000  0.370667  0.803908  1
  Ni  Ni14  1  0.000000  0.825467  0.370639  1
  Ni  Ni15  1  0.500000  0.705575  0.294425  1
  Ni  Ni16  1  0.500000  0.294843  0.999889  1
  Ni  Ni17  1  0.500000  0.000111  0.705157  1
