# generated using pymatgen
data_Hf5AlBi2
_symmetry_space_group_name_H-M   'P 1'
_cell_length_a   5.57486011
_cell_length_b   8.41065971
_cell_length_c   8.41066014
_cell_angle_alpha   83.69409192
_cell_angle_beta   70.64523351
_cell_angle_gamma   70.64523589
_symmetry_Int_Tables_number   1
_chemical_formula_structural   Hf5AlBi2
_chemical_formula_sum   'Hf10 Al2 Bi4'
_cell_volume   351.04577919
_cell_formula_units_Z   2
loop_
 _symmetry_equiv_pos_site_id
 _symmetry_equiv_pos_as_xyz
  1  'x, y, z'
loop_
 _atom_site_type_symbol
 _atom_site_label
 _atom_site_symmetry_multiplicity
 _atom_site_fract_x
 _atom_site_fract_y
 _atom_site_fract_z
 _atom_site_occupancy
  Hf  Hf0  1  0.073899  0.136992  0.715210  1
  Hf  Hf1  1  0.926101  0.863008  0.284790  1
  Hf  Hf2  1  0.789109  0.284790  0.136992  1
  Hf  Hf3  1  0.426101  0.284790  0.863008  1
  Hf  Hf4  1  0.210891  0.715210  0.863008  1
  Hf  Hf5  1  0.573899  0.715210  0.136992  1
  Hf  Hf6  1  0.710891  0.863008  0.715210  1
  Hf  Hf7  1  0.289109  0.136992  0.284790  1
  Hf  Hf8  1  0.250000  0.500000  0.500000  1
  Hf  Hf9  1  0.750000  0.500000  0.500000  1
  Al  Al10  1  0.250000  0.000000  0.000000  1
  Al  Al11  1  0.750000  0.000000  0.000000  1
  Bi  Bi12  1  0.165107  0.500000  0.169786  1
  Bi  Bi13  1  0.834893  0.500000  0.830214  1
  Bi  Bi14  1  0.334893  0.830214  0.500000  1
  Bi  Bi15  1  0.665107  0.169786  0.500000  1
