# generated using pymatgen
data_NdEu2Dy(Si5Pt3)2
_symmetry_space_group_name_H-M   'P 1'
_cell_length_a   8.23550879
_cell_length_b   8.24062993
_cell_length_c   8.24063103
_cell_angle_alpha   136.95195527
_cell_angle_beta   104.75359768
_cell_angle_gamma   90.84360045
_symmetry_Int_Tables_number   1
_chemical_formula_structural   NdEu2Dy(Si5Pt3)2
_chemical_formula_sum   'Nd1 Eu2 Dy1 Si10 Pt6'
_cell_volume   351.66916531
_cell_formula_units_Z   1
loop_
 _symmetry_equiv_pos_site_id
 _symmetry_equiv_pos_as_xyz
  1  'x, y, z'
loop_
 _atom_site_type_symbol
 _atom_site_label
 _atom_site_symmetry_multiplicity
 _atom_site_fract_x
 _atom_site_fract_y
 _atom_site_fract_z
 _atom_site_occupancy
  Nd  Nd0  1  0.104311  0.871478  0.232833  1
  Eu  Eu1  1  0.637162  0.370786  0.266376  1
  Eu  Eu2  1  0.362894  0.629327  0.733566  1
  Dy  Dy3  1  0.896426  0.128508  0.767919  1
  Si  Si4  1  0.999875  0.745323  0.744711  1
  Si  Si5  1  0.999875  0.255163  0.254552  1
  Si  Si6  1  0.270997  0.018556  0.749202  1
  Si  Si7  1  0.728001  0.477836  0.747398  1
  Si  Si8  1  0.728001  0.980603  0.250165  1
  Si  Si9  1  0.270997  0.521796  0.252441  1
  Si  Si10  1  0.759698  0.610806  0.148892  1
  Si  Si11  1  0.239177  0.387742  0.851435  1
  Si  Si12  1  0.460548  0.112778  0.347770  1
  Si  Si13  1  0.542258  0.889552  0.652706  1
  Pt  Pt14  1  0.500795  0.753252  0.253515  1
  Pt  Pt15  1  0.500795  0.247280  0.747543  1
  Pt  Pt16  1  0.021921  0.636916  0.385006  1
  Pt  Pt17  1  0.975789  0.361056  0.614733  1
  Pt  Pt18  1  0.244461  0.135112  0.109350  1
  Pt  Pt19  1  0.756015  0.866129  0.889885  1
