# generated using pymatgen
data_HoTm2PaHg2Rh3
_symmetry_space_group_name_H-M   'P 1'
_cell_length_a   7.77305630
_cell_length_b   7.77855425
_cell_length_c   3.80275500
_cell_angle_alpha   90.00000000
_cell_angle_beta   90.00000000
_cell_angle_gamma   121.75797521
_symmetry_Int_Tables_number   1
_chemical_formula_structural   HoTm2PaHg2Rh3
_chemical_formula_sum   'Ho1 Tm2 Pa1 Hg2 Rh3'
_cell_volume   195.50167486
_cell_formula_units_Z   1
loop_
 _symmetry_equiv_pos_site_id
 _symmetry_equiv_pos_as_xyz
  1  'x, y, z'
loop_
 _atom_site_type_symbol
 _atom_site_label
 _atom_site_symmetry_multiplicity
 _atom_site_fract_x
 _atom_site_fract_y
 _atom_site_fract_z
 _atom_site_occupancy
  Ho  Ho0  1  0.403650  0.961047  0.500000  1
  Tm  Tm1  1  0.960977  0.403447  0.500000  1
  Tm  Tm2  1  0.644326  0.644001  0.500000  1
  Pa  Pa3  1  0.267915  0.268152  0.000000  1
  Hg  Hg4  1  0.011749  0.735120  0.000000  1
  Hg  Hg5  1  0.737377  0.013948  0.000000  1
  Rh  Rh6  1  0.324702  0.619930  0.000000  1
  Rh  Rh7  1  0.026954  0.027374  0.500000  1
  Rh  Rh8  1  0.622352  0.326984  0.000000  1
