# generated using pymatgen
data_Tb6HoTh(ReB6)4
_symmetry_space_group_name_H-M   'P 1'
_cell_length_a   3.72193500
_cell_length_b   9.21873190
_cell_length_c   11.62002205
_cell_angle_alpha   90.05069752
_cell_angle_beta   90.00000000
_cell_angle_gamma   90.00000000
_symmetry_Int_Tables_number   1
_chemical_formula_structural   Tb6HoTh(ReB6)4
_chemical_formula_sum   'Tb6 Ho1 Th1 Re4 B24'
_cell_volume   398.70047337
_cell_formula_units_Z   1
loop_
 _symmetry_equiv_pos_site_id
 _symmetry_equiv_pos_as_xyz
  1  'x, y, z'
loop_
 _atom_site_type_symbol
 _atom_site_label
 _atom_site_symmetry_multiplicity
 _atom_site_fract_x
 _atom_site_fract_y
 _atom_site_fract_z
 _atom_site_occupancy
  Tb  Tb0  1  0.000000  0.677338  0.587287  1
  Tb  Tb1  1  0.000000  0.823418  0.085006  1
  Tb  Tb2  1  0.000000  0.175847  0.913948  1
  Tb  Tb3  1  0.000000  0.941841  0.369271  1
  Tb  Tb4  1  0.000000  0.056334  0.631600  1
  Tb  Tb5  1  0.000000  0.443444  0.128270  1
  Ho  Ho6  1  0.000000  0.557571  0.870061  1
  Th  Th7  1  0.000000  0.322847  0.414171  1
  Re  Re8  1  0.000000  0.638357  0.320800  1
  Re  Re9  1  0.000000  0.362617  0.680160  1
  Re  Re10  1  0.000000  0.138404  0.178324  1
  Re  Re11  1  0.000000  0.860877  0.821130  1
  B  B12  1  0.500000  0.555621  0.432120  1
  B  B13  1  0.500000  0.446827  0.569691  1
  B  B14  1  0.500000  0.053165  0.066666  1
  B  B15  1  0.500000  0.946156  0.932610  1
  B  B16  1  0.500000  0.749303  0.417823  1
  B  B17  1  0.500000  0.251763  0.585079  1
  B  B18  1  0.500000  0.248123  0.080756  1
  B  B19  1  0.500000  0.750796  0.917966  1
  B  B20  1  0.500000  0.791349  0.265277  1
  B  B21  1  0.500000  0.209101  0.735799  1
  B  B22  1  0.500000  0.289993  0.232247  1
  B  B23  1  0.500000  0.708074  0.766055  1
  B  B24  1  0.500000  0.632057  0.185008  1
  B  B25  1  0.500000  0.369977  0.814958  1
  B  B26  1  0.500000  0.129776  0.311996  1
  B  B27  1  0.500000  0.868515  0.686724  1
  B  B28  1  0.500000  0.982962  0.210836  1
  B  B29  1  0.500000  0.016054  0.788839  1
  B  B30  1  0.500000  0.486028  0.286689  1
  B  B31  1  0.500000  0.517624  0.713641  1
  B  B32  1  0.500000  0.601362  0.027082  1
  B  B33  1  0.500000  0.399933  0.970844  1
  B  B34  1  0.500000  0.098062  0.472671  1
  B  B35  1  0.500000  0.898482  0.528594  1
