# generated using pymatgen
data_Y2MgSnRh4
_symmetry_space_group_name_H-M   'P 1'
_cell_length_a   6.41284022
_cell_length_b   6.41285218
_cell_length_c   7.06798300
_cell_angle_alpha   89.99865847
_cell_angle_beta   90.00076586
_cell_angle_gamma   89.99890997
_symmetry_Int_Tables_number   1
_chemical_formula_structural   Y2MgSnRh4
_chemical_formula_sum   'Y4 Mg2 Sn2 Rh8'
_cell_volume   290.66794799
_cell_formula_units_Z   2
loop_
 _symmetry_equiv_pos_site_id
 _symmetry_equiv_pos_as_xyz
  1  'x, y, z'
loop_
 _atom_site_type_symbol
 _atom_site_label
 _atom_site_symmetry_multiplicity
 _atom_site_fract_x
 _atom_site_fract_y
 _atom_site_fract_z
 _atom_site_occupancy
  Y  Y0  1  0.750009  0.250003  0.999997  1
  Y  Y1  1  0.249988  0.749994  0.999996  1
  Y  Y2  1  0.749993  0.250008  0.500001  1
  Y  Y3  1  0.250002  0.749996  0.500004  1
  Mg  Mg4  1  0.249991  0.250001  0.500099  1
  Mg  Mg5  1  0.749991  0.749997  0.999906  1
  Sn  Sn6  1  0.250018  0.250012  0.000114  1
  Sn  Sn7  1  0.750019  0.749987  0.499885  1
  Rh  Rh8  1  0.499985  0.000001  0.249993  1
  Rh  Rh9  1  0.499986  0.499993  0.249992  1
  Rh  Rh10  1  0.999997  0.999999  0.250011  1
  Rh  Rh11  1  0.999997  0.500003  0.250007  1
  Rh  Rh12  1  0.999998  0.000000  0.749993  1
  Rh  Rh13  1  0.999999  0.499994  0.749990  1
  Rh  Rh14  1  0.500016  0.000001  0.750008  1
  Rh  Rh15  1  0.500014  0.500009  0.750008  1
