# generated using pymatgen
data_TbDy11Co4BiRu
_symmetry_space_group_name_H-M   'P 1'
_cell_length_a   8.32942027
_cell_length_b   8.32942150
_cell_length_c   8.32673268
_cell_angle_alpha   111.14584880
_cell_angle_beta   110.49890623
_cell_angle_gamma   106.81585970
_symmetry_Int_Tables_number   1
_chemical_formula_structural   TbDy11Co4BiRu
_chemical_formula_sum   'Tb1 Dy11 Co4 Bi1 Ru1'
_cell_volume   443.90944012
_cell_formula_units_Z   1
loop_
 _symmetry_equiv_pos_site_id
 _symmetry_equiv_pos_as_xyz
  1  'x, y, z'
loop_
 _atom_site_type_symbol
 _atom_site_label
 _atom_site_symmetry_multiplicity
 _atom_site_fract_x
 _atom_site_fract_y
 _atom_site_fract_z
 _atom_site_occupancy
  Tb  Tb0  1  0.817247  0.713216  0.530464  1
  Dy  Dy1  1  0.182230  0.286511  0.468741  1
  Dy  Dy2  1  0.182830  0.713578  0.896407  1
  Dy  Dy3  1  0.817579  0.286330  0.103910  1
  Dy  Dy4  1  0.688193  0.379034  0.691224  1
  Dy  Dy5  1  0.311434  0.620698  0.308772  1
  Dy  Dy6  1  0.688074  0.997337  0.308772  1
  Dy  Dy7  1  0.312190  0.003033  0.691224  1
  Dy  Dy8  1  0.593508  0.789252  0.804828  1
  Dy  Dy9  1  0.406080  0.210576  0.195271  1
  Dy  Dy10  1  0.984695  0.789192  0.195271  1
  Dy  Dy11  1  0.015575  0.211319  0.804828  1
  Co  Co12  1  0.623542  0.000188  0.623731  1
  Co  Co13  1  0.376322  0.000041  0.376363  1
  Co  Co14  1  0.111275  0.610757  0.499865  1
  Co  Co15  1  0.889107  0.388590  0.499865  1
  Bi  Bi16  1  0.499937  0.499978  0.999915  1
  Ru  Ru17  1  0.000182  0.000368  0.000549  1
