# generated using pymatgen
data_Pr4Mn5Ge3O20
_symmetry_space_group_name_H-M   'P 1'
_cell_length_a   5.80742700
_cell_length_b   7.69646953
_cell_length_c   8.78216060
_cell_angle_alpha   90.04231466
_cell_angle_beta   90.00000000
_cell_angle_gamma   90.00000000
_symmetry_Int_Tables_number   1
_chemical_formula_structural   Pr4Mn5Ge3O20
_chemical_formula_sum   'Pr4 Mn5 Ge3 O20'
_cell_volume   392.53335817
_cell_formula_units_Z   1
loop_
 _symmetry_equiv_pos_site_id
 _symmetry_equiv_pos_as_xyz
  1  'x, y, z'
loop_
 _atom_site_type_symbol
 _atom_site_label
 _atom_site_symmetry_multiplicity
 _atom_site_fract_x
 _atom_site_fract_y
 _atom_site_fract_z
 _atom_site_occupancy
  Pr  Pr0  1  0.000863  0.357928  0.671198  1
  Pr  Pr1  1  0.000863  0.642072  0.328802  1
  Pr  Pr2  1  0.000823  0.859343  0.827525  1
  Pr  Pr3  1  0.000823  0.140657  0.172475  1
  Mn  Mn4  1  0.500845  0.089855  0.850942  1
  Mn  Mn5  1  0.500845  0.910145  0.149058  1
  Mn  Mn6  1  0.500416  0.590305  0.649269  1
  Mn  Mn7  1  0.500416  0.409695  0.350731  1
  Mn  Mn8  1  0.257296  0.000000  0.500000  1
  Ge  Ge9  1  0.259003  0.500000  0.000000  1
  Ge  Ge10  1  0.740340  0.000000  0.500000  1
  Ge  Ge11  1  0.740920  0.500000  0.000000  1
  O  O12  1  0.248546  0.902533  0.293989  1
  O  O13  1  0.248546  0.097467  0.706011  1
  O  O14  1  0.752161  0.403500  0.204840  1
  O  O15  1  0.752161  0.596500  0.795160  1
  O  O16  1  0.752406  0.096852  0.704944  1
  O  O17  1  0.752406  0.903148  0.295056  1
  O  O18  1  0.248138  0.596584  0.795130  1
  O  O19  1  0.248138  0.403416  0.204870  1
  O  O20  1  0.499957  0.348459  0.936698  1
  O  O21  1  0.499957  0.651541  0.063302  1
  O  O22  1  0.500849  0.848043  0.563511  1
  O  O23  1  0.500849  0.151957  0.436489  1
  O  O24  1  0.276579  0.000000  0.000000  1
  O  O25  1  0.723379  0.500000  0.500000  1
  O  O26  1  0.724795  0.000000  0.000000  1
  O  O27  1  0.276865  0.500000  0.500000  1
  O  O28  1  0.995479  0.154831  0.448674  1
  O  O29  1  0.995479  0.845169  0.551326  1
  O  O30  1  0.999930  0.654174  0.051073  1
  O  O31  1  0.999930  0.345826  0.948927  1
