# generated using pymatgen
data_Hf6Zn16GeAu7
_symmetry_space_group_name_H-M   'P 1'
_cell_length_a   8.87568123
_cell_length_b   8.89127276
_cell_length_c   8.89127400
_cell_angle_alpha   60.00004980
_cell_angle_beta   59.94191032
_cell_angle_gamma   59.94190019
_symmetry_Int_Tables_number   1
_chemical_formula_structural   Hf6Zn16GeAu7
_chemical_formula_sum   'Hf6 Zn16 Ge1 Au7'
_cell_volume   495.71592999
_cell_formula_units_Z   1
loop_
 _symmetry_equiv_pos_site_id
 _symmetry_equiv_pos_as_xyz
  1  'x, y, z'
loop_
 _atom_site_type_symbol
 _atom_site_label
 _atom_site_symmetry_multiplicity
 _atom_site_fract_x
 _atom_site_fract_y
 _atom_site_fract_z
 _atom_site_occupancy
  Hf  Hf0  1  0.713250  0.286650  0.286652  1
  Hf  Hf1  1  0.286825  0.711258  0.711257  1
  Hf  Hf2  1  0.286826  0.711258  0.290659  1
  Hf  Hf3  1  0.713251  0.286650  0.713448  1
  Hf  Hf4  1  0.286826  0.290660  0.711257  1
  Hf  Hf5  1  0.713251  0.713449  0.286650  1
  Zn  Zn6  1  0.369811  0.876730  0.876730  1
  Zn  Zn7  1  0.498050  0.998388  0.998387  1
  Zn  Zn8  1  0.998948  0.499881  0.499880  1
  Zn  Zn9  1  0.998949  0.499880  0.001290  1
  Zn  Zn10  1  0.498050  0.998388  0.505175  1
  Zn  Zn11  1  0.998949  0.001290  0.499881  1
  Zn  Zn12  1  0.498051  0.505174  0.998388  1
  Zn  Zn13  1  0.337919  0.337866  0.337866  1
  Zn  Zn14  1  0.660215  0.663070  0.663071  1
  Zn  Zn15  1  0.337918  0.337866  0.986351  1
  Zn  Zn16  1  0.337918  0.986351  0.337865  1
  Zn  Zn17  1  0.660217  0.663071  0.013641  1
  Zn  Zn18  1  0.660216  0.013642  0.663071  1
  Zn  Zn19  1  0.985627  0.338124  0.338124  1
  Zn  Zn20  1  0.012822  0.662393  0.662392  1
  Zn  Zn21  1  0.003145  0.998952  0.998952  1
  Ge  Ge22  1  0.502948  0.499018  0.499017  1
  Au  Au23  1  0.124886  0.119221  0.119221  1
  Au  Au24  1  0.877387  0.878282  0.878283  1
  Au  Au25  1  0.124886  0.119221  0.636673  1
  Au  Au26  1  0.124887  0.636671  0.119221  1
  Au  Au27  1  0.877387  0.878283  0.366047  1
  Au  Au28  1  0.877388  0.366047  0.878282  1
  Au  Au29  1  0.633197  0.122268  0.122268  1
