# generated using pymatgen
data_Ti10ZnGeSb6
_symmetry_space_group_name_H-M   'P 1'
_cell_length_a   8.22394400
_cell_length_b   8.22394500
_cell_length_c   5.53520200
_cell_angle_alpha   90.00000000
_cell_angle_beta   90.00000000
_cell_angle_gamma   120.00000402
_symmetry_Int_Tables_number   1
_chemical_formula_structural   Ti10ZnGeSb6
_chemical_formula_sum   'Ti10 Zn1 Ge1 Sb6'
_cell_volume   324.20852485
_cell_formula_units_Z   1
loop_
 _symmetry_equiv_pos_site_id
 _symmetry_equiv_pos_as_xyz
  1  'x, y, z'
loop_
 _atom_site_type_symbol
 _atom_site_label
 _atom_site_symmetry_multiplicity
 _atom_site_fract_x
 _atom_site_fract_y
 _atom_site_fract_z
 _atom_site_occupancy
  Ti  Ti0  1  0.666667  0.333333  0.500000  1
  Ti  Ti1  1  0.333333  0.666667  0.500000  1
  Ti  Ti2  1  0.333333  0.666667  0.000000  1
  Ti  Ti3  1  0.666667  0.333333  0.000000  1
  Ti  Ti4  1  0.732278  0.732278  0.246686  1
  Ti  Ti5  1  0.267722  0.000000  0.246686  1
  Ti  Ti6  1  0.000000  0.267722  0.246686  1
  Ti  Ti7  1  0.267722  0.267722  0.753314  1
  Ti  Ti8  1  0.732278  0.000000  0.753314  1
  Ti  Ti9  1  0.000000  0.732278  0.753314  1
  Zn  Zn10  1  0.000000  0.000000  0.500000  1
  Ge  Ge11  1  0.000000  0.000000  0.000000  1
  Sb  Sb12  1  0.389108  0.389108  0.252950  1
  Sb  Sb13  1  0.610892  0.000000  0.252950  1
  Sb  Sb14  1  0.000000  0.610892  0.252950  1
  Sb  Sb15  1  0.610892  0.610892  0.747050  1
  Sb  Sb16  1  0.389108  0.000000  0.747050  1
  Sb  Sb17  1  0.000000  0.389108  0.747050  1
