# generated using pymatgen
data_Ac3Te4Br
_symmetry_space_group_name_H-M   'P 1'
_cell_length_a   4.55649700
_cell_length_b   14.80673100
_cell_length_c   16.95127100
_cell_angle_alpha   90.00000000
_cell_angle_beta   90.00000000
_cell_angle_gamma   90.00000000
_symmetry_Int_Tables_number   1
_chemical_formula_structural   Ac3Te4Br
_chemical_formula_sum   'Ac12 Te16 Br4'
_cell_volume   1143.64844055
_cell_formula_units_Z   4
loop_
 _symmetry_equiv_pos_site_id
 _symmetry_equiv_pos_as_xyz
  1  'x, y, z'
loop_
 _atom_site_type_symbol
 _atom_site_label
 _atom_site_symmetry_multiplicity
 _atom_site_fract_x
 _atom_site_fract_y
 _atom_site_fract_z
 _atom_site_occupancy
  Ac  Ac0  1  0.250000  0.910237  0.625802  1
  Ac  Ac1  1  0.250000  0.589763  0.125802  1
  Ac  Ac2  1  0.750000  0.089763  0.374198  1
  Ac  Ac3  1  0.750000  0.410237  0.874198  1
  Ac  Ac4  1  0.750000  0.249839  0.619338  1
  Ac  Ac5  1  0.750000  0.250161  0.119338  1
  Ac  Ac6  1  0.250000  0.750161  0.380662  1
  Ac  Ac7  1  0.250000  0.749839  0.880662  1
  Ac  Ac8  1  0.750000  0.574203  0.632522  1
  Ac  Ac9  1  0.750000  0.925797  0.132522  1
  Ac  Ac10  1  0.250000  0.425797  0.367478  1
  Ac  Ac11  1  0.250000  0.074203  0.867478  1
  Te  Te12  1  0.250000  0.418425  0.571826  1
  Te  Te13  1  0.250000  0.081575  0.071826  1
  Te  Te14  1  0.750000  0.581575  0.428174  1
  Te  Te15  1  0.750000  0.918425  0.928174  1
  Te  Te16  1  0.750000  0.048041  0.716536  1
  Te  Te17  1  0.750000  0.451959  0.216536  1
  Te  Te18  1  0.250000  0.951959  0.283464  1
  Te  Te19  1  0.250000  0.548041  0.783464  1
  Te  Te20  1  0.750000  0.777551  0.731797  1
  Te  Te21  1  0.750000  0.722449  0.231797  1
  Te  Te22  1  0.250000  0.222449  0.268203  1
  Te  Te23  1  0.250000  0.277551  0.768203  1
  Te  Te24  1  0.250000  0.112983  0.523769  1
  Te  Te25  1  0.250000  0.387017  0.023769  1
  Te  Te26  1  0.750000  0.887017  0.476231  1
  Te  Te27  1  0.750000  0.612983  0.976231  1
  Br  Br28  1  0.250000  0.702871  0.568009  1
  Br  Br29  1  0.250000  0.797129  0.068009  1
  Br  Br30  1  0.750000  0.297129  0.431991  1
  Br  Br31  1  0.750000  0.202871  0.931991  1
