# generated using pymatgen
data_HoTmMgNi9
_symmetry_space_group_name_H-M   'P 1'
_cell_length_a   8.41598350
_cell_length_b   8.41598381
_cell_length_c   8.41598323
_cell_angle_alpha   33.65390828
_cell_angle_beta   33.65390429
_cell_angle_gamma   33.65390095
_symmetry_Int_Tables_number   1
_chemical_formula_structural   HoTmMgNi9
_chemical_formula_sum   'Ho1 Tm1 Mg1 Ni9'
_cell_volume   163.08738956
_cell_formula_units_Z   1
loop_
 _symmetry_equiv_pos_site_id
 _symmetry_equiv_pos_as_xyz
  1  'x, y, z'
loop_
 _atom_site_type_symbol
 _atom_site_label
 _atom_site_symmetry_multiplicity
 _atom_site_fract_x
 _atom_site_fract_y
 _atom_site_fract_z
 _atom_site_occupancy
  Ho  Ho0  1  0.996545  0.996545  0.996545  1
  Tm  Tm1  1  0.143084  0.143084  0.143084  1
  Mg  Mg2  1  0.860735  0.860735  0.860735  1
  Ni  Ni3  1  0.415797  0.415797  0.917197  1
  Ni  Ni4  1  0.917197  0.415797  0.415797  1
  Ni  Ni5  1  0.415797  0.917197  0.415797  1
  Ni  Ni6  1  0.500409  0.500409  0.500409  1
  Ni  Ni7  1  0.333425  0.333425  0.333425  1
  Ni  Ni8  1  0.666961  0.666961  0.666961  1
  Ni  Ni9  1  0.081098  0.584476  0.584476  1
  Ni  Ni10  1  0.584476  0.584476  0.081098  1
  Ni  Ni11  1  0.584476  0.081098  0.584476  1
