# generated using pymatgen
data_Er5HfZr2(Co4As3)4
_symmetry_space_group_name_H-M   'P 1'
_cell_length_a   12.68540943
_cell_length_b   12.68540941
_cell_length_c   3.81470500
_cell_angle_alpha   90.00000000
_cell_angle_beta   90.00000000
_cell_angle_gamma   120.02968746
_symmetry_Int_Tables_number   1
_chemical_formula_structural   Er5HfZr2(Co4As3)4
_chemical_formula_sum   'Er5 Hf1 Zr2 Co16 As12'
_cell_volume   531.45998383
_cell_formula_units_Z   1
loop_
 _symmetry_equiv_pos_site_id
 _symmetry_equiv_pos_as_xyz
  1  'x, y, z'
loop_
 _atom_site_type_symbol
 _atom_site_label
 _atom_site_symmetry_multiplicity
 _atom_site_fract_x
 _atom_site_fract_y
 _atom_site_fract_z
 _atom_site_occupancy
  Er  Er0  1  0.182802  0.182802  0.500000  1
  Er  Er1  1  0.817521  0.000092  0.500000  1
  Er  Er2  1  0.000092  0.817521  0.500000  1
  Er  Er3  1  0.333219  0.666696  0.000000  1
  Er  Er4  1  0.666696  0.333219  0.000000  1
  Hf  Hf5  1  0.561201  0.561201  0.000000  1
  Zr  Zr6  1  0.439559  0.000147  0.000000  1
  Zr  Zr7  1  0.000147  0.439559  0.000000  1
  Co  Co8  1  0.718932  0.718932  0.500000  1
  Co  Co9  1  0.279810  0.999906  0.500000  1
  Co  Co10  1  0.999906  0.279810  0.500000  1
  Co  Co11  1  0.178075  0.373599  0.000000  1
  Co  Co12  1  0.626154  0.803009  0.000000  1
  Co  Co13  1  0.195623  0.822170  0.000000  1
  Co  Co14  1  0.803009  0.626154  0.000000  1
  Co  Co15  1  0.822170  0.195623  0.000000  1
  Co  Co16  1  0.373599  0.178075  0.000000  1
  Co  Co17  1  0.358428  0.480603  0.500000  1
  Co  Co18  1  0.520290  0.876929  0.500000  1
  Co  Co19  1  0.122699  0.642830  0.500000  1
  Co  Co20  1  0.876929  0.520290  0.500000  1
  Co  Co21  1  0.642830  0.122699  0.500000  1
  Co  Co22  1  0.480603  0.358428  0.500000  1
  Co  Co23  1  0.000050  0.000050  0.000000  1
  As  As24  1  0.823244  0.823244  0.000000  1
  As  As25  1  0.176878  0.000143  0.000000  1
  As  As26  1  0.000143  0.176878  0.000000  1
  As  As27  1  0.174134  0.482386  0.500000  1
  As  As28  1  0.517277  0.690513  0.500000  1
  As  As29  1  0.308558  0.826093  0.500000  1
  As  As30  1  0.690513  0.517277  0.500000  1
  As  As31  1  0.826093  0.308558  0.500000  1
  As  As32  1  0.482386  0.174134  0.500000  1
  As  As33  1  0.352020  0.352020  0.000000  1
  As  As34  1  0.648837  0.999574  0.000000  1
  As  As35  1  0.999574  0.648837  0.000000  1
