# generated using pymatgen
data_Ho11Tm(IrPd)2
_symmetry_space_group_name_H-M   'P 1'
_cell_length_a   6.43281700
_cell_length_b   7.11923293
_cell_length_c   9.39620200
_cell_angle_alpha   90.00000000
_cell_angle_beta   90.00000000
_cell_angle_gamma   89.90430891
_symmetry_Int_Tables_number   1
_chemical_formula_structural   Ho11Tm(IrPd)2
_chemical_formula_sum   'Ho11 Tm1 Ir2 Pd2'
_cell_volume   430.31465646
_cell_formula_units_Z   1
loop_
 _symmetry_equiv_pos_site_id
 _symmetry_equiv_pos_as_xyz
  1  'x, y, z'
loop_
 _atom_site_type_symbol
 _atom_site_label
 _atom_site_symmetry_multiplicity
 _atom_site_fract_x
 _atom_site_fract_y
 _atom_site_fract_z
 _atom_site_occupancy
  Ho  Ho0  1  0.626656  0.037419  0.250000  1
  Ho  Ho1  1  0.373159  0.962676  0.750000  1
  Ho  Ho2  1  0.135760  0.477948  0.750000  1
  Ho  Ho3  1  0.177641  0.184450  0.061720  1
  Ho  Ho4  1  0.822397  0.815534  0.938171  1
  Ho  Ho5  1  0.670074  0.321938  0.939928  1
  Ho  Ho6  1  0.822397  0.815534  0.561829  1
  Ho  Ho7  1  0.329799  0.678294  0.060057  1
  Ho  Ho8  1  0.177641  0.184450  0.438280  1
  Ho  Ho9  1  0.329799  0.678294  0.439943  1
  Ho  Ho10  1  0.670074  0.321938  0.560072  1
  Tm  Tm11  1  0.864722  0.521761  0.250000  1
  Ir  Ir12  1  0.449006  0.387300  0.250000  1
  Ir  Ir13  1  0.551164  0.613263  0.750000  1
  Pd  Pd14  1  0.950383  0.112367  0.750000  1
  Pd  Pd15  1  0.049328  0.886834  0.250000  1
