# generated using pymatgen
data_Hf17Ni4Ir3
_symmetry_space_group_name_H-M   'P 1'
_cell_length_a   8.62250798
_cell_length_b   8.62250778
_cell_length_c   8.62250800
_cell_angle_alpha   60.04855660
_cell_angle_beta   60.04855738
_cell_angle_gamma   60.04855572
_symmetry_Int_Tables_number   1
_chemical_formula_structural   Hf17Ni4Ir3
_chemical_formula_sum   'Hf17 Ni4 Ir3'
_cell_volume   453.79897716
_cell_formula_units_Z   1
loop_
 _symmetry_equiv_pos_site_id
 _symmetry_equiv_pos_as_xyz
  1  'x, y, z'
loop_
 _atom_site_type_symbol
 _atom_site_label
 _atom_site_symmetry_multiplicity
 _atom_site_fract_x
 _atom_site_fract_y
 _atom_site_fract_z
 _atom_site_occupancy
  Hf  Hf0  1  0.195487  0.601052  0.601052  1
  Hf  Hf1  1  0.601052  0.195487  0.601052  1
  Hf  Hf2  1  0.601052  0.601052  0.195487  1
  Hf  Hf3  1  0.607386  0.607386  0.607386  1
  Hf  Hf4  1  0.815053  0.815053  0.179872  1
  Hf  Hf5  1  0.184535  0.184535  0.815445  1
  Hf  Hf6  1  0.815053  0.179872  0.815053  1
  Hf  Hf7  1  0.184535  0.815445  0.184535  1
  Hf  Hf8  1  0.179872  0.815053  0.815053  1
  Hf  Hf9  1  0.815445  0.184535  0.184535  1
  Hf  Hf10  1  0.451688  0.451688  0.047825  1
  Hf  Hf11  1  0.054910  0.054910  0.448304  1
  Hf  Hf12  1  0.451688  0.047825  0.451688  1
  Hf  Hf13  1  0.054910  0.448304  0.054910  1
  Hf  Hf14  1  0.047825  0.451688  0.451688  1
  Hf  Hf15  1  0.448304  0.054910  0.054910  1
  Hf  Hf16  1  0.827601  0.827601  0.827601  1
  Ni  Ni17  1  0.821921  0.394243  0.394243  1
  Ni  Ni18  1  0.394243  0.821921  0.394243  1
  Ni  Ni19  1  0.394243  0.394243  0.821921  1
  Ni  Ni20  1  0.390772  0.390772  0.390772  1
  Ir  Ir21  1  0.488957  0.836732  0.836732  1
  Ir  Ir22  1  0.836732  0.488957  0.836732  1
  Ir  Ir23  1  0.836732  0.836732  0.488957  1
