# generated using pymatgen
data_Sr3La2Np5O18
_symmetry_space_group_name_H-M   'P 1'
_cell_length_a   6.94323600
_cell_length_b   7.69788584
_cell_length_c   8.67393300
_cell_angle_alpha   100.56460548
_cell_angle_beta   97.93061858
_cell_angle_gamma   107.20735761
_symmetry_Int_Tables_number   1
_chemical_formula_structural   Sr3La2Np5O18
_chemical_formula_sum   'Sr3 La2 Np5 O18'
_cell_volume   426.13105322
_cell_formula_units_Z   1
loop_
 _symmetry_equiv_pos_site_id
 _symmetry_equiv_pos_as_xyz
  1  'x, y, z'
loop_
 _atom_site_type_symbol
 _atom_site_label
 _atom_site_symmetry_multiplicity
 _atom_site_fract_x
 _atom_site_fract_y
 _atom_site_fract_z
 _atom_site_occupancy
  Sr  Sr0  1  0.596759  0.695061  0.195489  1
  Sr  Sr1  1  0.403151  0.303577  0.804222  1
  Sr  Sr2  1  0.200710  0.897872  0.417359  1
  La  La3  1  0.804113  0.109535  0.581401  1
  La  La4  1  0.000160  0.502829  0.999992  1
  Np  Np5  1  0.998136  0.997579  0.000081  1
  Np  Np6  1  0.789849  0.581118  0.586875  1
  Np  Np7  1  0.621133  0.197583  0.192775  1
  Np  Np8  1  0.379241  0.801842  0.805107  1
  Np  Np9  1  0.209356  0.423103  0.411894  1
  O  O10  1  0.824766  0.799875  0.475414  1
  O  O11  1  0.006012  0.240338  0.170232  1
  O  O12  1  0.672367  0.402858  0.066402  1
  O  O13  1  0.470017  0.999989  0.679540  1
  O  O14  1  0.859319  0.342129  0.423500  1
  O  O15  1  0.500936  0.397535  0.345977  1
  O  O16  1  0.240999  0.608318  0.271148  1
  O  O17  1  0.979000  0.817288  0.148405  1
  O  O18  1  0.665860  0.935854  0.996209  1
  O  O19  1  0.331370  0.061223  0.002235  1
  O  O20  1  0.013709  0.177000  0.845516  1
  O  O21  1  0.759062  0.385997  0.726140  1
  O  O22  1  0.504049  0.603371  0.657460  1
  O  O23  1  0.137380  0.652961  0.578956  1
  O  O24  1  0.547105  0.002628  0.322738  1
  O  O25  1  0.326279  0.595646  0.932015  1
  O  O26  1  0.991248  0.754151  0.831344  1
  O  O27  1  0.167915  0.212740  0.531572  1
