# generated using pymatgen
data_Hf9Ta3ReTe
_symmetry_space_group_name_H-M   'P 1'
_cell_length_a   8.84248500
_cell_length_b   8.84248506
_cell_length_c   8.92589700
_cell_angle_alpha   90.00000000
_cell_angle_beta   90.00000000
_cell_angle_gamma   119.99999604
_symmetry_Int_Tables_number   1
_chemical_formula_structural   Hf9Ta3ReTe
_chemical_formula_sum   'Hf18 Ta6 Re2 Te2'
_cell_volume   604.40936728
_cell_formula_units_Z   2
loop_
 _symmetry_equiv_pos_site_id
 _symmetry_equiv_pos_as_xyz
  1  'x, y, z'
loop_
 _atom_site_type_symbol
 _atom_site_label
 _atom_site_symmetry_multiplicity
 _atom_site_fract_x
 _atom_site_fract_y
 _atom_site_fract_z
 _atom_site_occupancy
  Hf  Hf0  1  0.190982  0.809018  0.455807  1
  Hf  Hf1  1  0.190982  0.381965  0.455807  1
  Hf  Hf2  1  0.618035  0.809018  0.455807  1
  Hf  Hf3  1  0.809018  0.190982  0.544193  1
  Hf  Hf4  1  0.809018  0.618035  0.544193  1
  Hf  Hf5  1  0.381965  0.190982  0.544193  1
  Hf  Hf6  1  0.809018  0.190982  0.955807  1
  Hf  Hf7  1  0.809018  0.618035  0.955807  1
  Hf  Hf8  1  0.381965  0.190982  0.955807  1
  Hf  Hf9  1  0.190982  0.809018  0.044193  1
  Hf  Hf10  1  0.190982  0.381965  0.044193  1
  Hf  Hf11  1  0.618035  0.809018  0.044193  1
  Hf  Hf12  1  0.541931  0.458069  0.250000  1
  Hf  Hf13  1  0.541931  0.083861  0.250000  1
  Hf  Hf14  1  0.916139  0.458069  0.250000  1
  Hf  Hf15  1  0.458069  0.541931  0.750000  1
  Hf  Hf16  1  0.458069  0.916139  0.750000  1
  Hf  Hf17  1  0.083861  0.541931  0.750000  1
  Ta  Ta18  1  0.890242  0.109758  0.250000  1
  Ta  Ta19  1  0.890242  0.780485  0.250000  1
  Ta  Ta20  1  0.219515  0.109758  0.250000  1
  Ta  Ta21  1  0.109758  0.890242  0.750000  1
  Ta  Ta22  1  0.109758  0.219515  0.750000  1
  Ta  Ta23  1  0.780485  0.890242  0.750000  1
  Re  Re24  1  0.000000  0.000000  0.500000  1
  Re  Re25  1  0.000000  0.000000  0.000000  1
  Te  Te26  1  0.333333  0.666667  0.250000  1
  Te  Te27  1  0.666667  0.333333  0.750000  1
