# generated using pymatgen
data_Sr4Fe2Hg(SeO3)2
_symmetry_space_group_name_H-M   'P 1'
_cell_length_a   4.00839300
_cell_length_b   4.00839300
_cell_length_c   16.51979900
_cell_angle_alpha   90.00000000
_cell_angle_beta   90.00000000
_cell_angle_gamma   90.00000000
_symmetry_Int_Tables_number   1
_chemical_formula_structural   Sr4Fe2Hg(SeO3)2
_chemical_formula_sum   'Sr4 Fe2 Hg1 Se2 O6'
_cell_volume   265.42715308
_cell_formula_units_Z   1
loop_
 _symmetry_equiv_pos_site_id
 _symmetry_equiv_pos_as_xyz
  1  'x, y, z'
loop_
 _atom_site_type_symbol
 _atom_site_label
 _atom_site_symmetry_multiplicity
 _atom_site_fract_x
 _atom_site_fract_y
 _atom_site_fract_z
 _atom_site_occupancy
  Sr  Sr0  1  0.500000  0.000000  0.700784  1
  Sr  Sr1  1  0.000000  0.500000  0.299216  1
  Sr  Sr2  1  0.500000  0.000000  0.915922  1
  Sr  Sr3  1  0.000000  0.500000  0.084078  1
  Fe  Fe4  1  0.000000  0.500000  0.818605  1
  Fe  Fe5  1  0.500000  0.000000  0.181395  1
  Hg  Hg6  1  0.000000  0.000000  0.500000  1
  Se  Se7  1  0.000000  0.500000  0.609694  1
  Se  Se8  1  0.500000  0.000000  0.390306  1
  O  O9  1  0.500000  0.500000  0.799903  1
  O  O10  1  0.000000  0.000000  0.797681  1
  O  O11  1  0.000000  0.000000  0.202319  1
  O  O12  1  0.500000  0.500000  0.200097  1
  O  O13  1  0.000000  0.500000  0.934492  1
  O  O14  1  0.500000  0.000000  0.065508  1
