# generated using pymatgen
data_Dy3Er2AlBi2
_symmetry_space_group_name_H-M   'P 1'
_cell_length_a   9.07575100
_cell_length_b   9.07160984
_cell_length_c   6.49071000
_cell_angle_alpha   90.00000000
_cell_angle_beta   90.00000000
_cell_angle_gamma   120.38467566
_symmetry_Int_Tables_number   1
_chemical_formula_structural   Dy3Er2AlBi2
_chemical_formula_sum   'Dy6 Er4 Al2 Bi4'
_cell_volume   460.99185879
_cell_formula_units_Z   2
loop_
 _symmetry_equiv_pos_site_id
 _symmetry_equiv_pos_as_xyz
  1  'x, y, z'
loop_
 _atom_site_type_symbol
 _atom_site_label
 _atom_site_symmetry_multiplicity
 _atom_site_fract_x
 _atom_site_fract_y
 _atom_site_fract_z
 _atom_site_occupancy
  Dy  Dy0  1  0.656682  0.343443  0.000022  1
  Dy  Dy1  1  0.343254  0.656362  0.000040  1
  Dy  Dy2  1  0.343254  0.656362  0.499960  1
  Dy  Dy3  1  0.656682  0.343443  0.499978  1
  Dy  Dy4  1  0.756340  0.756575  0.750000  1
  Dy  Dy5  1  0.243316  0.015180  0.750000  1
  Er  Er6  1  0.015366  0.243852  0.750000  1
  Er  Er7  1  0.243865  0.243964  0.250000  1
  Er  Er8  1  0.756411  0.984686  0.250000  1
  Er  Er9  1  0.984647  0.756487  0.250000  1
  Al  Al10  1  0.400182  0.400450  0.750000  1
  Al  Al11  1  0.599800  0.599707  0.250000  1
  Bi  Bi12  1  0.612011  0.007330  0.750000  1
  Bi  Bi13  1  0.006950  0.610954  0.750000  1
  Bi  Bi14  1  0.388113  0.993039  0.250000  1
  Bi  Bi15  1  0.993127  0.388169  0.250000  1
