# generated using pymatgen
data_DyY5Ho10(In3Ir)2
_symmetry_space_group_name_H-M   'P 1'
_cell_length_a   10.40083200
_cell_length_b   10.39353645
_cell_length_c   7.09095327
_cell_angle_alpha   89.93423912
_cell_angle_beta   90.00000000
_cell_angle_gamma   120.02322241
_symmetry_Int_Tables_number   1
_chemical_formula_structural   DyY5Ho10(In3Ir)2
_chemical_formula_sum   'Dy1 Y5 Ho10 In6 Ir2'
_cell_volume   663.68900713
_cell_formula_units_Z   1
loop_
 _symmetry_equiv_pos_site_id
 _symmetry_equiv_pos_as_xyz
  1  'x, y, z'
loop_
 _atom_site_type_symbol
 _atom_site_label
 _atom_site_symmetry_multiplicity
 _atom_site_fract_x
 _atom_site_fract_y
 _atom_site_fract_z
 _atom_site_occupancy
  Dy  Dy0  1  0.534323  0.068648  0.506548  1
  Y  Y1  1  0.932860  0.466461  0.506911  1
  Y  Y2  1  0.533602  0.466461  0.506911  1
  Y  Y3  1  0.466464  0.932926  0.006758  1
  Y  Y4  1  0.067330  0.533550  0.006717  1
  Y  Y5  1  0.466220  0.533550  0.006717  1
  Ho  Ho6  1  0.176271  0.352540  0.711638  1
  Ho  Ho7  1  0.647310  0.823962  0.711300  1
  Ho  Ho8  1  0.176653  0.823962  0.711300  1
  Ho  Ho9  1  0.823404  0.646809  0.211323  1
  Ho  Ho10  1  0.352348  0.175916  0.212227  1
  Ho  Ho11  1  0.823566  0.175916  0.212227  1
  Ho  Ho12  1  0.666603  0.333205  0.888839  1
  Ho  Ho13  1  0.333614  0.667228  0.388840  1
  Ho  Ho14  1  0.999911  0.999821  0.492183  1
  Ho  Ho15  1  0.000045  0.000090  0.992187  1
  In  In16  1  0.837093  0.674185  0.754466  1
  In  In17  1  0.326013  0.163109  0.755242  1
  In  In18  1  0.837096  0.163109  0.755242  1
  In  In19  1  0.163018  0.326036  0.254992  1
  In  In20  1  0.674079  0.836633  0.254525  1
  In  In21  1  0.162553  0.836633  0.254525  1
  Ir  Ir22  1  0.666256  0.332512  0.278619  1
  Ir  Ir23  1  0.333368  0.666737  0.777809  1
