# generated using pymatgen
data_Th4Tl2Pd3Pt
_symmetry_space_group_name_H-M   'P 1'
_cell_length_a   7.97078400
_cell_length_b   7.97078399
_cell_length_c   3.80894500
_cell_angle_alpha   90.00000000
_cell_angle_beta   90.00000000
_cell_angle_gamma   89.97143400
_symmetry_Int_Tables_number   1
_chemical_formula_structural   Th4Tl2Pd3Pt
_chemical_formula_sum   'Th4 Tl2 Pd3 Pt1'
_cell_volume   241.99518666
_cell_formula_units_Z   1
loop_
 _symmetry_equiv_pos_site_id
 _symmetry_equiv_pos_as_xyz
  1  'x, y, z'
loop_
 _atom_site_type_symbol
 _atom_site_label
 _atom_site_symmetry_multiplicity
 _atom_site_fract_x
 _atom_site_fract_y
 _atom_site_fract_z
 _atom_site_occupancy
  Th  Th0  1  0.671759  0.171759  0.500000  1
  Th  Th1  1  0.324168  0.824168  0.500000  1
  Th  Th2  1  0.175227  0.330312  0.500000  1
  Th  Th3  1  0.830312  0.675227  0.500000  1
  Tl  Tl4  1  0.999613  0.004985  0.000000  1
  Tl  Tl5  1  0.504985  0.499613  0.000000  1
  Pd  Pd6  1  0.869287  0.369287  0.000000  1
  Pd  Pd7  1  0.627354  0.871857  0.000000  1
  Pd  Pd8  1  0.371857  0.127354  0.000000  1
  Pt  Pt9  1  0.125437  0.625437  0.000000  1
