# generated using pymatgen
data_Er3Mg2InIrPb2
_symmetry_space_group_name_H-M   'P 1'
_cell_length_a   7.51233017
_cell_length_b   7.51233049
_cell_length_c   4.48345300
_cell_angle_alpha   90.00000000
_cell_angle_beta   90.00000000
_cell_angle_gamma   119.73609733
_symmetry_Int_Tables_number   1
_chemical_formula_structural   Er3Mg2InIrPb2
_chemical_formula_sum   'Er3 Mg2 In1 Ir1 Pb2'
_cell_volume   219.70572606
_cell_formula_units_Z   1
loop_
 _symmetry_equiv_pos_site_id
 _symmetry_equiv_pos_as_xyz
  1  'x, y, z'
loop_
 _atom_site_type_symbol
 _atom_site_label
 _atom_site_symmetry_multiplicity
 _atom_site_fract_x
 _atom_site_fract_y
 _atom_site_fract_z
 _atom_site_occupancy
  Er  Er0  1  0.388233  0.388233  0.500000  1
  Er  Er1  1  0.612815  0.998938  0.500000  1
  Er  Er2  1  0.998938  0.612815  0.500000  1
  Mg  Mg3  1  0.228427  0.004516  0.000000  1
  Mg  Mg4  1  0.004516  0.228427  0.000000  1
  In  In5  1  0.773141  0.773141  0.000000  1
  Ir  Ir6  1  0.003337  0.003337  0.500000  1
  Pb  Pb7  1  0.665324  0.325271  0.000000  1
  Pb  Pb8  1  0.325271  0.665324  0.000000  1
