# generated using pymatgen
data_La2Pr2As7Ir8
_symmetry_space_group_name_H-M   'P 1'
_cell_length_a   4.16055000
_cell_length_b   13.29452344
_cell_length_c   13.70076501
_cell_angle_alpha   81.78826600
_cell_angle_beta   90.00000000
_cell_angle_gamma   90.00000000
_symmetry_Int_Tables_number   1
_chemical_formula_structural   La2Pr2As7Ir8
_chemical_formula_sum   'La4 Pr4 As14 Ir16'
_cell_volume   750.05399961
_cell_formula_units_Z   2
loop_
 _symmetry_equiv_pos_site_id
 _symmetry_equiv_pos_as_xyz
  1  'x, y, z'
loop_
 _atom_site_type_symbol
 _atom_site_label
 _atom_site_symmetry_multiplicity
 _atom_site_fract_x
 _atom_site_fract_y
 _atom_site_fract_z
 _atom_site_occupancy
  La  La0  1  0.250000  0.100611  0.793715  1
  La  La1  1  0.750000  0.899389  0.206285  1
  La  La2  1  0.250000  0.287600  0.104558  1
  La  La3  1  0.750000  0.712400  0.895442  1
  Pr  Pr4  1  0.250000  0.518738  0.293037  1
  Pr  Pr5  1  0.750000  0.481262  0.706963  1
  Pr  Pr6  1  0.250000  0.209322  0.437375  1
  Pr  Pr7  1  0.750000  0.790678  0.562625  1
  As  As8  1  0.250000  0.058722  0.098900  1
  As  As9  1  0.750000  0.941278  0.901100  1
  As  As10  1  0.250000  0.312350  0.687134  1
  As  As11  1  0.750000  0.687650  0.312866  1
  As  As12  1  0.250000  0.607040  0.566252  1
  As  As13  1  0.750000  0.392960  0.433748  1
  As  As14  1  0.250000  0.848924  0.719816  1
  As  As15  1  0.750000  0.151076  0.280184  1
  As  As16  1  0.750000  0.255965  0.917607  1
  As  As17  1  0.250000  0.744035  0.082393  1
  As  As18  1  0.750000  0.095921  0.586576  1
  As  As19  1  0.250000  0.904079  0.413424  1
  As  As20  1  0.750000  0.472142  0.127899  1
  As  As21  1  0.250000  0.527858  0.872101  1
  Ir  Ir22  1  0.250000  0.988618  0.573682  1
  Ir  Ir23  1  0.750000  0.011382  0.426318  1
  Ir  Ir24  1  0.250000  0.665564  0.733479  1
  Ir  Ir25  1  0.750000  0.334436  0.266521  1
  Ir  Ir26  1  0.250000  0.554952  0.046518  1
  Ir  Ir27  1  0.750000  0.445048  0.953482  1
  Ir  Ir28  1  0.250000  0.053208  0.278718  1
  Ir  Ir29  1  0.750000  0.946792  0.721282  1
  Ir  Ir30  1  0.250000  0.425657  0.525978  1
  Ir  Ir31  1  0.750000  0.574343  0.474022  1
  Ir  Ir32  1  0.250000  0.919942  0.997976  1
  Ir  Ir33  1  0.750000  0.080058  0.002024  1
  Ir  Ir34  1  0.250000  0.721522  0.401691  1
  Ir  Ir35  1  0.750000  0.278478  0.598309  1
  Ir  Ir36  1  0.250000  0.343610  0.860577  1
  Ir  Ir37  1  0.750000  0.656390  0.139423  1
