# generated using pymatgen
data_Be7Co3Ni2(Mo6C)2
_symmetry_space_group_name_H-M   'P 1'
_cell_length_a   7.54661267
_cell_length_b   7.54437323
_cell_length_c   7.54661250
_cell_angle_alpha   59.94850138
_cell_angle_beta   59.98845802
_cell_angle_gamma   59.94850230
_symmetry_Int_Tables_number   1
_chemical_formula_structural   Be7Co3Ni2(Mo6C)2
_chemical_formula_sum   'Be7 Co3 Ni2 Mo12 C2'
_cell_volume   303.55399232
_cell_formula_units_Z   1
loop_
 _symmetry_equiv_pos_site_id
 _symmetry_equiv_pos_as_xyz
  1  'x, y, z'
loop_
 _atom_site_type_symbol
 _atom_site_label
 _atom_site_symmetry_multiplicity
 _atom_site_fract_x
 _atom_site_fract_y
 _atom_site_fract_z
 _atom_site_occupancy
  Be  Be0  1  0.329200  0.328856  0.015761  1
  Be  Be1  1  0.327630  0.327043  0.327630  1
  Be  Be2  1  0.231515  0.923962  0.921692  1
  Be  Be3  1  0.922506  0.924673  0.922506  1
  Be  Be4  1  0.015761  0.328856  0.329200  1
  Be  Be5  1  0.329965  0.008378  0.329965  1
  Be  Be6  1  0.921692  0.923962  0.231515  1
  Co  Co7  1  0.124599  0.625241  0.124599  1
  Co  Co8  1  0.131476  0.118281  0.618237  1
  Co  Co9  1  0.618237  0.118281  0.131476  1
  Ni  Ni10  1  0.131251  0.120520  0.131251  1
  Ni  Ni11  1  0.917436  0.244932  0.917436  1
  Mo  Mo12  1  0.299928  0.699258  0.701258  1
  Mo  Mo13  1  0.701258  0.699258  0.299928  1
  Mo  Mo14  1  0.700282  0.298623  0.700282  1
  Mo  Mo15  1  0.301021  0.696235  0.301021  1
  Mo  Mo16  1  0.548827  0.952173  0.548827  1
  Mo  Mo17  1  0.551137  0.952148  0.947626  1
  Mo  Mo18  1  0.950288  0.553604  0.546672  1
  Mo  Mo19  1  0.949696  0.554059  0.949696  1
  Mo  Mo20  1  0.301889  0.298557  0.699756  1
  Mo  Mo21  1  0.546672  0.553604  0.950288  1
  Mo  Mo22  1  0.947626  0.952148  0.551137  1
  Mo  Mo23  1  0.699756  0.298557  0.301889  1
  C  C24  1  0.500821  0.498117  0.500821  1
  C  C25  1  0.749534  0.750679  0.749534  1
