# generated using pymatgen
data_Y11(Lu3Bi4)3
_symmetry_space_group_name_H-M   'P 1'
_cell_length_a   8.18908765
_cell_length_b   9.44744504
_cell_length_c   12.00256285
_cell_angle_alpha   89.99428246
_cell_angle_beta   90.09174532
_cell_angle_gamma   89.99130577
_symmetry_Int_Tables_number   1
_chemical_formula_structural   Y11(Lu3Bi4)3
_chemical_formula_sum   'Y11 Lu9 Bi12'
_cell_volume   928.58853817
_cell_formula_units_Z   1
loop_
 _symmetry_equiv_pos_site_id
 _symmetry_equiv_pos_as_xyz
  1  'x, y, z'
loop_
 _atom_site_type_symbol
 _atom_site_label
 _atom_site_symmetry_multiplicity
 _atom_site_fract_x
 _atom_site_fract_y
 _atom_site_fract_z
 _atom_site_occupancy
  Y  Y0  1  0.185248  0.749406  0.719042  1
  Y  Y1  1  0.685479  0.749581  0.781651  1
  Y  Y2  1  0.814708  0.249467  0.281234  1
  Y  Y3  1  0.314022  0.249931  0.218959  1
  Y  Y4  1  0.192614  0.939368  0.440007  1
  Y  Y5  1  0.309362  0.061565  0.941631  1
  Y  Y6  1  0.806949  0.439246  0.559926  1
  Y  Y7  1  0.354572  0.749318  0.215330  1
  Y  Y8  1  0.851818  0.748380  0.282832  1
  Y  Y9  1  0.646030  0.249145  0.784257  1
  Y  Y10  1  0.146899  0.249133  0.716297  1
  Lu  Lu11  1  0.022133  0.749410  0.989640  1
  Lu  Lu12  1  0.523191  0.749927  0.510346  1
  Lu  Lu13  1  0.976690  0.249284  0.010315  1
  Lu  Lu14  1  0.476830  0.249661  0.489453  1
  Lu  Lu15  1  0.308090  0.431098  0.941303  1
  Lu  Lu16  1  0.808641  0.069087  0.559172  1
  Lu  Lu17  1  0.691150  0.931811  0.058296  1
  Lu  Lu18  1  0.191574  0.569109  0.440864  1
  Lu  Lu19  1  0.693091  0.565330  0.059175  1
  Bi  Bi20  1  0.434444  0.003186  0.671683  1
  Bi  Bi21  1  0.934461  0.495518  0.828719  1
  Bi  Bi22  1  0.565834  0.503282  0.328115  1
  Bi  Bi23  1  0.065519  0.995493  0.171512  1
  Bi  Bi24  1  0.567306  0.995823  0.328515  1
  Bi  Bi25  1  0.066221  0.503368  0.170804  1
  Bi  Bi26  1  0.432992  0.495734  0.671363  1
  Bi  Bi27  1  0.932903  0.003398  0.828868  1
  Bi  Bi28  1  0.404252  0.743935  0.957312  1
  Bi  Bi29  1  0.904622  0.755577  0.542012  1
  Bi  Bi30  1  0.597088  0.249904  0.043648  1
  Bi  Bi31  1  0.095267  0.255527  0.457717  1
