# generated using pymatgen
data_Er4CdPbAu4
_symmetry_space_group_name_H-M   'P 1'
_cell_length_a   8.03860500
_cell_length_b   8.03860500
_cell_length_c   7.27456200
_cell_angle_alpha   90.00000000
_cell_angle_beta   90.00000000
_cell_angle_gamma   90.00000000
_symmetry_Int_Tables_number   1
_chemical_formula_structural   Er4CdPbAu4
_chemical_formula_sum   'Er8 Cd2 Pb2 Au8'
_cell_volume   470.07616107
_cell_formula_units_Z   2
loop_
 _symmetry_equiv_pos_site_id
 _symmetry_equiv_pos_as_xyz
  1  'x, y, z'
loop_
 _atom_site_type_symbol
 _atom_site_label
 _atom_site_symmetry_multiplicity
 _atom_site_fract_x
 _atom_site_fract_y
 _atom_site_fract_z
 _atom_site_occupancy
  Er  Er0  1  0.182600  0.182600  0.000000  1
  Er  Er1  1  0.317400  0.682600  0.500000  1
  Er  Er2  1  0.682600  0.317400  0.500000  1
  Er  Er3  1  0.817400  0.817400  0.000000  1
  Er  Er4  1  0.342981  0.657019  0.000000  1
  Er  Er5  1  0.657019  0.342981  0.000000  1
  Er  Er6  1  0.842981  0.842981  0.500000  1
  Er  Er7  1  0.157019  0.157019  0.500000  1
  Cd  Cd8  1  0.000000  0.500000  0.750000  1
  Cd  Cd9  1  0.500000  0.000000  0.250000  1
  Pb  Pb10  1  0.000000  0.500000  0.250000  1
  Pb  Pb11  1  0.500000  0.000000  0.750000  1
  Au  Au12  1  0.123256  0.867394  0.775158  1
  Au  Au13  1  0.867394  0.123256  0.224842  1
  Au  Au14  1  0.376744  0.367394  0.275158  1
  Au  Au15  1  0.632606  0.623256  0.724842  1
  Au  Au16  1  0.623256  0.632606  0.275158  1
  Au  Au17  1  0.876744  0.132606  0.775158  1
  Au  Au18  1  0.367394  0.376744  0.724842  1
  Au  Au19  1  0.132606  0.876744  0.224842  1
