# generated using pymatgen
data_HfMgSc(TaN2)3
_symmetry_space_group_name_H-M   'P 1'
_cell_length_a   5.30706600
_cell_length_b   5.30706602
_cell_length_c   10.62007700
_cell_angle_alpha   90.00000000
_cell_angle_beta   90.00000000
_cell_angle_gamma   119.99999987
_symmetry_Int_Tables_number   1
_chemical_formula_structural   HfMgSc(TaN2)3
_chemical_formula_sum   'Hf2 Mg2 Sc2 Ta6 N12'
_cell_volume   259.04026571
_cell_formula_units_Z   2
loop_
 _symmetry_equiv_pos_site_id
 _symmetry_equiv_pos_as_xyz
  1  'x, y, z'
loop_
 _atom_site_type_symbol
 _atom_site_label
 _atom_site_symmetry_multiplicity
 _atom_site_fract_x
 _atom_site_fract_y
 _atom_site_fract_z
 _atom_site_occupancy
  Hf  Hf0  1  0.000000  0.000000  0.500000  1
  Hf  Hf1  1  0.000000  0.000000  0.000000  1
  Mg  Mg2  1  0.666667  0.333333  0.500000  1
  Mg  Mg3  1  0.666667  0.333333  0.000000  1
  Sc  Sc4  1  0.333333  0.666667  0.000000  1
  Sc  Sc5  1  0.333333  0.666667  0.500000  1
  Ta  Ta6  1  0.000329  0.335465  0.250000  1
  Ta  Ta7  1  0.664535  0.999671  0.750000  1
  Ta  Ta8  1  0.335137  0.335465  0.750000  1
  Ta  Ta9  1  0.664535  0.664863  0.250000  1
  Ta  Ta10  1  0.335137  0.999671  0.250000  1
  Ta  Ta11  1  0.000329  0.664863  0.750000  1
  N  N12  1  0.668665  0.666166  0.623024  1
  N  N13  1  0.668665  0.666166  0.876976  1
  N  N14  1  0.333834  0.331335  0.123024  1
  N  N15  1  0.333834  0.331335  0.376976  1
  N  N16  1  0.333834  0.002499  0.876976  1
  N  N17  1  0.333834  0.002499  0.623024  1
  N  N18  1  0.997501  0.666166  0.376976  1
  N  N19  1  0.997501  0.666166  0.123024  1
  N  N20  1  0.668665  0.002499  0.123024  1
  N  N21  1  0.668665  0.002499  0.376976  1
  N  N22  1  0.997501  0.331335  0.876976  1
  N  N23  1  0.997501  0.331335  0.623024  1
