# generated using pymatgen
data_Zr6Zn17PPt6
_symmetry_space_group_name_H-M   'P 1'
_cell_length_a   8.82248104
_cell_length_b   8.82248113
_cell_length_c   8.82248200
_cell_angle_alpha   60.00000424
_cell_angle_beta   60.00000388
_cell_angle_gamma   60.00000295
_symmetry_Int_Tables_number   1
_chemical_formula_structural   Zr6Zn17PPt6
_chemical_formula_sum   'Zr6 Zn17 P1 Pt6'
_cell_volume   485.57608714
_cell_formula_units_Z   1
loop_
 _symmetry_equiv_pos_site_id
 _symmetry_equiv_pos_as_xyz
  1  'x, y, z'
loop_
 _atom_site_type_symbol
 _atom_site_label
 _atom_site_symmetry_multiplicity
 _atom_site_fract_x
 _atom_site_fract_y
 _atom_site_fract_z
 _atom_site_occupancy
  Zr  Zr0  1  0.707772  0.292228  0.292228  1
  Zr  Zr1  1  0.292228  0.707772  0.707772  1
  Zr  Zr2  1  0.292228  0.707772  0.292228  1
  Zr  Zr3  1  0.707772  0.292228  0.707772  1
  Zr  Zr4  1  0.292228  0.292228  0.707772  1
  Zr  Zr5  1  0.707772  0.707772  0.292228  1
  Zn  Zn6  1  0.123557  0.123557  0.123557  1
  Zn  Zn7  1  0.876443  0.876443  0.876443  1
  Zn  Zn8  1  0.123557  0.123557  0.629330  1
  Zn  Zn9  1  0.123557  0.629330  0.123557  1
  Zn  Zn10  1  0.876443  0.876443  0.370670  1
  Zn  Zn11  1  0.876443  0.370670  0.876443  1
  Zn  Zn12  1  0.629330  0.123557  0.123557  1
  Zn  Zn13  1  0.370670  0.876443  0.876443  1
  Zn  Zn14  1  0.338599  0.338599  0.338599  1
  Zn  Zn15  1  0.661401  0.661401  0.661401  1
  Zn  Zn16  1  0.338599  0.338599  0.984205  1
  Zn  Zn17  1  0.338599  0.984205  0.338599  1
  Zn  Zn18  1  0.661401  0.661401  0.015795  1
  Zn  Zn19  1  0.661401  0.015795  0.661401  1
  Zn  Zn20  1  0.984205  0.338599  0.338599  1
  Zn  Zn21  1  0.015795  0.661401  0.661401  1
  Zn  Zn22  1  0.000000  0.000000  0.000000  1
  P  P23  1  0.500000  0.500000  0.500000  1
  Pt  Pt24  1  0.500000  0.000000  0.000000  1
  Pt  Pt25  1  0.000000  0.500000  0.500000  1
  Pt  Pt26  1  0.000000  0.500000  0.000000  1
  Pt  Pt27  1  0.500000  0.000000  0.500000  1
  Pt  Pt28  1  0.000000  0.000000  0.500000  1
  Pt  Pt29  1  0.500000  0.500000  0.000000  1
