# generated using pymatgen
data_Cd4TeW3O16
_symmetry_space_group_name_H-M   'P 1'
_cell_length_a   7.87740191
_cell_length_b   7.87740130
_cell_length_c   5.21359495
_cell_angle_alpha   88.43539507
_cell_angle_beta   88.43540081
_cell_angle_gamma   99.31251081
_symmetry_Int_Tables_number   1
_chemical_formula_structural   Cd4TeW3O16
_chemical_formula_sum   'Cd4 Te1 W3 O16'
_cell_volume   318.97361503
_cell_formula_units_Z   1
loop_
 _symmetry_equiv_pos_site_id
 _symmetry_equiv_pos_as_xyz
  1  'x, y, z'
loop_
 _atom_site_type_symbol
 _atom_site_label
 _atom_site_symmetry_multiplicity
 _atom_site_fract_x
 _atom_site_fract_y
 _atom_site_fract_z
 _atom_site_occupancy
  Cd  Cd0  1  0.594071  0.916996  0.502831  1
  Cd  Cd1  1  0.083004  0.405929  0.497169  1
  Cd  Cd2  1  0.407911  0.095939  0.999858  1
  Cd  Cd3  1  0.904061  0.592089  0.000142  1
  Te  Te4  1  0.579855  0.420145  0.500000  1
  W  W5  1  0.415268  0.584732  0.000000  1
  W  W6  1  0.917007  0.082993  0.000000  1
  W  W7  1  0.085488  0.914512  0.500000  1
  O  O8  1  0.441853  0.805490  0.872002  1
  O  O9  1  0.942399  0.303531  0.868200  1
  O  O10  1  0.696469  0.057601  0.131800  1
  O  O11  1  0.194510  0.558147  0.127998  1
  O  O12  1  0.562012  0.195607  0.641665  1
  O  O13  1  0.062278  0.693903  0.634592  1
  O  O14  1  0.306097  0.937722  0.365408  1
  O  O15  1  0.804393  0.437988  0.358335  1
  O  O16  1  0.149937  0.049091  0.803534  1
  O  O17  1  0.648203  0.553471  0.803402  1
  O  O18  1  0.446529  0.351797  0.196598  1
  O  O19  1  0.950909  0.850063  0.196466  1
  O  O20  1  0.852073  0.947401  0.696144  1
  O  O21  1  0.350600  0.447524  0.692584  1
  O  O22  1  0.552476  0.649400  0.307416  1
  O  O23  1  0.052599  0.147927  0.303856  1
