# generated using pymatgen
data_Ti4SiP3Rh4
_symmetry_space_group_name_H-M   'P 1'
_cell_length_a   3.72305900
_cell_length_b   6.26701378
_cell_length_c   7.25865762
_cell_angle_alpha   90.14201409
_cell_angle_beta   90.00000000
_cell_angle_gamma   90.00000000
_symmetry_Int_Tables_number   1
_chemical_formula_structural   Ti4SiP3Rh4
_chemical_formula_sum   'Ti4 Si1 P3 Rh4'
_cell_volume   169.36183308
_cell_formula_units_Z   1
loop_
 _symmetry_equiv_pos_site_id
 _symmetry_equiv_pos_as_xyz
  1  'x, y, z'
loop_
 _atom_site_type_symbol
 _atom_site_label
 _atom_site_symmetry_multiplicity
 _atom_site_fract_x
 _atom_site_fract_y
 _atom_site_fract_z
 _atom_site_occupancy
  Ti  Ti0  1  0.750000  0.027757  0.179596  1
  Ti  Ti1  1  0.750000  0.528246  0.324208  1
  Ti  Ti2  1  0.250000  0.473073  0.673421  1
  Ti  Ti3  1  0.250000  0.966906  0.822582  1
  Si  Si4  1  0.750000  0.261954  0.876847  1
  P  P5  1  0.250000  0.243255  0.376502  1
  P  P6  1  0.750000  0.757236  0.623734  1
  P  P7  1  0.250000  0.740035  0.123735  1
  Rh  Rh8  1  0.750000  0.146614  0.562298  1
  Rh  Rh9  1  0.250000  0.353254  0.065851  1
  Rh  Rh10  1  0.750000  0.651104  0.935910  1
  Rh  Rh11  1  0.250000  0.850567  0.435316  1
