# generated using pymatgen
data_CsPtRhS4
_symmetry_space_group_name_H-M   'P 1'
_cell_length_a   6.27982500
_cell_length_b   7.24232700
_cell_length_c   16.05040700
_cell_angle_alpha   90.00000000
_cell_angle_beta   90.00000000
_cell_angle_gamma   90.00000000
_symmetry_Int_Tables_number   1
_chemical_formula_structural   CsPtRhS4
_chemical_formula_sum   'Cs4 Pt4 Rh4 S16'
_cell_volume   729.98127633
_cell_formula_units_Z   4
loop_
 _symmetry_equiv_pos_site_id
 _symmetry_equiv_pos_as_xyz
  1  'x, y, z'
loop_
 _atom_site_type_symbol
 _atom_site_label
 _atom_site_symmetry_multiplicity
 _atom_site_fract_x
 _atom_site_fract_y
 _atom_site_fract_z
 _atom_site_occupancy
  Cs  Cs0  1  0.354855  0.000000  0.000000  1
  Cs  Cs1  1  0.645145  0.500000  0.500000  1
  Cs  Cs2  1  0.029340  0.000000  0.500000  1
  Cs  Cs3  1  0.970660  0.500000  0.000000  1
  Pt  Pt4  1  0.500000  0.250000  0.250000  1
  Pt  Pt5  1  0.500000  0.750000  0.750000  1
  Pt  Pt6  1  0.500000  0.750000  0.250000  1
  Pt  Pt7  1  0.500000  0.250000  0.750000  1
  Rh  Rh8  1  0.001570  0.000000  0.250178  1
  Rh  Rh9  1  0.001570  0.000000  0.749822  1
  Rh  Rh10  1  0.998430  0.500000  0.249822  1
  Rh  Rh11  1  0.998430  0.500000  0.750178  1
  S  S12  1  0.835352  0.250040  0.324854  1
  S  S13  1  0.835352  0.749960  0.675146  1
  S  S14  1  0.164648  0.750040  0.175146  1
  S  S15  1  0.164648  0.249960  0.824854  1
  S  S16  1  0.164648  0.249960  0.175146  1
  S  S17  1  0.164648  0.750040  0.824854  1
  S  S18  1  0.835352  0.749960  0.324854  1
  S  S19  1  0.835352  0.250040  0.675146  1
  S  S20  1  0.672629  0.000000  0.176223  1
  S  S21  1  0.672629  0.000000  0.823777  1
  S  S22  1  0.327371  0.500000  0.323777  1
  S  S23  1  0.327371  0.500000  0.676223  1
  S  S24  1  0.335281  0.000000  0.323957  1
  S  S25  1  0.335281  0.000000  0.676043  1
  S  S26  1  0.664719  0.500000  0.176043  1
  S  S27  1  0.664719  0.500000  0.823957  1
