# generated using pymatgen
data_CdRe4Hg7O20
_symmetry_space_group_name_H-M   'P 1'
_cell_length_a   8.14095480
_cell_length_b   9.63157877
_cell_length_c   9.53567544
_cell_angle_alpha   118.95252204
_cell_angle_beta   101.11254364
_cell_angle_gamma   88.93430560
_symmetry_Int_Tables_number   1
_chemical_formula_structural   CdRe4Hg7O20
_chemical_formula_sum   'Cd1 Re4 Hg7 O20'
_cell_volume   639.54743778
_cell_formula_units_Z   1
loop_
 _symmetry_equiv_pos_site_id
 _symmetry_equiv_pos_as_xyz
  1  'x, y, z'
loop_
 _atom_site_type_symbol
 _atom_site_label
 _atom_site_symmetry_multiplicity
 _atom_site_fract_x
 _atom_site_fract_y
 _atom_site_fract_z
 _atom_site_occupancy
  Cd  Cd0  1  0.499999  0.999984  0.500000  1
  Re  Re1  1  0.285248  0.667612  0.021696  1
  Re  Re2  1  0.886136  0.754161  0.466437  1
  Re  Re3  1  0.113881  0.245892  0.533541  1
  Re  Re4  1  0.714756  0.332374  0.978311  1
  Hg  Hg5  1  0.999990  0.999974  0.999991  1
  Hg  Hg6  1  0.300372  0.325015  0.185542  1
  Hg  Hg7  1  0.663377  0.042107  0.198652  1
  Hg  Hg8  1  0.366396  0.614179  0.424952  1
  Hg  Hg9  1  0.633605  0.385790  0.575067  1
  Hg  Hg10  1  0.336615  0.957862  0.801357  1
  Hg  Hg11  1  0.699617  0.674941  0.814483  1
  O  O12  1  0.245685  0.070799  0.014419  1
  O  O13  1  0.702852  0.534044  0.038656  1
  O  O14  1  0.924761  0.296591  0.027183  1
  O  O15  1  0.595146  0.275212  0.080350  1
  O  O16  1  0.364315  0.783549  0.236229  1
  O  O17  1  0.013272  0.155951  0.324983  1
  O  O18  1  0.040788  0.705934  0.350953  1
  O  O19  1  0.541490  0.148810  0.386221  1
  O  O20  1  0.754179  0.888010  0.432020  1
  O  O21  1  0.766722  0.581024  0.414631  1
  O  O22  1  0.233284  0.418958  0.585324  1
  O  O23  1  0.245807  0.111988  0.567881  1
  O  O24  1  0.458496  0.851162  0.613779  1
  O  O25  1  0.959242  0.294088  0.648979  1
  O  O26  1  0.986759  0.844136  0.675010  1
  O  O27  1  0.635682  0.216515  0.763889  1
  O  O28  1  0.404837  0.724778  0.919702  1
  O  O29  1  0.075240  0.703370  0.972787  1
  O  O30  1  0.297155  0.466027  0.961384  1
  O  O31  1  0.754299  0.929164  0.985593  1
