# generated using pymatgen
data_Dy2Ho4MnFeB14
_symmetry_space_group_name_H-M   'P 1'
_cell_length_a   8.00962976
_cell_length_b   8.00962991
_cell_length_c   9.26728103
_cell_angle_alpha   89.92598186
_cell_angle_beta   90.07401780
_cell_angle_gamma   155.31056062
_symmetry_Int_Tables_number   1
_chemical_formula_structural   Dy2Ho4MnFeB14
_chemical_formula_sum   'Dy2 Ho4 Mn1 Fe1 B14'
_cell_volume   248.33670649
_cell_formula_units_Z   1
loop_
 _symmetry_equiv_pos_site_id
 _symmetry_equiv_pos_as_xyz
  1  'x, y, z'
loop_
 _atom_site_type_symbol
 _atom_site_label
 _atom_site_symmetry_multiplicity
 _atom_site_fract_x
 _atom_site_fract_y
 _atom_site_fract_z
 _atom_site_occupancy
  Dy  Dy0  1  0.895287  0.104713  0.438088  1
  Dy  Dy1  1  0.104696  0.895304  0.560098  1
  Ho  Ho2  1  0.895353  0.104647  0.061341  1
  Ho  Ho3  1  0.104667  0.895333  0.940421  1
  Ho  Ho4  1  0.241454  0.758546  0.249987  1
  Ho  Ho5  1  0.758184  0.241816  0.750099  1
  Mn  Mn6  1  0.053268  0.946732  0.249311  1
  Fe  Fe7  1  0.945894  0.054106  0.750451  1
  B  B8  1  0.727837  0.272163  0.467263  1
  B  B9  1  0.272727  0.727273  0.533654  1
  B  B10  1  0.727879  0.272121  0.032524  1
  B  B11  1  0.272656  0.727344  0.966285  1
  B  B12  1  0.630292  0.369708  0.152831  1
  B  B13  1  0.370019  0.629981  0.847273  1
  B  B14  1  0.630370  0.369630  0.346650  1
  B  B15  1  0.370051  0.629949  0.653407  1
  B  B16  1  0.521505  0.478495  0.097662  1
  B  B17  1  0.478574  0.521426  0.902511  1
  B  B18  1  0.521610  0.478390  0.401333  1
  B  B19  1  0.478398  0.521602  0.598752  1
  B  B20  1  0.459157  0.540843  0.249373  1
  B  B21  1  0.540122  0.459878  0.750685  1
