# generated using pymatgen
data_HoLu3Ni13C4
_symmetry_space_group_name_H-M   'P 1'
_cell_length_a   8.35294802
_cell_length_b   8.35294801
_cell_length_c   3.83889000
_cell_angle_alpha   90.00000000
_cell_angle_beta   90.00000000
_cell_angle_gamma   91.31794220
_symmetry_Int_Tables_number   1
_chemical_formula_structural   HoLu3Ni13C4
_chemical_formula_sum   'Ho1 Lu3 Ni13 C4'
_cell_volume   267.77517994
_cell_formula_units_Z   1
loop_
 _symmetry_equiv_pos_site_id
 _symmetry_equiv_pos_as_xyz
  1  'x, y, z'
loop_
 _atom_site_type_symbol
 _atom_site_label
 _atom_site_symmetry_multiplicity
 _atom_site_fract_x
 _atom_site_fract_y
 _atom_site_fract_z
 _atom_site_occupancy
  Ho  Ho0  1  0.848207  0.848207  0.000000  1
  Lu  Lu1  1  0.313440  0.686292  0.000000  1
  Lu  Lu2  1  0.686292  0.313440  0.000000  1
  Lu  Lu3  1  0.152455  0.152455  0.000000  1
  Ni  Ni4  1  0.499301  0.499301  0.500000  1
  Ni  Ni5  1  0.716132  0.071723  0.500000  1
  Ni  Ni6  1  0.284755  0.929881  0.500000  1
  Ni  Ni7  1  0.929881  0.284755  0.500000  1
  Ni  Ni8  1  0.071723  0.716132  0.500000  1
  Ni  Ni9  1  0.497566  0.001301  0.000000  1
  Ni  Ni10  1  0.001301  0.497566  0.000000  1
  Ni  Ni11  1  0.572865  0.790606  0.500000  1
  Ni  Ni12  1  0.424650  0.208568  0.500000  1
  Ni  Ni13  1  0.208568  0.424650  0.500000  1
  Ni  Ni14  1  0.790606  0.572865  0.500000  1
  Ni  Ni15  1  0.621951  0.621951  0.000000  1
  Ni  Ni16  1  0.376322  0.376322  0.000000  1
  C  C17  1  0.501069  0.000137  0.500000  1
  C  C18  1  0.000137  0.501069  0.500000  1
  C  C19  1  0.944471  0.058308  0.500000  1
  C  C20  1  0.058308  0.944471  0.500000  1
