# generated using pymatgen
data_Pr5NdAl18(Tc3Os4)2
_symmetry_space_group_name_H-M   'P 1'
_cell_length_a   8.92087505
_cell_length_b   8.92087624
_cell_length_c   9.72627900
_cell_angle_alpha   90.00000000
_cell_angle_beta   90.00000000
_cell_angle_gamma   120.01187426
_symmetry_Int_Tables_number   1
_chemical_formula_structural   Pr5NdAl18(Tc3Os4)2
_chemical_formula_sum   'Pr5 Nd1 Al18 Tc6 Os8'
_cell_volume   670.25544146
_cell_formula_units_Z   1
loop_
 _symmetry_equiv_pos_site_id
 _symmetry_equiv_pos_as_xyz
  1  'x, y, z'
loop_
 _atom_site_type_symbol
 _atom_site_label
 _atom_site_symmetry_multiplicity
 _atom_site_fract_x
 _atom_site_fract_y
 _atom_site_fract_z
 _atom_site_occupancy
  Pr  Pr0  1  0.194670  0.389363  0.250000  1
  Pr  Pr1  1  0.805343  0.610444  0.750000  1
  Pr  Pr2  1  0.610637  0.805330  0.250000  1
  Pr  Pr3  1  0.389556  0.194657  0.750000  1
  Pr  Pr4  1  0.194693  0.805307  0.250000  1
  Nd  Nd5  1  0.805137  0.194863  0.750000  1
  Al  Al6  1  0.333314  0.666686  0.005889  1
  Al  Al7  1  0.666780  0.333220  0.993817  1
  Al  Al8  1  0.666780  0.333220  0.506183  1
  Al  Al9  1  0.333314  0.666686  0.494111  1
  Al  Al10  1  0.165532  0.331522  0.575880  1
  Al  Al11  1  0.834193  0.668394  0.424282  1
  Al  Al12  1  0.668478  0.834468  0.575880  1
  Al  Al13  1  0.834193  0.668394  0.075718  1
  Al  Al14  1  0.331606  0.165807  0.424282  1
  Al  Al15  1  0.165532  0.331522  0.924120  1
  Al  Al16  1  0.165826  0.834174  0.575792  1
  Al  Al17  1  0.331606  0.165807  0.075718  1
  Al  Al18  1  0.834207  0.165793  0.424498  1
  Al  Al19  1  0.668478  0.834468  0.924120  1
  Al  Al20  1  0.834207  0.165793  0.075502  1
  Al  Al21  1  0.165826  0.834174  0.924208  1
  Al  Al22  1  0.999997  0.000003  0.250000  1
  Al  Al23  1  0.999815  0.000185  0.750000  1
  Tc  Tc24  1  0.574584  0.149142  0.250000  1
  Tc  Tc25  1  0.425748  0.851161  0.750000  1
  Tc  Tc26  1  0.850858  0.425416  0.250000  1
  Tc  Tc27  1  0.148839  0.574252  0.750000  1
  Tc  Tc28  1  0.574557  0.425443  0.250000  1
  Tc  Tc29  1  0.425477  0.574523  0.750000  1
  Os  Os30  1  0.500266  0.000132  0.999734  1
  Os  Os31  1  0.999868  0.499734  0.999734  1
  Os  Os32  1  0.500266  0.000132  0.500266  1
  Os  Os33  1  0.500009  0.499991  0.999943  1
  Os  Os34  1  0.999868  0.499734  0.500266  1
  Os  Os35  1  0.500009  0.499991  0.500057  1
  Os  Os36  1  0.999965  0.000035  0.999940  1
  Os  Os37  1  0.999965  0.000035  0.500060  1
