# generated using pymatgen
data_Yb3Dy(OsC2)2
_symmetry_space_group_name_H-M   'P 1'
_cell_length_a   5.13107300
_cell_length_b   6.44231360
_cell_length_c   10.15187536
_cell_angle_alpha   90.51261209
_cell_angle_beta   90.00000000
_cell_angle_gamma   90.00000000
_symmetry_Int_Tables_number   1
_chemical_formula_structural   Yb3Dy(OsC2)2
_chemical_formula_sum   'Yb6 Dy2 Os4 C8'
_cell_volume   335.56677194
_cell_formula_units_Z   2
loop_
 _symmetry_equiv_pos_site_id
 _symmetry_equiv_pos_as_xyz
  1  'x, y, z'
loop_
 _atom_site_type_symbol
 _atom_site_label
 _atom_site_symmetry_multiplicity
 _atom_site_fract_x
 _atom_site_fract_y
 _atom_site_fract_z
 _atom_site_occupancy
  Yb  Yb0  1  0.750000  0.805297  0.051512  1
  Yb  Yb1  1  0.250000  0.194703  0.948488  1
  Yb  Yb2  1  0.250000  0.533098  0.221158  1
  Yb  Yb3  1  0.750000  0.466902  0.778842  1
  Yb  Yb4  1  0.750000  0.969113  0.728368  1
  Yb  Yb5  1  0.250000  0.030887  0.271632  1
  Dy  Dy6  1  0.250000  0.686704  0.553060  1
  Dy  Dy7  1  0.750000  0.313296  0.446940  1
  Os  Os8  1  0.250000  0.729638  0.854881  1
  Os  Os9  1  0.750000  0.270362  0.145119  1
  Os  Os10  1  0.750000  0.772771  0.355776  1
  Os  Os11  1  0.250000  0.227229  0.644224  1
  C  C12  1  0.250000  0.467035  0.756028  1
  C  C13  1  0.750000  0.532965  0.243972  1
  C  C14  1  0.750000  0.036049  0.262140  1
  C  C15  1  0.250000  0.963951  0.737860  1
  C  C16  1  0.250000  0.798300  0.032053  1
  C  C17  1  0.750000  0.201700  0.967947  1
  C  C18  1  0.750000  0.687280  0.534909  1
  C  C19  1  0.250000  0.312720  0.465091  1
