# generated using pymatgen
data_HoTm2Cd3Sn2Au
_symmetry_space_group_name_H-M   'P 1'
_cell_length_a   7.43152478
_cell_length_b   7.43152331
_cell_length_c   4.51360000
_cell_angle_alpha   90.00000000
_cell_angle_beta   90.00000000
_cell_angle_gamma   120.05246999
_symmetry_Int_Tables_number   1
_chemical_formula_structural   HoTm2Cd3Sn2Au
_chemical_formula_sum   'Ho1 Tm2 Cd3 Sn2 Au1'
_cell_volume   215.76431100
_cell_formula_units_Z   1
loop_
 _symmetry_equiv_pos_site_id
 _symmetry_equiv_pos_as_xyz
  1  'x, y, z'
loop_
 _atom_site_type_symbol
 _atom_site_label
 _atom_site_symmetry_multiplicity
 _atom_site_fract_x
 _atom_site_fract_y
 _atom_site_fract_z
 _atom_site_occupancy
  Ho  Ho0  1  0.406389  0.406389  0.000000  1
  Tm  Tm1  1  0.594025  0.000038  0.000000  1
  Tm  Tm2  1  0.000038  0.594025  0.000000  1
  Cd  Cd3  1  0.240420  0.999890  0.500000  1
  Cd  Cd4  1  0.999890  0.240420  0.500000  1
  Cd  Cd5  1  0.759621  0.759621  0.500000  1
  Sn  Sn6  1  0.333150  0.666992  0.500000  1
  Sn  Sn7  1  0.666992  0.333150  0.500000  1
  Au  Au8  1  0.999474  0.999474  0.000000  1
