# generated using pymatgen
data_ThSc2Fe9
_symmetry_space_group_name_H-M   'P 1'
_cell_length_a   8.58188878
_cell_length_b   8.58188884
_cell_length_c   8.58189051
_cell_angle_alpha   33.90635490
_cell_angle_beta   33.90635145
_cell_angle_gamma   33.90635099
_symmetry_Int_Tables_number   1
_chemical_formula_structural   ThSc2Fe9
_chemical_formula_sum   'Th1 Sc2 Fe9'
_cell_volume   175.28993112
_cell_formula_units_Z   1
loop_
 _symmetry_equiv_pos_site_id
 _symmetry_equiv_pos_as_xyz
  1  'x, y, z'
loop_
 _atom_site_type_symbol
 _atom_site_label
 _atom_site_symmetry_multiplicity
 _atom_site_fract_x
 _atom_site_fract_y
 _atom_site_fract_z
 _atom_site_occupancy
  Th  Th0  1  0.000000  0.000000  0.000000  1
  Sc  Sc1  1  0.855889  0.855889  0.855889  1
  Sc  Sc2  1  0.144111  0.144111  0.144111  1
  Fe  Fe3  1  0.413497  0.915413  0.413497  1
  Fe  Fe4  1  0.413497  0.413497  0.915413  1
  Fe  Fe5  1  0.915413  0.413497  0.413497  1
  Fe  Fe6  1  0.586503  0.084587  0.586503  1
  Fe  Fe7  1  0.586503  0.586503  0.084587  1
  Fe  Fe8  1  0.084587  0.586503  0.586503  1
  Fe  Fe9  1  0.667631  0.667631  0.667631  1
  Fe  Fe10  1  0.332369  0.332369  0.332369  1
  Fe  Fe11  1  0.500000  0.500000  0.500000  1
