# generated using pymatgen
data_Ce2NiP4Os3
_symmetry_space_group_name_H-M   'P 1'
_cell_length_a   4.16053700
_cell_length_b   4.16053700
_cell_length_c   9.31357200
_cell_angle_alpha   90.00000000
_cell_angle_beta   90.00000000
_cell_angle_gamma   90.00000000
_symmetry_Int_Tables_number   1
_chemical_formula_structural   Ce2NiP4Os3
_chemical_formula_sum   'Ce2 Ni1 P4 Os3'
_cell_volume   161.21856584
_cell_formula_units_Z   1
loop_
 _symmetry_equiv_pos_site_id
 _symmetry_equiv_pos_as_xyz
  1  'x, y, z'
loop_
 _atom_site_type_symbol
 _atom_site_label
 _atom_site_symmetry_multiplicity
 _atom_site_fract_x
 _atom_site_fract_y
 _atom_site_fract_z
 _atom_site_occupancy
  Ce  Ce0  1  0.000000  0.500000  0.237064  1
  Ce  Ce1  1  0.500000  0.000000  0.757458  1
  Ni  Ni2  1  0.500000  0.000000  0.117377  1
  P  P3  1  0.000000  0.000000  0.006911  1
  P  P4  1  0.500000  0.500000  0.006911  1
  P  P5  1  0.000000  0.500000  0.630027  1
  P  P6  1  0.500000  0.000000  0.366608  1
  Os  Os7  1  0.000000  0.000000  0.495049  1
  Os  Os8  1  0.500000  0.500000  0.495049  1
  Os  Os9  1  0.000000  0.500000  0.887548  1
