# generated using pymatgen
data_Nd5Y(RuBr3)2
_symmetry_space_group_name_H-M   'P 1'
_cell_length_a   4.19448000
_cell_length_b   9.01244575
_cell_length_c   12.13285952
_cell_angle_alpha   87.59908463
_cell_angle_beta   90.00000000
_cell_angle_gamma   90.00000000
_symmetry_Int_Tables_number   1
_chemical_formula_structural   Nd5Y(RuBr3)2
_chemical_formula_sum   'Nd5 Y1 Ru2 Br6'
_cell_volume   458.25008362
_cell_formula_units_Z   1
loop_
 _symmetry_equiv_pos_site_id
 _symmetry_equiv_pos_as_xyz
  1  'x, y, z'
loop_
 _atom_site_type_symbol
 _atom_site_label
 _atom_site_symmetry_multiplicity
 _atom_site_fract_x
 _atom_site_fract_y
 _atom_site_fract_z
 _atom_site_occupancy
  Nd  Nd0  1  0.250000  0.311776  0.379372  1
  Nd  Nd1  1  0.750000  0.688809  0.616164  1
  Nd  Nd2  1  0.250000  0.893609  0.379756  1
  Nd  Nd3  1  0.750000  0.110655  0.619733  1
  Nd  Nd4  1  0.250000  0.882429  0.838788  1
  Y  Y5  1  0.750000  0.116888  0.164951  1
  Ru  Ru6  1  0.250000  0.899523  0.618015  1
  Ru  Ru7  1  0.750000  0.102852  0.382833  1
  Br  Br8  1  0.250000  0.405287  0.627041  1
  Br  Br9  1  0.750000  0.596175  0.368707  1
  Br  Br10  1  0.250000  0.892614  0.113932  1
  Br  Br11  1  0.750000  0.114761  0.895353  1
  Br  Br12  1  0.250000  0.336715  0.124394  1
  Br  Br13  1  0.750000  0.647905  0.870962  1
