# generated using pymatgen
data_Ac3P6Ir5Os
_symmetry_space_group_name_H-M   'P 1'
_cell_length_a   6.83881517
_cell_length_b   6.85681614
_cell_length_c   7.25265221
_cell_angle_alpha   90.59211616
_cell_angle_beta   89.55091555
_cell_angle_gamma   119.93785051
_symmetry_Int_Tables_number   1
_chemical_formula_structural   Ac3P6Ir5Os
_chemical_formula_sum   'Ac3 P6 Ir5 Os1'
_cell_volume   294.69802510
_cell_formula_units_Z   1
loop_
 _symmetry_equiv_pos_site_id
 _symmetry_equiv_pos_as_xyz
  1  'x, y, z'
loop_
 _atom_site_type_symbol
 _atom_site_label
 _atom_site_symmetry_multiplicity
 _atom_site_fract_x
 _atom_site_fract_y
 _atom_site_fract_z
 _atom_site_occupancy
  Ac  Ac0  1  0.397157  0.395916  0.499960  1
  Ac  Ac1  1  0.603668  0.000487  0.168773  1
  Ac  Ac2  1  0.001848  0.604212  0.831384  1
  P  P3  1  0.870125  0.207568  0.549493  1
  P  P4  1  0.207637  0.869928  0.450229  1
  P  P5  1  0.129342  0.346202  0.121633  1
  P  P6  1  0.791397  0.663608  0.213130  1
  P  P7  1  0.345935  0.129571  0.879022  1
  P  P8  1  0.663328  0.790704  0.786170  1
  Ir  Ir9  1  0.131866  0.005740  0.164395  1
  Ir  Ir10  1  0.501616  0.502603  0.999402  1
  Ir  Ir11  1  0.989248  0.493074  0.336660  1
  Ir  Ir12  1  0.494251  0.990407  0.664292  1
  Ir  Ir13  1  0.004895  0.132016  0.835635  1
  Os  Os14  1  0.867685  0.867963  0.499824  1
