# generated using pymatgen
data_Nb6AlSiC2
_symmetry_space_group_name_H-M   'P 1'
_cell_length_a   5.58699260
_cell_length_b   5.58699337
_cell_length_c   8.42686200
_cell_angle_alpha   90.00000000
_cell_angle_beta   90.00000000
_cell_angle_gamma   145.41033795
_symmetry_Int_Tables_number   1
_chemical_formula_structural   Nb6AlSiC2
_chemical_formula_sum   'Nb6 Al1 Si1 C2'
_cell_volume   149.32666599
_cell_formula_units_Z   1
loop_
 _symmetry_equiv_pos_site_id
 _symmetry_equiv_pos_as_xyz
  1  'x, y, z'
loop_
 _atom_site_type_symbol
 _atom_site_label
 _atom_site_symmetry_multiplicity
 _atom_site_fract_x
 _atom_site_fract_y
 _atom_site_fract_z
 _atom_site_occupancy
  Nb  Nb0  1  0.631018  0.368984  0.045847  1
  Nb  Nb1  1  0.952481  0.047521  0.250000  1
  Nb  Nb2  1  0.631018  0.368984  0.454153  1
  Nb  Nb3  1  0.365553  0.634449  0.558610  1
  Nb  Nb4  1  0.058927  0.941075  0.750000  1
  Nb  Nb5  1  0.365553  0.634449  0.941391  1
  Al  Al6  1  0.252336  0.747666  0.250000  1
  Si  Si7  1  0.745070  0.254932  0.750000  1
  C  C8  1  0.999027  0.000973  0.997740  1
  C  C9  1  0.999027  0.000973  0.502260  1
