# generated using pymatgen
data_PuFe3CoSb12
_symmetry_space_group_name_H-M   'P 1'
_cell_length_a   7.91800772
_cell_length_b   7.92638598
_cell_length_c   7.91800889
_cell_angle_alpha   109.49265156
_cell_angle_beta   109.44977229
_cell_angle_gamma   109.49266679
_symmetry_Int_Tables_number   1
_chemical_formula_structural   PuFe3CoSb12
_chemical_formula_sum   'Pu1 Fe3 Co1 Sb12'
_cell_volume   382.44612412
_cell_formula_units_Z   1
loop_
 _symmetry_equiv_pos_site_id
 _symmetry_equiv_pos_as_xyz
  1  'x, y, z'
loop_
 _atom_site_type_symbol
 _atom_site_label
 _atom_site_symmetry_multiplicity
 _atom_site_fract_x
 _atom_site_fract_y
 _atom_site_fract_z
 _atom_site_occupancy
  Pu  Pu0  1  0.000000  0.000000  0.000000  1
  Fe  Fe1  1  0.000000  0.000000  0.500000  1
  Fe  Fe2  1  0.500000  0.000000  0.000000  1
  Fe  Fe3  1  0.500000  0.500000  0.500000  1
  Co  Co4  1  0.000000  0.500000  0.000000  1
  Sb  Sb5  1  0.162507  0.829365  0.666810  1
  Sb  Sb6  1  0.837493  0.170635  0.333190  1
  Sb  Sb7  1  0.665463  0.160715  0.827806  1
  Sb  Sb8  1  0.504303  0.666857  0.837493  1
  Sb  Sb9  1  0.666810  0.837445  0.504303  1
  Sb  Sb10  1  0.495697  0.333143  0.162507  1
  Sb  Sb11  1  0.334537  0.839285  0.172194  1
  Sb  Sb12  1  0.172194  0.332910  0.837657  1
  Sb  Sb13  1  0.827806  0.667090  0.162343  1
  Sb  Sb14  1  0.333190  0.162555  0.495697  1
  Sb  Sb15  1  0.837657  0.504747  0.665463  1
  Sb  Sb16  1  0.162343  0.495253  0.334537  1
