# generated using pymatgen
data_Ho9Th3Tc4
_symmetry_space_group_name_H-M   'P 1'
_cell_length_a   6.33989181
_cell_length_b   7.38342934
_cell_length_c   9.38036800
_cell_angle_alpha   90.00000000
_cell_angle_beta   90.00000000
_cell_angle_gamma   90.30831312
_symmetry_Int_Tables_number   1
_chemical_formula_structural   Ho9Th3Tc4
_chemical_formula_sum   'Ho9 Th3 Tc4'
_cell_volume   439.09001167
_cell_formula_units_Z   1
loop_
 _symmetry_equiv_pos_site_id
 _symmetry_equiv_pos_as_xyz
  1  'x, y, z'
loop_
 _atom_site_type_symbol
 _atom_site_label
 _atom_site_symmetry_multiplicity
 _atom_site_fract_x
 _atom_site_fract_y
 _atom_site_fract_z
 _atom_site_occupancy
  Ho  Ho0  1  0.333860  0.676632  0.064681  1
  Ho  Ho1  1  0.166548  0.172822  0.434876  1
  Ho  Ho2  1  0.666576  0.325156  0.568210  1
  Ho  Ho3  1  0.831408  0.826544  0.931431  1
  Ho  Ho4  1  0.666576  0.325156  0.931790  1
  Ho  Ho5  1  0.831408  0.826544  0.568569  1
  Ho  Ho6  1  0.333860  0.676632  0.435319  1
  Ho  Ho7  1  0.166548  0.172822  0.065124  1
  Ho  Ho8  1  0.366670  0.957308  0.750000  1
  Th  Th9  1  0.857965  0.550102  0.250000  1
  Th  Th10  1  0.641962  0.050089  0.250000  1
  Th  Th11  1  0.142695  0.452031  0.750000  1
  Tc  Tc12  1  0.016659  0.872195  0.250000  1
  Tc  Tc13  1  0.482352  0.370883  0.250000  1
  Tc  Tc14  1  0.977433  0.130509  0.750000  1
  Tc  Tc15  1  0.517480  0.614574  0.750000  1
