# generated using pymatgen
data_Sc2Ta4FeB4Ru9
_symmetry_space_group_name_H-M   'P 1'
_cell_length_a   9.36269747
_cell_length_b   9.36269730
_cell_length_c   3.07128600
_cell_angle_alpha   90.00000000
_cell_angle_beta   90.00000000
_cell_angle_gamma   89.66773080
_symmetry_Int_Tables_number   1
_chemical_formula_structural   Sc2Ta4FeB4Ru9
_chemical_formula_sum   'Sc2 Ta4 Fe1 B4 Ru9'
_cell_volume   269.22471771
_cell_formula_units_Z   1
loop_
 _symmetry_equiv_pos_site_id
 _symmetry_equiv_pos_as_xyz
  1  'x, y, z'
loop_
 _atom_site_type_symbol
 _atom_site_label
 _atom_site_symmetry_multiplicity
 _atom_site_fract_x
 _atom_site_fract_y
 _atom_site_fract_z
 _atom_site_occupancy
  Sc  Sc0  1  0.823730  0.676270  0.000000  1
  Sc  Sc1  1  0.176270  0.323730  0.000000  1
  Ta  Ta2  1  0.329805  0.829805  0.000000  1
  Ta  Ta3  1  0.670195  0.170195  0.000000  1
  Ta  Ta4  1  0.500000  0.500000  0.000000  1
  Ta  Ta5  1  0.000000  0.000000  0.000000  1
  Fe  Fe6  1  0.500000  0.000000  0.500000  1
  B  B7  1  0.613403  0.886597  0.000000  1
  B  B8  1  0.386597  0.113403  0.000000  1
  B  B9  1  0.120257  0.620257  0.000000  1
  B  B10  1  0.879743  0.379743  0.000000  1
  Ru  Ru11  1  0.561051  0.726546  0.500000  1
  Ru  Ru12  1  0.438949  0.273454  0.500000  1
  Ru  Ru13  1  0.077618  0.785209  0.500000  1
  Ru  Ru14  1  0.922382  0.214791  0.500000  1
  Ru  Ru15  1  0.285209  0.577618  0.500000  1
  Ru  Ru16  1  0.714791  0.422382  0.500000  1
  Ru  Ru17  1  0.226546  0.061051  0.500000  1
  Ru  Ru18  1  0.773454  0.938949  0.500000  1
  Ru  Ru19  1  0.000000  0.500000  0.500000  1
