# generated using pymatgen
data_Yb7SmSb6
_symmetry_space_group_name_H-M   'P 1'
_cell_length_a   8.20888181
_cell_length_b   8.20888168
_cell_length_c   8.16047300
_cell_angle_alpha   109.35180855
_cell_angle_beta   109.35180823
_cell_angle_gamma   109.59036894
_symmetry_Int_Tables_number   1
_chemical_formula_structural   Yb7SmSb6
_chemical_formula_sum   'Yb7 Sm1 Sb6'
_cell_volume   423.93506479
_cell_formula_units_Z   1
loop_
 _symmetry_equiv_pos_site_id
 _symmetry_equiv_pos_as_xyz
  1  'x, y, z'
loop_
 _atom_site_type_symbol
 _atom_site_label
 _atom_site_symmetry_multiplicity
 _atom_site_fract_x
 _atom_site_fract_y
 _atom_site_fract_z
 _atom_site_occupancy
  Yb  Yb0  1  0.649733  0.650305  0.650274  1
  Yb  Yb1  1  0.004534  0.356006  0.500616  1
  Yb  Yb2  1  0.351472  0.495466  0.996083  1
  Yb  Yb3  1  0.000572  0.850267  0.500541  1
  Yb  Yb4  1  0.849695  0.499428  0.999970  1
  Yb  Yb5  1  0.500000  0.000000  0.851496  1
  Yb  Yb6  1  0.143994  0.148528  0.144611  1
  Sm  Sm7  1  0.500000  0.000000  0.355086  1
  Sb  Sb8  1  0.873592  0.126330  0.746684  1
  Sb  Sb9  1  0.373670  0.247262  0.620355  1
  Sb  Sb10  1  0.129538  0.754203  0.881644  1
  Sb  Sb11  1  0.745797  0.875335  0.127441  1
  Sb  Sb12  1  0.252738  0.626408  0.373093  1
  Sb  Sb13  1  0.624665  0.370462  0.252106  1
