# generated using pymatgen
data_Th2Cu3NiP4
_symmetry_space_group_name_H-M   'P 1'
_cell_length_a   3.84136600
_cell_length_b   8.92172354
_cell_length_c   9.84577579
_cell_angle_alpha   90.08394800
_cell_angle_beta   90.00000000
_cell_angle_gamma   90.00000000
_symmetry_Int_Tables_number   1
_chemical_formula_structural   Th2Cu3NiP4
_chemical_formula_sum   'Th4 Cu6 Ni2 P8'
_cell_volume   337.43018129
_cell_formula_units_Z   2
loop_
 _symmetry_equiv_pos_site_id
 _symmetry_equiv_pos_as_xyz
  1  'x, y, z'
loop_
 _atom_site_type_symbol
 _atom_site_label
 _atom_site_symmetry_multiplicity
 _atom_site_fract_x
 _atom_site_fract_y
 _atom_site_fract_z
 _atom_site_occupancy
  Th  Th0  1  0.250000  0.254319  0.681284  1
  Th  Th1  1  0.750000  0.745681  0.318716  1
  Th  Th2  1  0.250000  0.749109  0.813782  1
  Th  Th3  1  0.750000  0.250891  0.186218  1
  Cu  Cu4  1  0.750000  0.079157  0.456121  1
  Cu  Cu5  1  0.250000  0.920843  0.543879  1
  Cu  Cu6  1  0.750000  0.573008  0.048203  1
  Cu  Cu7  1  0.250000  0.426992  0.951797  1
  Cu  Cu8  1  0.250000  0.946306  0.101930  1
  Cu  Cu9  1  0.750000  0.053694  0.898070  1
  Ni  Ni10  1  0.250000  0.450102  0.402638  1
  Ni  Ni11  1  0.750000  0.549898  0.597362  1
  P  P12  1  0.250000  0.170979  0.969130  1
  P  P13  1  0.750000  0.829021  0.030870  1
  P  P14  1  0.250000  0.659014  0.534427  1
  P  P15  1  0.750000  0.340986  0.465573  1
  P  P16  1  0.250000  0.521678  0.183306  1
  P  P17  1  0.750000  0.478322  0.816694  1
  P  P18  1  0.250000  0.027617  0.323158  1
  P  P19  1  0.750000  0.972383  0.676842  1
