# generated using pymatgen
data_Hf9Zr9Nb3Re5O6
_symmetry_space_group_name_H-M   'P 1'
_cell_length_a   8.64480758
_cell_length_b   8.65232894
_cell_length_c   8.49216240
_cell_angle_alpha   89.85095176
_cell_angle_beta   90.05189209
_cell_angle_gamma   120.01700353
_symmetry_Int_Tables_number   1
_chemical_formula_structural   Hf9Zr9Nb3Re5O6
_chemical_formula_sum   'Hf9 Zr9 Nb3 Re5 O6'
_cell_volume   549.99827059
_cell_formula_units_Z   1
loop_
 _symmetry_equiv_pos_site_id
 _symmetry_equiv_pos_as_xyz
  1  'x, y, z'
loop_
 _atom_site_type_symbol
 _atom_site_label
 _atom_site_symmetry_multiplicity
 _atom_site_fract_x
 _atom_site_fract_y
 _atom_site_fract_z
 _atom_site_occupancy
  Hf  Hf0  1  0.453217  0.906118  0.249644  1
  Hf  Hf1  1  0.546283  0.091650  0.750273  1
  Hf  Hf2  1  0.092035  0.546506  0.249904  1
  Hf  Hf3  1  0.907095  0.453965  0.750241  1
  Hf  Hf4  1  0.454825  0.547157  0.250105  1
  Hf  Hf5  1  0.546984  0.454852  0.750009  1
  Hf  Hf6  1  0.594560  0.797271  0.938010  1
  Hf  Hf7  1  0.795044  0.204025  0.060349  1
  Hf  Hf8  1  0.203277  0.797243  0.937935  1
  Zr  Zr9  1  0.204917  0.410439  0.565576  1
  Zr  Zr10  1  0.796262  0.592733  0.436792  1
  Zr  Zr11  1  0.591695  0.796024  0.564485  1
  Zr  Zr12  1  0.795905  0.591566  0.064088  1
  Zr  Zr13  1  0.411765  0.205581  0.438610  1
  Zr  Zr14  1  0.207016  0.414011  0.933804  1
  Zr  Zr15  1  0.204001  0.795787  0.564748  1
  Zr  Zr16  1  0.413652  0.206466  0.062190  1
  Zr  Zr17  1  0.793031  0.206168  0.436667  1
  Nb  Nb18  1  0.108449  0.218230  0.249328  1
  Nb  Nb19  1  0.999548  0.998943  0.997608  1
  Nb  Nb20  1  0.998952  0.998598  0.502377  1
  Re  Re21  1  0.888222  0.776240  0.751375  1
  Re  Re22  1  0.772324  0.883943  0.248177  1
  Re  Re23  1  0.224532  0.110923  0.750565  1
  Re  Re24  1  0.109691  0.882726  0.248854  1
  Re  Re25  1  0.886146  0.111314  0.751367  1
  O  O26  1  0.499747  0.995692  0.998259  1
  O  O27  1  0.999575  0.501028  0.998809  1
  O  O28  1  0.498897  0.998197  0.500034  1
  O  O29  1  0.502173  0.505005  0.998078  1
  O  O30  1  0.999216  0.500678  0.500821  1
  O  O31  1  0.500963  0.500923  0.500916  1
