# generated using pymatgen
data_Ho4GeAs5Ir7
_symmetry_space_group_name_H-M   'P 1'
_cell_length_a   7.28485483
_cell_length_b   7.28485497
_cell_length_c   7.28485456
_cell_angle_alpha   108.98136694
_cell_angle_beta   109.71670680
_cell_angle_gamma   109.71670509
_symmetry_Int_Tables_number   1
_chemical_formula_structural   Ho4GeAs5Ir7
_chemical_formula_sum   'Ho4 Ge1 As5 Ir7'
_cell_volume   297.58906741
_cell_formula_units_Z   1
loop_
 _symmetry_equiv_pos_site_id
 _symmetry_equiv_pos_as_xyz
  1  'x, y, z'
loop_
 _atom_site_type_symbol
 _atom_site_label
 _atom_site_symmetry_multiplicity
 _atom_site_fract_x
 _atom_site_fract_y
 _atom_site_fract_z
 _atom_site_occupancy
  Ho  Ho0  1  0.000000  0.000480  0.499453  1
  Ho  Ho1  1  0.000000  0.499453  0.000480  1
  Ho  Ho2  1  0.501027  0.000480  0.000480  1
  Ho  Ho3  1  0.498973  0.499453  0.499453  1
  Ge  Ge4  1  0.000000  0.681979  0.681979  1
  As  As5  1  0.682411  0.681204  0.998793  1
  As  As6  1  0.317589  0.998793  0.316382  1
  As  As7  1  0.000000  0.323814  0.323814  1
  As  As8  1  0.317589  0.316382  0.998793  1
  As  As9  1  0.682411  0.998793  0.681204  1
  Ir  Ir10  1  0.748842  0.251120  0.502278  1
  Ir  Ir11  1  0.748842  0.502278  0.251120  1
  Ir  Ir12  1  0.500000  0.250069  0.750069  1
  Ir  Ir13  1  0.251158  0.502278  0.753436  1
  Ir  Ir14  1  0.251158  0.753436  0.502278  1
  Ir  Ir15  1  0.500000  0.750069  0.250069  1
  Ir  Ir16  1  0.000000  0.989917  0.989917  1
