# generated using pymatgen
data_DyY3(HoBi)6
_symmetry_space_group_name_H-M   'P 1'
_cell_length_a   8.24682200
_cell_length_b   9.49569300
_cell_length_c   12.06175400
_cell_angle_alpha   90.00000000
_cell_angle_beta   90.00000000
_cell_angle_gamma   90.00000000
_symmetry_Int_Tables_number   1
_chemical_formula_structural   DyY3(HoBi)6
_chemical_formula_sum   'Dy2 Y6 Ho12 Bi12'
_cell_volume   944.54739114
_cell_formula_units_Z   2
loop_
 _symmetry_equiv_pos_site_id
 _symmetry_equiv_pos_as_xyz
  1  'x, y, z'
loop_
 _atom_site_type_symbol
 _atom_site_label
 _atom_site_symmetry_multiplicity
 _atom_site_fract_x
 _atom_site_fract_y
 _atom_site_fract_z
 _atom_site_occupancy
  Dy  Dy0  1  0.186327  0.750000  0.718963  1
  Dy  Dy1  1  0.686327  0.750000  0.781037  1
  Y  Y2  1  0.813705  0.250000  0.280993  1
  Y  Y3  1  0.313705  0.250000  0.219007  1
  Y  Y4  1  0.353790  0.750000  0.215274  1
  Y  Y5  1  0.853790  0.750000  0.284726  1
  Y  Y6  1  0.646203  0.250000  0.784707  1
  Y  Y7  1  0.146203  0.250000  0.715293  1
  Ho  Ho8  1  0.026026  0.750000  0.988822  1
  Ho  Ho9  1  0.526026  0.750000  0.511178  1
  Ho  Ho10  1  0.974011  0.250000  0.010957  1
  Ho  Ho11  1  0.474011  0.250000  0.489043  1
  Ho  Ho12  1  0.306254  0.436544  0.940120  1
  Ho  Ho13  1  0.806254  0.063456  0.559880  1
  Ho  Ho14  1  0.693736  0.936558  0.059797  1
  Ho  Ho15  1  0.193736  0.563442  0.440203  1
  Ho  Ho16  1  0.693736  0.563442  0.059797  1
  Ho  Ho17  1  0.193736  0.936558  0.440203  1
  Ho  Ho18  1  0.306254  0.063456  0.940120  1
  Ho  Ho19  1  0.806254  0.436544  0.559880  1
  Bi  Bi20  1  0.433573  0.003664  0.673500  1
  Bi  Bi21  1  0.933573  0.496336  0.826500  1
  Bi  Bi22  1  0.566397  0.503750  0.326561  1
  Bi  Bi23  1  0.066397  0.996250  0.173439  1
  Bi  Bi24  1  0.566397  0.996250  0.326561  1
  Bi  Bi25  1  0.066397  0.503750  0.173439  1
  Bi  Bi26  1  0.433573  0.496336  0.673500  1
  Bi  Bi27  1  0.933573  0.003664  0.826500  1
  Bi  Bi28  1  0.409300  0.750000  0.958040  1
  Bi  Bi29  1  0.909300  0.750000  0.541960  1
  Bi  Bi30  1  0.590718  0.250000  0.041868  1
  Bi  Bi31  1  0.090718  0.250000  0.458132  1
