# generated using pymatgen
data_Tb2HoPu5(PS)8
_symmetry_space_group_name_H-M   'P 1'
_cell_length_a   5.35049500
_cell_length_b   5.42424123
_cell_length_c   16.44209409
_cell_angle_alpha   89.95528333
_cell_angle_beta   90.00000000
_cell_angle_gamma   90.00000000
_symmetry_Int_Tables_number   1
_chemical_formula_structural   Tb2HoPu5(PS)8
_chemical_formula_sum   'Tb2 Ho1 Pu5 P8 S8'
_cell_volume   477.18848515
_cell_formula_units_Z   1
loop_
 _symmetry_equiv_pos_site_id
 _symmetry_equiv_pos_as_xyz
  1  'x, y, z'
loop_
 _atom_site_type_symbol
 _atom_site_label
 _atom_site_symmetry_multiplicity
 _atom_site_fract_x
 _atom_site_fract_y
 _atom_site_fract_z
 _atom_site_occupancy
  Tb  Tb0  1  0.750000  0.985171  0.354595  1
  Tb  Tb1  1  0.750000  0.485167  0.146161  1
  Ho  Ho2  1  0.250000  0.514203  0.852784  1
  Pu  Pu3  1  0.250000  0.486109  0.364408  1
  Pu  Pu4  1  0.250000  0.985500  0.136860  1
  Pu  Pu5  1  0.750000  0.513751  0.635331  1
  Pu  Pu6  1  0.750000  0.013390  0.861113  1
  Pu  Pu7  1  0.250000  0.016607  0.648708  1
  P  P8  1  0.035972  0.293065  0.996184  1
  P  P9  1  0.464211  0.792667  0.504222  1
  P  P10  1  0.535602  0.707886  0.001499  1
  P  P11  1  0.965848  0.206277  0.498923  1
  P  P12  1  0.964398  0.707886  0.001499  1
  P  P13  1  0.534152  0.206277  0.498923  1
  P  P14  1  0.464028  0.293065  0.996184  1
  P  P15  1  0.035789  0.792667  0.504222  1
  S  S16  1  0.250000  0.486246  0.187204  1
  S  S17  1  0.250000  0.986675  0.313614  1
  S  S18  1  0.750000  0.513105  0.812232  1
  S  S19  1  0.750000  0.012678  0.684568  1
  S  S20  1  0.250000  0.010473  0.820548  1
  S  S21  1  0.250000  0.513030  0.679113  1
  S  S22  1  0.750000  0.989057  0.180579  1
  S  S23  1  0.750000  0.489044  0.320525  1
