# generated using pymatgen
data_LaTm2Th(Ga3Rh)6
_symmetry_space_group_name_H-M   'P 1'
_cell_length_a   7.63784222
_cell_length_b   7.63281090
_cell_length_c   9.53969100
_cell_angle_alpha   90.00000000
_cell_angle_beta   90.00000000
_cell_angle_gamma   119.62486903
_symmetry_Int_Tables_number   1
_chemical_formula_structural   LaTm2Th(Ga3Rh)6
_chemical_formula_sum   'La1 Tm2 Th1 Ga18 Rh6'
_cell_volume   483.44759936
_cell_formula_units_Z   1
loop_
 _symmetry_equiv_pos_site_id
 _symmetry_equiv_pos_as_xyz
  1  'x, y, z'
loop_
 _atom_site_type_symbol
 _atom_site_label
 _atom_site_symmetry_multiplicity
 _atom_site_fract_x
 _atom_site_fract_y
 _atom_site_fract_z
 _atom_site_occupancy
  La  La0  1  0.669670  0.996764  0.250000  1
  Tm  Tm1  1  0.001408  0.330127  0.750000  1
  Tm  Tm2  1  0.329996  0.001456  0.750000  1
  Th  Th3  1  0.996887  0.669114  0.250000  1
  Ga  Ga4  1  0.131090  0.130584  0.250000  1
  Ga  Ga5  1  0.877357  0.878452  0.750000  1
  Ga  Ga6  1  0.004491  0.333212  0.072618  1
  Ga  Ga7  1  0.000818  0.664757  0.912770  1
  Ga  Ga8  1  0.000818  0.664757  0.587230  1
  Ga  Ga9  1  0.336397  0.005732  0.427263  1
  Ga  Ga10  1  0.004491  0.333212  0.427382  1
  Ga  Ga11  1  0.664970  0.001446  0.585409  1
  Ga  Ga12  1  0.664970  0.001446  0.914591  1
  Ga  Ga13  1  0.336397  0.005732  0.072737  1
  Ga  Ga14  1  0.330763  0.330619  0.569314  1
  Ga  Ga15  1  0.662604  0.664226  0.445462  1
  Ga  Ga16  1  0.662604  0.664226  0.054538  1
  Ga  Ga17  1  0.330763  0.330619  0.930686  1
  Ga  Ga18  1  0.338118  0.543201  0.250000  1
  Ga  Ga19  1  0.659856  0.449364  0.750000  1
  Ga  Ga20  1  0.543430  0.338865  0.250000  1
  Ga  Ga21  1  0.449233  0.661058  0.750000  1
  Rh  Rh22  1  0.673488  0.331157  0.998915  1
  Rh  Rh23  1  0.326483  0.670882  0.998653  1
  Rh  Rh24  1  0.326483  0.670882  0.501347  1
  Rh  Rh25  1  0.673488  0.331157  0.501085  1
  Rh  Rh26  1  0.001464  0.998476  0.998743  1
  Rh  Rh27  1  0.001464  0.998476  0.501257  1
