# generated using pymatgen
data_Y5Ho5(In2Pt)4
_symmetry_space_group_name_H-M   'P 1'
_cell_length_a   3.62218700
_cell_length_b   8.16484670
_cell_length_c   18.28646305
_cell_angle_alpha   89.97187344
_cell_angle_beta   90.00000000
_cell_angle_gamma   90.00000000
_symmetry_Int_Tables_number   1
_chemical_formula_structural   Y5Ho5(In2Pt)4
_chemical_formula_sum   'Y5 Ho5 In8 Pt4'
_cell_volume   540.81479372
_cell_formula_units_Z   1
loop_
 _symmetry_equiv_pos_site_id
 _symmetry_equiv_pos_as_xyz
  1  'x, y, z'
loop_
 _atom_site_type_symbol
 _atom_site_label
 _atom_site_symmetry_multiplicity
 _atom_site_fract_x
 _atom_site_fract_y
 _atom_site_fract_z
 _atom_site_occupancy
  Y  Y0  1  0.000000  0.117133  0.415147  1
  Y  Y1  1  0.000000  0.882822  0.584759  1
  Y  Y2  1  0.000000  0.382861  0.915448  1
  Y  Y3  1  0.000000  0.999308  0.000205  1
  Y  Y4  1  0.000000  0.500092  0.499951  1
  Ho  Ho5  1  0.000000  0.616631  0.085634  1
  Ho  Ho6  1  0.000000  0.243681  0.220767  1
  Ho  Ho7  1  0.000000  0.756278  0.779092  1
  Ho  Ho8  1  0.000000  0.256321  0.720914  1
  Ho  Ho9  1  0.000000  0.743951  0.279095  1
  In  In10  1  0.500000  0.424883  0.351177  1
  In  In11  1  0.500000  0.575257  0.648763  1
  In  In12  1  0.500000  0.075330  0.851308  1
  In  In13  1  0.500000  0.924486  0.148677  1
  In  In14  1  0.500000  0.292537  0.067226  1
  In  In15  1  0.500000  0.707675  0.932789  1
  In  In16  1  0.500000  0.207938  0.567445  1
  In  In17  1  0.500000  0.792103  0.432530  1
  Pt  Pt18  1  0.500000  0.024250  0.302505  1
  Pt  Pt19  1  0.500000  0.975938  0.697423  1
  Pt  Pt20  1  0.500000  0.475779  0.802668  1
  Pt  Pt21  1  0.500000  0.524742  0.196479  1
