# generated using pymatgen
data_Er8Ti6Nb5Si16W
_symmetry_space_group_name_H-M   'P 1'
_cell_length_a   7.01098184
_cell_length_b   7.01209507
_cell_length_c   12.90683526
_cell_angle_alpha   90.08062424
_cell_angle_beta   89.96250597
_cell_angle_gamma   90.02621277
_symmetry_Int_Tables_number   1
_chemical_formula_structural   Er8Ti6Nb5Si16W
_chemical_formula_sum   'Er8 Ti6 Nb5 Si16 W1'
_cell_volume   634.52076133
_cell_formula_units_Z   1
loop_
 _symmetry_equiv_pos_site_id
 _symmetry_equiv_pos_as_xyz
  1  'x, y, z'
loop_
 _atom_site_type_symbol
 _atom_site_label
 _atom_site_symmetry_multiplicity
 _atom_site_fract_x
 _atom_site_fract_y
 _atom_site_fract_z
 _atom_site_occupancy
  Er  Er0  1  0.341927  0.000774  0.466512  1
  Er  Er1  1  0.498667  0.842285  0.717220  1
  Er  Er2  1  0.500336  0.157937  0.215972  1
  Er  Er3  1  0.840798  0.499455  0.282705  1
  Er  Er4  1  0.158752  0.499933  0.783737  1
  Er  Er5  1  0.656973  0.999353  0.967198  1
  Er  Er6  1  0.000343  0.341809  0.533010  1
  Er  Er7  1  0.000258  0.659212  0.032698  1
  Ti  Ti8  1  0.507713  0.348240  0.625089  1
  Ti  Ti9  1  0.652680  0.490877  0.876692  1
  Ti  Ti10  1  0.348795  0.507709  0.375303  1
  Ti  Ti11  1  0.847627  0.992126  0.373716  1
  Ti  Ti12  1  0.008189  0.152096  0.125109  1
  Ti  Ti13  1  0.991951  0.847577  0.626344  1
  Nb  Nb14  1  0.172112  0.827985  0.249613  1
  Nb  Nb15  1  0.829031  0.171894  0.750735  1
  Nb  Nb16  1  0.671734  0.671067  0.500105  1
  Nb  Nb17  1  0.151698  0.006841  0.874546  1
  Nb  Nb18  1  0.491591  0.652300  0.123078  1
  Si  Si19  1  0.206064  0.132473  0.681719  1
  Si  Si20  1  0.368765  0.702095  0.931431  1
  Si  Si21  1  0.631892  0.295650  0.433467  1
  Si  Si22  1  0.704027  0.365249  0.067313  1
  Si  Si23  1  0.295407  0.631753  0.566771  1
  Si  Si24  1  0.796582  0.869027  0.183185  1
  Si  Si25  1  0.131377  0.204625  0.317301  1
  Si  Si26  1  0.864986  0.793745  0.817318  1
  Si  Si27  1  0.292465  0.956858  0.063702  1
  Si  Si28  1  0.547117  0.793822  0.314436  1
  Si  Si29  1  0.452883  0.210287  0.814608  1
  Si  Si30  1  0.792727  0.546239  0.686446  1
  Si  Si31  1  0.206267  0.450324  0.185267  1
  Si  Si32  1  0.708164  0.046927  0.563346  1
  Si  Si33  1  0.955276  0.295465  0.937252  1
  Si  Si34  1  0.046772  0.707829  0.436790  1
  W  W35  1  0.328058  0.328158  0.000266  1
