# generated using pymatgen
data_Np2B6Mo
_symmetry_space_group_name_H-M   'P 1'
_cell_length_a   3.67264000
_cell_length_b   9.28349100
_cell_length_c   11.32468100
_cell_angle_alpha   90.00000000
_cell_angle_beta   90.00000000
_cell_angle_gamma   90.00000000
_symmetry_Int_Tables_number   1
_chemical_formula_structural   Np2B6Mo
_chemical_formula_sum   'Np8 B24 Mo4'
_cell_volume   386.11409709
_cell_formula_units_Z   4
loop_
 _symmetry_equiv_pos_site_id
 _symmetry_equiv_pos_as_xyz
  1  'x, y, z'
loop_
 _atom_site_type_symbol
 _atom_site_label
 _atom_site_symmetry_multiplicity
 _atom_site_fract_x
 _atom_site_fract_y
 _atom_site_fract_z
 _atom_site_occupancy
  Np  Np0  1  0.000000  0.338586  0.407227  1
  Np  Np1  1  0.000000  0.661414  0.592773  1
  Np  Np2  1  0.000000  0.838586  0.092773  1
  Np  Np3  1  0.000000  0.161414  0.907227  1
  Np  Np4  1  0.000000  0.958691  0.399696  1
  Np  Np5  1  0.000000  0.041309  0.600304  1
  Np  Np6  1  0.000000  0.458691  0.100304  1
  Np  Np7  1  0.000000  0.541309  0.899696  1
  B  B8  1  0.500000  0.551530  0.432461  1
  B  B9  1  0.500000  0.448470  0.567539  1
  B  B10  1  0.500000  0.051530  0.067539  1
  B  B11  1  0.500000  0.948470  0.932461  1
  B  B12  1  0.500000  0.744763  0.424164  1
  B  B13  1  0.500000  0.255237  0.575836  1
  B  B14  1  0.500000  0.244763  0.075836  1
  B  B15  1  0.500000  0.755237  0.924164  1
  B  B16  1  0.500000  0.805753  0.273842  1
  B  B17  1  0.500000  0.194247  0.726158  1
  B  B18  1  0.500000  0.305753  0.226158  1
  B  B19  1  0.500000  0.694247  0.773842  1
  B  B20  1  0.500000  0.645527  0.187022  1
  B  B21  1  0.500000  0.354473  0.812978  1
  B  B22  1  0.500000  0.145527  0.312978  1
  B  B23  1  0.500000  0.854473  0.687022  1
  B  B24  1  0.500000  0.987462  0.220750  1
  B  B25  1  0.500000  0.012538  0.779250  1
  B  B26  1  0.500000  0.487462  0.279250  1
  B  B27  1  0.500000  0.512538  0.720750  1
  B  B28  1  0.500000  0.641135  0.039069  1
  B  B29  1  0.500000  0.358865  0.960931  1
  B  B30  1  0.500000  0.141135  0.460931  1
  B  B31  1  0.500000  0.858865  0.539069  1
  Mo  Mo32  1  0.000000  0.646548  0.319299  1
  Mo  Mo33  1  0.000000  0.353452  0.680701  1
  Mo  Mo34  1  0.000000  0.146548  0.180701  1
  Mo  Mo35  1  0.000000  0.853452  0.819299  1
