# generated using pymatgen
data_Er3Ta(AgS4)2
_symmetry_space_group_name_H-M   'P 1'
_cell_length_a   7.73307400
_cell_length_b   7.84162500
_cell_length_c   11.01930000
_cell_angle_alpha   90.00000000
_cell_angle_beta   90.00000000
_cell_angle_gamma   90.00000000
_symmetry_Int_Tables_number   1
_chemical_formula_structural   Er3Ta(AgS4)2
_chemical_formula_sum   'Er6 Ta2 Ag4 S16'
_cell_volume   668.20887988
_cell_formula_units_Z   2
loop_
 _symmetry_equiv_pos_site_id
 _symmetry_equiv_pos_as_xyz
  1  'x, y, z'
loop_
 _atom_site_type_symbol
 _atom_site_label
 _atom_site_symmetry_multiplicity
 _atom_site_fract_x
 _atom_site_fract_y
 _atom_site_fract_z
 _atom_site_occupancy
  Er  Er0  1  0.736320  0.000000  0.500000  1
  Er  Er1  1  0.736028  0.500000  0.500000  1
  Er  Er2  1  0.263972  0.500000  0.000000  1
  Er  Er3  1  0.000000  0.755822  0.250000  1
  Er  Er4  1  0.263680  0.000000  0.000000  1
  Er  Er5  1  0.000000  0.244178  0.750000  1
  Ta  Ta6  1  0.500000  0.762391  0.250000  1
  Ta  Ta7  1  0.500000  0.237609  0.750000  1
  Ag  Ag8  1  0.759991  0.730868  0.877887  1
  Ag  Ag9  1  0.240009  0.269132  0.377887  1
  Ag  Ag10  1  0.240009  0.730868  0.622113  1
  Ag  Ag11  1  0.759991  0.269132  0.122113  1
  S  S12  1  0.727920  0.983152  0.252644  1
  S  S13  1  0.494345  0.751683  0.473334  1
  S  S14  1  0.727874  0.534206  0.253751  1
  S  S15  1  0.505655  0.248317  0.973334  1
  S  S16  1  0.272126  0.534206  0.246249  1
  S  S17  1  0.029446  0.750729  0.005164  1
  S  S18  1  0.272080  0.983152  0.247356  1
  S  S19  1  0.505655  0.751683  0.026666  1
  S  S20  1  0.272126  0.465794  0.753751  1
  S  S21  1  0.029446  0.249271  0.994836  1
  S  S22  1  0.272080  0.016848  0.752644  1
  S  S23  1  0.970554  0.750729  0.494836  1
  S  S24  1  0.727920  0.016848  0.747356  1
  S  S25  1  0.494345  0.248317  0.526666  1
  S  S26  1  0.727874  0.465794  0.746249  1
  S  S27  1  0.970554  0.249271  0.505164  1
