# generated using pymatgen
data_Dy2Mn8Fe4P7
_symmetry_space_group_name_H-M   'P 1'
_cell_length_a   9.21164628
_cell_length_b   9.18700520
_cell_length_c   3.58264400
_cell_angle_alpha   90.00000000
_cell_angle_beta   90.00000000
_cell_angle_gamma   119.92581938
_symmetry_Int_Tables_number   1
_chemical_formula_structural   Dy2Mn8Fe4P7
_chemical_formula_sum   'Dy2 Mn8 Fe4 P7'
_cell_volume   262.76628997
_cell_formula_units_Z   1
loop_
 _symmetry_equiv_pos_site_id
 _symmetry_equiv_pos_as_xyz
  1  'x, y, z'
loop_
 _atom_site_type_symbol
 _atom_site_label
 _atom_site_symmetry_multiplicity
 _atom_site_fract_x
 _atom_site_fract_y
 _atom_site_fract_z
 _atom_site_occupancy
  Dy  Dy0  1  0.332425  0.665445  0.000000  1
  Dy  Dy1  1  0.999895  0.002471  0.500000  1
  Mn  Mn2  1  0.716863  0.762886  0.000000  1
  Mn  Mn3  1  0.238664  0.954783  0.000000  1
  Mn  Mn4  1  0.103006  0.722252  0.500000  1
  Mn  Mn5  1  0.278086  0.377552  0.500000  1
  Mn  Mn6  1  0.622898  0.898048  0.500000  1
  Mn  Mn7  1  0.770987  0.564827  0.500000  1
  Mn  Mn8  1  0.433591  0.207228  0.500000  1
  Mn  Mn9  1  0.793034  0.230226  0.500000  1
  Fe  Fe10  1  0.044701  0.282757  0.000000  1
  Fe  Fe11  1  0.940053  0.488777  0.000000  1
  Fe  Fe12  1  0.510241  0.451275  0.000000  1
  Fe  Fe13  1  0.549530  0.060232  0.000000  1
  P  P14  1  0.956253  0.742341  0.000000  1
  P  P15  1  0.255262  0.213184  0.000000  1
  P  P16  1  0.788601  0.048393  0.000000  1
  P  P17  1  0.070179  0.450876  0.500000  1
  P  P18  1  0.541838  0.614157  0.500000  1
  P  P19  1  0.387293  0.928767  0.500000  1
  P  P20  1  0.666603  0.333520  0.000000  1
