# generated using pymatgen
data_Sc4Ge2B4IrRh9
_symmetry_space_group_name_H-M   'P 1'
_cell_length_a   9.22635500
_cell_length_b   3.17198500
_cell_length_c   9.22635500
_cell_angle_alpha   90.00000000
_cell_angle_beta   90.07546408
_cell_angle_gamma   90.00000000
_symmetry_Int_Tables_number   1
_chemical_formula_structural   Sc4Ge2B4IrRh9
_chemical_formula_sum   'Sc4 Ge2 B4 Ir1 Rh9'
_cell_volume   270.01697648
_cell_formula_units_Z   1
loop_
 _symmetry_equiv_pos_site_id
 _symmetry_equiv_pos_as_xyz
  1  'x, y, z'
loop_
 _atom_site_type_symbol
 _atom_site_label
 _atom_site_symmetry_multiplicity
 _atom_site_fract_x
 _atom_site_fract_y
 _atom_site_fract_z
 _atom_site_occupancy
  Sc  Sc0  1  0.324543  0.000000  0.175456  1
  Sc  Sc1  1  0.826031  0.000000  0.326030  1
  Sc  Sc2  1  0.173969  0.000000  0.673969  1
  Sc  Sc3  1  0.675456  0.000000  0.824544  1
  Ge  Ge4  1  0.000000  0.000000  0.000000  1
  Ge  Ge5  1  0.500000  0.000000  0.500000  1
  B  B6  1  0.623281  0.000000  0.123281  1
  B  B7  1  0.123459  0.000000  0.376541  1
  B  B8  1  0.876541  0.000000  0.623459  1
  B  B9  1  0.376719  0.000000  0.876719  1
  Ir  Ir10  1  0.500000  0.500001  0.000000  1
  Rh  Rh11  1  0.785406  0.500001  0.072208  1
  Rh  Rh12  1  0.071528  0.500001  0.215595  1
  Rh  Rh13  1  0.572208  0.500001  0.285407  1
  Rh  Rh14  1  0.284405  0.500001  0.428472  1
  Rh  Rh15  1  0.000000  0.500001  0.500000  1
  Rh  Rh16  1  0.715595  0.500001  0.571528  1
  Rh  Rh17  1  0.427792  0.500001  0.714593  1
  Rh  Rh18  1  0.928472  0.500001  0.784404  1
  Rh  Rh19  1  0.214593  0.500001  0.927792  1
