# generated using pymatgen
data_LaTb2Co(P3Rh4)2
_symmetry_space_group_name_H-M   'P 1'
_cell_length_a   3.89327600
_cell_length_b   11.20006300
_cell_length_c   12.87089400
_cell_angle_alpha   90.00000000
_cell_angle_beta   90.00000000
_cell_angle_gamma   90.00000000
_symmetry_Int_Tables_number   1
_chemical_formula_structural   LaTb2Co(P3Rh4)2
_chemical_formula_sum   'La2 Tb4 Co2 P12 Rh16'
_cell_volume   561.23451526
_cell_formula_units_Z   2
loop_
 _symmetry_equiv_pos_site_id
 _symmetry_equiv_pos_as_xyz
  1  'x, y, z'
loop_
 _atom_site_type_symbol
 _atom_site_label
 _atom_site_symmetry_multiplicity
 _atom_site_fract_x
 _atom_site_fract_y
 _atom_site_fract_z
 _atom_site_occupancy
  La  La0  1  0.000000  0.500000  0.523742  1
  La  La1  1  0.500000  0.000000  0.476258  1
  Tb  Tb2  1  0.500000  0.815142  0.200864  1
  Tb  Tb3  1  0.500000  0.184858  0.200864  1
  Tb  Tb4  1  0.000000  0.684858  0.799136  1
  Tb  Tb5  1  0.000000  0.315142  0.799136  1
  Co  Co6  1  0.000000  0.500000  0.980890  1
  Co  Co7  1  0.500000  0.000000  0.019110  1
  P  P8  1  0.500000  0.500000  0.883765  1
  P  P9  1  0.000000  0.000000  0.116235  1
  P  P10  1  0.500000  0.500000  0.346434  1
  P  P11  1  0.000000  0.000000  0.653566  1
  P  P12  1  0.500000  0.312601  0.621288  1
  P  P13  1  0.500000  0.687399  0.621288  1
  P  P14  1  0.000000  0.187399  0.378712  1
  P  P15  1  0.000000  0.812601  0.378712  1
  P  P16  1  0.500000  0.852853  0.897123  1
  P  P17  1  0.500000  0.147147  0.897123  1
  P  P18  1  0.000000  0.647147  0.102877  1
  P  P19  1  0.000000  0.352853  0.102877  1
  Rh  Rh20  1  0.500000  0.500000  0.166096  1
  Rh  Rh21  1  0.000000  0.000000  0.833904  1
  Rh  Rh22  1  0.500000  0.500000  0.707086  1
  Rh  Rh23  1  0.000000  0.000000  0.292914  1
  Rh  Rh24  1  0.500000  0.336438  0.994543  1
  Rh  Rh25  1  0.500000  0.663562  0.994543  1
  Rh  Rh26  1  0.000000  0.163562  0.005457  1
  Rh  Rh27  1  0.000000  0.836438  0.005457  1
  Rh  Rh28  1  0.500000  0.292765  0.428233  1
  Rh  Rh29  1  0.500000  0.707235  0.428233  1
  Rh  Rh30  1  0.000000  0.207235  0.571767  1
  Rh  Rh31  1  0.000000  0.792765  0.571767  1
  Rh  Rh32  1  0.500000  0.873967  0.714609  1
  Rh  Rh33  1  0.500000  0.126033  0.714609  1
  Rh  Rh34  1  0.000000  0.626033  0.285391  1
  Rh  Rh35  1  0.000000  0.373967  0.285391  1
