# generated using pymatgen
data_Ca4AsPd7
_symmetry_space_group_name_H-M   'P 1'
_cell_length_a   9.08268619
_cell_length_b   9.08268607
_cell_length_c   9.08268600
_cell_angle_alpha   35.61702031
_cell_angle_beta   35.61702138
_cell_angle_gamma   35.61701531
_symmetry_Int_Tables_number   1
_chemical_formula_structural   Ca4AsPd7
_chemical_formula_sum   'Ca4 As1 Pd7'
_cell_volume   227.13682959
_cell_formula_units_Z   1
loop_
 _symmetry_equiv_pos_site_id
 _symmetry_equiv_pos_as_xyz
  1  'x, y, z'
loop_
 _atom_site_type_symbol
 _atom_site_label
 _atom_site_symmetry_multiplicity
 _atom_site_fract_x
 _atom_site_fract_y
 _atom_site_fract_z
 _atom_site_occupancy
  Ca  Ca0  1  0.566117  0.566117  0.566117  1
  Ca  Ca1  1  0.438635  0.438635  0.438635  1
  Ca  Ca2  1  0.934195  0.934195  0.934195  1
  Ca  Ca3  1  0.061585  0.061585  0.061585  1
  As  As4  1  0.749861  0.749861  0.749861  1
  Pd  Pd5  1  0.249899  0.249899  0.249899  1
  Pd  Pd6  1  0.007431  0.501524  0.501524  1
  Pd  Pd7  1  0.492695  0.998267  0.998267  1
  Pd  Pd8  1  0.501524  0.007431  0.501524  1
  Pd  Pd9  1  0.998267  0.492695  0.998267  1
  Pd  Pd10  1  0.501524  0.501524  0.007431  1
  Pd  Pd11  1  0.998267  0.998267  0.492695  1
