# generated using pymatgen
data_KMn(SO4)2
_symmetry_space_group_name_H-M   'P 1'
_cell_length_a   5.14972104
_cell_length_b   9.38495143
_cell_length_c   8.66852157
_cell_angle_alpha   63.83600306
_cell_angle_beta   89.98451171
_cell_angle_gamma   105.91602793
_symmetry_Int_Tables_number   1
_chemical_formula_structural   KMn(SO4)2
_chemical_formula_sum   'K2 Mn2 S4 O16'
_cell_volume   358.02429077
_cell_formula_units_Z   2
loop_
 _symmetry_equiv_pos_site_id
 _symmetry_equiv_pos_as_xyz
  1  'x, y, z'
loop_
 _atom_site_type_symbol
 _atom_site_label
 _atom_site_symmetry_multiplicity
 _atom_site_fract_x
 _atom_site_fract_y
 _atom_site_fract_z
 _atom_site_occupancy
  K  K0  1  0.499941  0.999986  0.499957  1
  K  K1  1  0.000002  0.000038  0.999863  1
  Mn  Mn2  1  0.749996  0.499982  0.250166  1
  Mn  Mn3  1  0.250115  0.500105  0.749925  1
  S  S4  1  0.650186  0.300179  0.983617  1
  S  S5  1  0.149945  0.299967  0.483681  1
  S  S6  1  0.850008  0.699977  0.516306  1
  S  S7  1  0.349949  0.699917  0.016452  1
  O  O8  1  0.563670  0.127390  0.119194  1
  O  O9  1  0.063411  0.127175  0.619265  1
  O  O10  1  0.936446  0.872641  0.380540  1
  O  O11  1  0.436328  0.872670  0.880850  1
  O  O12  1  0.713496  0.426975  0.043746  1
  O  O13  1  0.213283  0.426772  0.543821  1
  O  O14  1  0.786470  0.572963  0.456396  1
  O  O15  1  0.286590  0.573120  0.956272  1
  O  O16  1  0.898451  0.322079  0.870158  1
  O  O17  1  0.398183  0.321949  0.370169  1
  O  O18  1  0.601801  0.678113  0.629747  1
  O  O19  1  0.101665  0.677939  0.129912  1
  O  O20  1  0.424278  0.322211  0.869922  1
  O  O21  1  0.923929  0.322030  0.370076  1
  O  O22  1  0.076028  0.677967  0.629882  1
  O  O23  1  0.575835  0.677859  0.130081  1
