# generated using pymatgen
data_Ho2Mg3Cd(Ni7B2)2
_symmetry_space_group_name_H-M   'P 1'
_cell_length_a   4.94698421
_cell_length_b   4.94698448
_cell_length_c   13.96121327
_cell_angle_alpha   90.01942537
_cell_angle_beta   89.98057564
_cell_angle_gamma   119.96650389
_symmetry_Int_Tables_number   1
_chemical_formula_structural   Ho2Mg3Cd(Ni7B2)2
_chemical_formula_sum   'Ho2 Mg3 Cd1 Ni14 B4'
_cell_volume   295.99291777
_cell_formula_units_Z   1
loop_
 _symmetry_equiv_pos_site_id
 _symmetry_equiv_pos_as_xyz
  1  'x, y, z'
loop_
 _atom_site_type_symbol
 _atom_site_label
 _atom_site_symmetry_multiplicity
 _atom_site_fract_x
 _atom_site_fract_y
 _atom_site_fract_z
 _atom_site_occupancy
  Ho  Ho0  1  0.666538  0.333462  0.249379  1
  Ho  Ho1  1  0.333417  0.666583  0.748904  1
  Mg  Mg2  1  0.333515  0.666485  0.973647  1
  Mg  Mg3  1  0.333428  0.666572  0.527180  1
  Mg  Mg4  1  0.666241  0.333759  0.471986  1
  Cd  Cd5  1  0.666697  0.333303  0.028371  1
  Ni  Ni6  1  0.833395  0.666686  0.644482  1
  Ni  Ni7  1  0.833483  0.166517  0.644511  1
  Ni  Ni8  1  0.333314  0.166605  0.644482  1
  Ni  Ni9  1  0.166557  0.332617  0.355071  1
  Ni  Ni10  1  0.166517  0.833483  0.355024  1
  Ni  Ni11  1  0.667383  0.833443  0.355071  1
  Ni  Ni12  1  0.165984  0.332545  0.146766  1
  Ni  Ni13  1  0.166051  0.833949  0.146765  1
  Ni  Ni14  1  0.667455  0.834016  0.146766  1
  Ni  Ni15  1  0.834007  0.667708  0.853618  1
  Ni  Ni16  1  0.833849  0.166151  0.853682  1
  Ni  Ni17  1  0.332292  0.165993  0.853618  1
  Ni  Ni18  1  0.999961  0.000039  0.500121  1
  Ni  Ni19  1  0.999762  0.000238  0.999756  1
  B  B20  1  0.666730  0.333270  0.748947  1
  B  B21  1  0.333449  0.666551  0.250954  1
  B  B22  1  0.999958  0.000042  0.749796  1
  B  B23  1  0.000018  0.999982  0.251104  1
