# generated using pymatgen
data_Y3GaSiIr2
_symmetry_space_group_name_H-M   'P 1'
_cell_length_a   5.54833100
_cell_length_b   8.00673400
_cell_length_c   13.21114100
_cell_angle_alpha   90.00000000
_cell_angle_beta   90.00000000
_cell_angle_gamma   90.00000000
_symmetry_Int_Tables_number   1
_chemical_formula_structural   Y3GaSiIr2
_chemical_formula_sum   'Y12 Ga4 Si4 Ir8'
_cell_volume   586.89186599
_cell_formula_units_Z   4
loop_
 _symmetry_equiv_pos_site_id
 _symmetry_equiv_pos_as_xyz
  1  'x, y, z'
loop_
 _atom_site_type_symbol
 _atom_site_label
 _atom_site_symmetry_multiplicity
 _atom_site_fract_x
 _atom_site_fract_y
 _atom_site_fract_z
 _atom_site_occupancy
  Y  Y0  1  0.148555  0.603141  0.102308  1
  Y  Y1  1  0.148555  0.896859  0.897692  1
  Y  Y2  1  0.851445  0.103141  0.397692  1
  Y  Y3  1  0.851445  0.396859  0.602308  1
  Y  Y4  1  0.851445  0.396859  0.897692  1
  Y  Y5  1  0.851445  0.103141  0.102308  1
  Y  Y6  1  0.148555  0.896859  0.602308  1
  Y  Y7  1  0.148555  0.603141  0.397692  1
  Y  Y8  1  0.366085  0.243171  0.250000  1
  Y  Y9  1  0.366085  0.256829  0.750000  1
  Y  Y10  1  0.633915  0.743171  0.250000  1
  Y  Y11  1  0.633915  0.756829  0.750000  1
  Ga  Ga12  1  0.369668  0.250000  0.000000  1
  Ga  Ga13  1  0.630332  0.750000  0.500000  1
  Ga  Ga14  1  0.630332  0.750000  0.000000  1
  Ga  Ga15  1  0.369668  0.250000  0.500000  1
  Si  Si16  1  0.863234  0.390528  0.250000  1
  Si  Si17  1  0.863234  0.109472  0.750000  1
  Si  Si18  1  0.136766  0.890528  0.250000  1
  Si  Si19  1  0.136766  0.609472  0.750000  1
  Ir  Ir20  1  0.650214  0.468386  0.095109  1
  Ir  Ir21  1  0.650214  0.031614  0.904891  1
  Ir  Ir22  1  0.349786  0.968386  0.404891  1
  Ir  Ir23  1  0.349786  0.531614  0.595109  1
  Ir  Ir24  1  0.349786  0.531614  0.904891  1
  Ir  Ir25  1  0.349786  0.968386  0.095109  1
  Ir  Ir26  1  0.650214  0.031614  0.595109  1
  Ir  Ir27  1  0.650214  0.468386  0.404891  1
