# generated using pymatgen
data_Ho8Sc12Si9Ge7
_symmetry_space_group_name_H-M   'P 1'
_cell_length_a   7.13448034
_cell_length_b   7.39364519
_cell_length_c   14.02857017
_cell_angle_alpha   90.00146315
_cell_angle_beta   89.86212085
_cell_angle_gamma   90.02568250
_symmetry_Int_Tables_number   1
_chemical_formula_structural   Ho8Sc12Si9Ge7
_chemical_formula_sum   'Ho8 Sc12 Si9 Ge7'
_cell_volume   740.00228073
_cell_formula_units_Z   1
loop_
 _symmetry_equiv_pos_site_id
 _symmetry_equiv_pos_as_xyz
  1  'x, y, z'
loop_
 _atom_site_type_symbol
 _atom_site_label
 _atom_site_symmetry_multiplicity
 _atom_site_fract_x
 _atom_site_fract_y
 _atom_site_fract_z
 _atom_site_occupancy
  Ho  Ho0  1  0.010987  0.175316  0.098185  1
  Ho  Ho1  1  0.992175  0.824286  0.902261  1
  Ho  Ho2  1  0.490793  0.677414  0.901932  1
  Ho  Ho3  1  0.991972  0.822908  0.598683  1
  Ho  Ho4  1  0.507783  0.322281  0.098483  1
  Ho  Ho5  1  0.008328  0.176971  0.401202  1
  Ho  Ho6  1  0.507925  0.322807  0.401182  1
  Ho  Ho7  1  0.492353  0.676926  0.598798  1
  Sc  Sc8  1  0.164225  0.501839  0.750024  1
  Sc  Sc9  1  0.835953  0.498346  0.249881  1
  Sc  Sc10  1  0.335805  0.001791  0.248595  1
  Sc  Sc11  1  0.664122  0.998153  0.749997  1
  Sc  Sc12  1  0.335418  0.172918  0.626786  1
  Sc  Sc13  1  0.664433  0.827015  0.373263  1
  Sc  Sc14  1  0.164534  0.673219  0.373356  1
  Sc  Sc15  1  0.663751  0.826417  0.126612  1
  Sc  Sc16  1  0.835407  0.327133  0.626808  1
  Sc  Sc17  1  0.333900  0.172599  0.873781  1
  Sc  Sc18  1  0.834224  0.326114  0.873848  1
  Sc  Sc19  1  0.166943  0.675905  0.125603  1
  Si  Si20  1  0.035776  0.116390  0.750326  1
  Si  Si21  1  0.963630  0.883149  0.249723  1
  Si  Si22  1  0.463774  0.616213  0.249849  1
  Si  Si23  1  0.536158  0.383146  0.750498  1
  Si  Si24  1  0.288608  0.871210  0.750168  1
  Si  Si25  1  0.711679  0.128700  0.249777  1
  Si  Si26  1  0.211042  0.371797  0.249623  1
  Si  Si27  1  0.788911  0.628815  0.750526  1
  Si  Si28  1  0.334885  0.963046  0.040257  1
  Ge  Ge29  1  0.170459  0.461472  0.540758  1
  Ge  Ge30  1  0.829262  0.538586  0.459218  1
  Ge  Ge31  1  0.329486  0.961314  0.459143  1
  Ge  Ge32  1  0.830649  0.537982  0.040853  1
  Ge  Ge33  1  0.670367  0.038652  0.540680  1
  Ge  Ge34  1  0.169175  0.461793  0.959213  1
  Ge  Ge35  1  0.665109  0.037374  0.960107  1
