# generated using pymatgen
data_TcAs2RuF16
_symmetry_space_group_name_H-M   'P 1'
_cell_length_a   8.30788700
_cell_length_b   5.78074531
_cell_length_c   6.98686608
_cell_angle_alpha   83.95015100
_cell_angle_beta   90.00000000
_cell_angle_gamma   90.00000000
_symmetry_Int_Tables_number   1
_chemical_formula_structural   TcAs2RuF16
_chemical_formula_sum   'Tc1 As2 Ru1 F16'
_cell_volume   333.68086624
_cell_formula_units_Z   1
loop_
 _symmetry_equiv_pos_site_id
 _symmetry_equiv_pos_as_xyz
  1  'x, y, z'
loop_
 _atom_site_type_symbol
 _atom_site_label
 _atom_site_symmetry_multiplicity
 _atom_site_fract_x
 _atom_site_fract_y
 _atom_site_fract_z
 _atom_site_occupancy
  Tc  Tc0  1  0.750000  0.203838  0.216336  1
  As  As1  1  0.250000  0.508472  0.303598  1
  As  As2  1  0.750000  0.499970  0.705679  1
  Ru  Ru3  1  0.250000  0.787936  0.783308  1
  F  F4  1  0.476680  0.775664  0.785145  1
  F  F5  1  0.974749  0.231870  0.219150  1
  F  F6  1  0.525251  0.231870  0.219150  1
  F  F7  1  0.023320  0.775664  0.785145  1
  F  F8  1  0.250000  0.010254  0.956268  1
  F  F9  1  0.750000  0.978153  0.047951  1
  F  F10  1  0.092575  0.710003  0.289755  1
  F  F11  1  0.592601  0.297399  0.710274  1
  F  F12  1  0.907399  0.297399  0.710274  1
  F  F13  1  0.407425  0.710003  0.289755  1
  F  F14  1  0.250000  0.534748  0.002979  1
  F  F15  1  0.750000  0.467580  0.987921  1
  F  F16  1  0.250000  0.537053  0.610752  1
  F  F17  1  0.750000  0.457356  0.378364  1
  F  F18  1  0.250000  0.011773  0.571807  1
  F  F19  1  0.750000  0.972997  0.426388  1
