# generated using pymatgen
data_Eu3Ga4Ni3Ru
_symmetry_space_group_name_H-M   'P 1'
_cell_length_a   6.52217823
_cell_length_b   6.52217907
_cell_length_c   6.63263300
_cell_angle_alpha   109.81464654
_cell_angle_beta   109.81464919
_cell_angle_gamma   109.12562131
_symmetry_Int_Tables_number   1
_chemical_formula_structural   Eu3Ga4Ni3Ru
_chemical_formula_sum   'Eu3 Ga4 Ni3 Ru1'
_cell_volume   216.26746190
_cell_formula_units_Z   1
loop_
 _symmetry_equiv_pos_site_id
 _symmetry_equiv_pos_as_xyz
  1  'x, y, z'
loop_
 _atom_site_type_symbol
 _atom_site_label
 _atom_site_symmetry_multiplicity
 _atom_site_fract_x
 _atom_site_fract_y
 _atom_site_fract_z
 _atom_site_occupancy
  Eu  Eu0  1  0.502696  0.000000  0.500431  1
  Eu  Eu1  1  0.000000  0.502696  0.500431  1
  Eu  Eu2  1  0.497304  0.497304  0.997735  1
  Ga  Ga3  1  0.000000  0.000000  0.612677  1
  Ga  Ga4  1  0.396601  0.396601  0.394884  1
  Ga  Ga5  1  0.000000  0.603399  0.998283  1
  Ga  Ga6  1  0.603399  0.000000  0.998283  1
  Ni  Ni7  1  0.759803  0.759803  0.757097  1
  Ni  Ni8  1  0.240197  0.000000  0.997293  1
  Ni  Ni9  1  0.000000  0.240197  0.997293  1
  Ru  Ru10  1  0.000000  0.000000  0.245593  1
