# generated using pymatgen
data_Y10Al2GaBi3
_symmetry_space_group_name_H-M   'P 1'
_cell_length_a   8.94631700
_cell_length_b   8.94364897
_cell_length_c   6.55317200
_cell_angle_alpha   90.00000000
_cell_angle_beta   90.00000000
_cell_angle_gamma   120.00987978
_symmetry_Int_Tables_number   1
_chemical_formula_structural   Y10Al2GaBi3
_chemical_formula_sum   'Y10 Al2 Ga1 Bi3'
_cell_volume   454.04404265
_cell_formula_units_Z   1
loop_
 _symmetry_equiv_pos_site_id
 _symmetry_equiv_pos_as_xyz
  1  'x, y, z'
loop_
 _atom_site_type_symbol
 _atom_site_label
 _atom_site_symmetry_multiplicity
 _atom_site_fract_x
 _atom_site_fract_y
 _atom_site_fract_z
 _atom_site_occupancy
  Y  Y0  1  0.326028  0.668895  0.003688  1
  Y  Y1  1  0.657133  0.331105  0.496312  1
  Y  Y2  1  0.657133  0.331105  0.003688  1
  Y  Y3  1  0.326028  0.668895  0.496312  1
  Y  Y4  1  0.234891  0.000000  0.250000  1
  Y  Y5  1  0.243502  0.228314  0.750000  1
  Y  Y6  1  0.015188  0.771686  0.750000  1
  Y  Y7  1  0.013990  0.248416  0.250000  1
  Y  Y8  1  0.765574  0.751584  0.250000  1
  Y  Y9  1  0.753524  0.000000  0.750000  1
  Al  Al10  1  0.997731  0.600387  0.250000  1
  Al  Al11  1  0.397344  0.399613  0.250000  1
  Ga  Ga12  1  0.399138  0.000000  0.750000  1
  Bi  Bi13  1  0.611743  0.000000  0.250000  1
  Bi  Bi14  1  0.604387  0.607720  0.750000  1
  Bi  Bi15  1  0.996666  0.392280  0.750000  1
