# generated using pymatgen
data_Y6Er3Tm7(NiAg)4
_symmetry_space_group_name_H-M   'P 1'
_cell_length_a   9.37904533
_cell_length_b   9.37739937
_cell_length_c   9.37739800
_cell_angle_alpha   60.00000484
_cell_angle_beta   60.00580992
_cell_angle_gamma   60.00581243
_symmetry_Int_Tables_number   1
_chemical_formula_structural   Y6Er3Tm7(NiAg)4
_chemical_formula_sum   'Y6 Er3 Tm7 Ni4 Ag4'
_cell_volume   583.23899809
_cell_formula_units_Z   1
loop_
 _symmetry_equiv_pos_site_id
 _symmetry_equiv_pos_as_xyz
  1  'x, y, z'
loop_
 _atom_site_type_symbol
 _atom_site_label
 _atom_site_symmetry_multiplicity
 _atom_site_fract_x
 _atom_site_fract_y
 _atom_site_fract_z
 _atom_site_occupancy
  Y  Y0  1  0.186653  0.813292  0.813292  1
  Y  Y1  1  0.813653  0.186477  0.186477  1
  Y  Y2  1  0.813653  0.186477  0.813393  1
  Y  Y3  1  0.186653  0.813292  0.186764  1
  Y  Y4  1  0.813653  0.813393  0.186477  1
  Y  Y5  1  0.186653  0.186764  0.813292  1
  Er  Er6  1  0.601045  0.601305  0.601305  1
  Er  Er7  1  0.601045  0.601305  0.196343  1
  Er  Er8  1  0.601045  0.196343  0.601305  1
  Tm  Tm9  1  0.197122  0.600959  0.600959  1
  Tm  Tm10  1  0.063437  0.436616  0.436616  1
  Tm  Tm11  1  0.436323  0.063574  0.063574  1
  Tm  Tm12  1  0.436323  0.063574  0.436528  1
  Tm  Tm13  1  0.063437  0.436616  0.063332  1
  Tm  Tm14  1  0.436323  0.436528  0.063574  1
  Tm  Tm15  1  0.063437  0.063332  0.436616  1
  Ni  Ni16  1  0.391954  0.392895  0.392895  1
  Ni  Ni17  1  0.391954  0.392895  0.822257  1
  Ni  Ni18  1  0.391954  0.822257  0.392895  1
  Ni  Ni19  1  0.822470  0.392511  0.392511  1
  Ag  Ag20  1  0.831976  0.831361  0.831361  1
  Ag  Ag21  1  0.831976  0.831361  0.505302  1
  Ag  Ag22  1  0.831976  0.505302  0.831361  1
  Ag  Ag23  1  0.505290  0.831570  0.831570  1
