# generated using pymatgen
data_SmDy(AuBr6)2
_symmetry_space_group_name_H-M   'P 1'
_cell_length_a   8.26763721
_cell_length_b   10.49084907
_cell_length_c   14.93605313
_cell_angle_alpha   103.08254655
_cell_angle_beta   96.48637847
_cell_angle_gamma   112.47381427
_symmetry_Int_Tables_number   1
_chemical_formula_structural   SmDy(AuBr6)2
_chemical_formula_sum   'Sm2 Dy2 Au4 Br24'
_cell_volume   1137.01467682
_cell_formula_units_Z   2
loop_
 _symmetry_equiv_pos_site_id
 _symmetry_equiv_pos_as_xyz
  1  'x, y, z'
loop_
 _atom_site_type_symbol
 _atom_site_label
 _atom_site_symmetry_multiplicity
 _atom_site_fract_x
 _atom_site_fract_y
 _atom_site_fract_z
 _atom_site_occupancy
  Sm  Sm0  1  0.975457  0.312380  0.870693  1
  Sm  Sm1  1  0.024543  0.687620  0.129307  1
  Dy  Dy2  1  0.579764  0.923965  0.621765  1
  Dy  Dy3  1  0.420236  0.076035  0.378235  1
  Au  Au4  1  0.294444  0.631968  0.762643  1
  Au  Au5  1  0.705556  0.368032  0.237357  1
  Au  Au6  1  0.500000  0.500000  0.500000  1
  Au  Au7  1  0.000000  0.000000  0.000000  1
  Br  Br8  1  0.610508  0.737561  0.748662  1
  Br  Br9  1  0.389492  0.262439  0.251338  1
  Br  Br10  1  0.277656  0.849372  0.733025  1
  Br  Br11  1  0.722344  0.150628  0.266975  1
  Br  Br12  1  0.974368  0.531152  0.771088  1
  Br  Br13  1  0.025632  0.468848  0.228912  1
  Br  Br14  1  0.311624  0.410809  0.786958  1
  Br  Br15  1  0.688376  0.589191  0.213042  1
  Br  Br16  1  0.686798  0.363220  0.505185  1
  Br  Br17  1  0.313202  0.636780  0.494815  1
  Br  Br18  1  0.763281  0.732149  0.527752  1
  Br  Br19  1  0.236719  0.267851  0.472248  1
  Br  Br20  1  0.787282  0.111012  0.978904  1
  Br  Br21  1  0.212718  0.888988  0.021096  1
  Br  Br22  1  0.766613  0.792040  0.031324  1
  Br  Br23  1  0.233387  0.207960  0.968676  1
  Br  Br24  1  0.615792  0.189412  0.743061  1
  Br  Br25  1  0.384208  0.810588  0.256939  1
  Br  Br26  1  0.944688  0.052506  0.726299  1
  Br  Br27  1  0.055312  0.947494  0.273701  1
  Br  Br28  1  0.722174  0.047713  0.482280  1
  Br  Br29  1  0.277826  0.952287  0.517720  1
  Br  Br30  1  0.760961  0.434659  0.976789  1
  Br  Br31  1  0.239039  0.565341  0.023211  1
