# generated using pymatgen
data_YPa3Co11(NiB2)3
_symmetry_space_group_name_H-M   'P 1'
_cell_length_a   4.94633917
_cell_length_b   4.93362299
_cell_length_c   13.09069305
_cell_angle_alpha   89.99891828
_cell_angle_beta   90.00960982
_cell_angle_gamma   120.05751081
_symmetry_Int_Tables_number   1
_chemical_formula_structural   YPa3Co11(NiB2)3
_chemical_formula_sum   'Y1 Pa3 Co11 Ni3 B6'
_cell_volume   276.49745806
_cell_formula_units_Z   1
loop_
 _symmetry_equiv_pos_site_id
 _symmetry_equiv_pos_as_xyz
  1  'x, y, z'
loop_
 _atom_site_type_symbol
 _atom_site_label
 _atom_site_symmetry_multiplicity
 _atom_site_fract_x
 _atom_site_fract_y
 _atom_site_fract_z
 _atom_site_occupancy
  Y  Y0  1  0.000199  0.000080  0.500644  1
  Pa  Pa1  1  0.999884  0.000214  0.996077  1
  Pa  Pa2  1  0.999564  0.999892  0.259211  1
  Pa  Pa3  1  0.000262  0.000194  0.741698  1
  Co  Co4  1  0.500234  0.500139  0.156933  1
  Co  Co5  1  0.999316  0.498785  0.157218  1
  Co  Co6  1  0.500255  0.000130  0.845379  1
  Co  Co7  1  0.500152  0.500130  0.844151  1
  Co  Co8  1  0.000238  0.500218  0.843874  1
  Co  Co9  1  0.499985  0.999983  0.384678  1
  Co  Co10  1  0.500065  0.500047  0.381768  1
  Co  Co11  1  0.000009  0.499955  0.381585  1
  Co  Co12  1  0.500259  0.000124  0.616305  1
  Co  Co13  1  0.500249  0.500130  0.618241  1
  Co  Co14  1  0.000248  0.500120  0.618406  1
  Ni  Ni15  1  0.328187  0.658655  0.999813  1
  Ni  Ni16  1  0.671593  0.341968  0.999626  1
  Ni  Ni17  1  0.499014  0.999338  0.151654  1
  B  B18  1  0.331412  0.662914  0.500466  1
  B  B19  1  0.668894  0.337197  0.500467  1
  B  B20  1  0.334818  0.669503  0.267891  1
  B  B21  1  0.664492  0.329996  0.267830  1
  B  B22  1  0.665598  0.331374  0.733045  1
  B  B23  1  0.334875  0.668915  0.733041  1
