# generated using pymatgen
data_Zr4MnCo(P2Pd)2
_symmetry_space_group_name_H-M   'P 1'
_cell_length_a   3.76794900
_cell_length_b   6.49181937
_cell_length_c   7.39370000
_cell_angle_alpha   88.26844139
_cell_angle_beta   90.00000000
_cell_angle_gamma   90.00000000
_symmetry_Int_Tables_number   1
_chemical_formula_structural   Zr4MnCo(P2Pd)2
_chemical_formula_sum   'Zr4 Mn1 Co1 P4 Pd2'
_cell_volume   180.77355989
_cell_formula_units_Z   1
loop_
 _symmetry_equiv_pos_site_id
 _symmetry_equiv_pos_as_xyz
  1  'x, y, z'
loop_
 _atom_site_type_symbol
 _atom_site_label
 _atom_site_symmetry_multiplicity
 _atom_site_fract_x
 _atom_site_fract_y
 _atom_site_fract_z
 _atom_site_occupancy
  Zr  Zr0  1  0.250000  0.526008  0.689213  1
  Zr  Zr1  1  0.750000  0.474605  0.310334  1
  Zr  Zr2  1  0.250000  0.023218  0.827688  1
  Zr  Zr3  1  0.750000  0.977929  0.172470  1
  Mn  Mn4  1  0.250000  0.633577  0.054520  1
  Co  Co5  1  0.750000  0.363554  0.943068  1
  P  P6  1  0.250000  0.283004  0.100245  1
  P  P7  1  0.750000  0.720539  0.904144  1
  P  P8  1  0.250000  0.751624  0.354154  1
  P  P9  1  0.750000  0.248867  0.643776  1
  Pd  Pd10  1  0.750000  0.847819  0.564130  1
  Pd  Pd11  1  0.250000  0.149255  0.436258  1
