# generated using pymatgen
data_Lu10AgBiRh4
_symmetry_space_group_name_H-M   'P 1'
_cell_length_a   8.59031234
_cell_length_b   8.59031203
_cell_length_c   8.59031235
_cell_angle_alpha   127.76408869
_cell_angle_beta   127.76407253
_cell_angle_gamma   77.00751587
_symmetry_Int_Tables_number   1
_chemical_formula_structural   Lu10AgBiRh4
_chemical_formula_sum   'Lu10 Ag1 Bi1 Rh4'
_cell_volume   384.54693482
_cell_formula_units_Z   1
loop_
 _symmetry_equiv_pos_site_id
 _symmetry_equiv_pos_as_xyz
  1  'x, y, z'
loop_
 _atom_site_type_symbol
 _atom_site_label
 _atom_site_symmetry_multiplicity
 _atom_site_fract_x
 _atom_site_fract_y
 _atom_site_fract_z
 _atom_site_occupancy
  Lu  Lu0  1  0.998995  0.998995  0.000000  1
  Lu  Lu1  1  0.501005  0.501005  0.000000  1
  Lu  Lu2  1  0.796091  0.287201  0.813956  1
  Lu  Lu3  1  0.212799  0.703909  0.186044  1
  Lu  Lu4  1  0.473245  0.982135  0.186044  1
  Lu  Lu5  1  0.287201  0.473245  0.491110  1
  Lu  Lu6  1  0.026755  0.212799  0.508890  1
  Lu  Lu7  1  0.517865  0.026755  0.813956  1
  Lu  Lu8  1  0.703909  0.517865  0.491110  1
  Lu  Lu9  1  0.982135  0.796091  0.508890  1
  Ag  Ag10  1  0.250000  0.250000  0.000000  1
  Bi  Bi11  1  0.750000  0.750000  0.000000  1
  Rh  Rh12  1  0.141932  0.641932  0.783865  1
  Rh  Rh13  1  0.858068  0.358068  0.216135  1
  Rh  Rh14  1  0.641932  0.858068  0.500000  1
  Rh  Rh15  1  0.358068  0.141932  0.500000  1
