# generated using pymatgen
data_Dy8LuZn4
_symmetry_space_group_name_H-M   'P 1'
_cell_length_a   8.55469746
_cell_length_b   8.55479477
_cell_length_c   8.55486716
_cell_angle_alpha   95.01354855
_cell_angle_beta   95.01896777
_cell_angle_gamma   145.60093686
_symmetry_Int_Tables_number   1
_chemical_formula_structural   Dy8LuZn4
_chemical_formula_sum   'Dy8 Lu1 Zn4'
_cell_volume   337.88691563
_cell_formula_units_Z   1
loop_
 _symmetry_equiv_pos_site_id
 _symmetry_equiv_pos_as_xyz
  1  'x, y, z'
loop_
 _atom_site_type_symbol
 _atom_site_label
 _atom_site_symmetry_multiplicity
 _atom_site_fract_x
 _atom_site_fract_y
 _atom_site_fract_z
 _atom_site_occupancy
  Dy  Dy0  1  0.181621  0.887809  0.069440  1
  Dy  Dy1  1  0.112155  0.181617  0.293817  1
  Dy  Dy2  1  0.881777  0.402951  0.284674  1
  Dy  Dy3  1  0.597071  0.881750  0.478825  1
  Dy  Dy4  1  0.402928  0.118249  0.521174  1
  Dy  Dy5  1  0.118222  0.597048  0.715326  1
  Dy  Dy6  1  0.887844  0.818382  0.706183  1
  Dy  Dy7  1  0.818378  0.112190  0.930560  1
  Lu  Lu8  1  0.499999  0.499999  0.000000  1
  Zn  Zn9  1  0.392224  0.734076  0.126304  1
  Zn  Zn10  1  0.734089  0.607776  0.341864  1
  Zn  Zn11  1  0.265910  0.392223  0.658136  1
  Zn  Zn12  1  0.607775  0.265923  0.873696  1
