# generated using pymatgen
data_LiY9In3Ru
_symmetry_space_group_name_H-M   'P 1'
_cell_length_a   9.59761500
_cell_length_b   9.59761576
_cell_length_c   9.65431500
_cell_angle_alpha   90.00000000
_cell_angle_beta   90.00000000
_cell_angle_gamma   120.00000081
_symmetry_Int_Tables_number   1
_chemical_formula_structural   LiY9In3Ru
_chemical_formula_sum   'Li2 Y18 In6 Ru2'
_cell_volume   770.15613048
_cell_formula_units_Z   2
loop_
 _symmetry_equiv_pos_site_id
 _symmetry_equiv_pos_as_xyz
  1  'x, y, z'
loop_
 _atom_site_type_symbol
 _atom_site_label
 _atom_site_symmetry_multiplicity
 _atom_site_fract_x
 _atom_site_fract_y
 _atom_site_fract_z
 _atom_site_occupancy
  Li  Li0  1  0.000000  0.000000  0.500000  1
  Li  Li1  1  0.000000  0.000000  0.000000  1
  Y  Y2  1  0.207419  0.792581  0.439314  1
  Y  Y3  1  0.207419  0.414840  0.439314  1
  Y  Y4  1  0.585160  0.792581  0.439314  1
  Y  Y5  1  0.792581  0.207419  0.560686  1
  Y  Y6  1  0.792581  0.585160  0.560686  1
  Y  Y7  1  0.414840  0.207419  0.560686  1
  Y  Y8  1  0.792581  0.207419  0.939314  1
  Y  Y9  1  0.792581  0.585160  0.939314  1
  Y  Y10  1  0.414840  0.207419  0.939314  1
  Y  Y11  1  0.207419  0.792581  0.060686  1
  Y  Y12  1  0.207419  0.414840  0.060686  1
  Y  Y13  1  0.585160  0.792581  0.060686  1
  Y  Y14  1  0.540476  0.459524  0.250000  1
  Y  Y15  1  0.540476  0.080953  0.250000  1
  Y  Y16  1  0.919047  0.459524  0.250000  1
  Y  Y17  1  0.459524  0.540476  0.750000  1
  Y  Y18  1  0.459524  0.919047  0.750000  1
  Y  Y19  1  0.080953  0.540476  0.750000  1
  In  In20  1  0.891416  0.108584  0.250000  1
  In  In21  1  0.891416  0.782832  0.250000  1
  In  In22  1  0.217168  0.108584  0.250000  1
  In  In23  1  0.108584  0.891416  0.750000  1
  In  In24  1  0.108584  0.217168  0.750000  1
  In  In25  1  0.782832  0.891416  0.750000  1
  Ru  Ru26  1  0.333333  0.666667  0.250000  1
  Ru  Ru27  1  0.666667  0.333333  0.750000  1
