# generated using pymatgen
data_Hf4Al3Tc4W
_symmetry_space_group_name_H-M   'P 1'
_cell_length_a   5.23908936
_cell_length_b   5.23909118
_cell_length_c   8.61395700
_cell_angle_alpha   90.00000000
_cell_angle_beta   90.00000000
_cell_angle_gamma   120.02830483
_symmetry_Int_Tables_number   1
_chemical_formula_structural   Hf4Al3Tc4W
_chemical_formula_sum   'Hf4 Al3 Tc4 W1'
_cell_volume   204.70156121
_cell_formula_units_Z   1
loop_
 _symmetry_equiv_pos_site_id
 _symmetry_equiv_pos_as_xyz
  1  'x, y, z'
loop_
 _atom_site_type_symbol
 _atom_site_label
 _atom_site_symmetry_multiplicity
 _atom_site_fract_x
 _atom_site_fract_y
 _atom_site_fract_z
 _atom_site_occupancy
  Hf  Hf0  1  0.331848  0.668152  0.435917  1
  Hf  Hf1  1  0.663664  0.336336  0.565747  1
  Hf  Hf2  1  0.663664  0.336336  0.934253  1
  Hf  Hf3  1  0.331848  0.668152  0.064083  1
  Al  Al4  1  0.001696  0.998304  0.496511  1
  Al  Al5  1  0.001696  0.998304  0.003489  1
  Al  Al6  1  0.830051  0.169949  0.250000  1
  Tc  Tc7  1  0.827901  0.659419  0.250000  1
  Tc  Tc8  1  0.340581  0.172099  0.250000  1
  Tc  Tc9  1  0.167025  0.334776  0.750000  1
  Tc  Tc10  1  0.665224  0.832975  0.750000  1
  W  W11  1  0.174802  0.825198  0.750000  1
