# generated using pymatgen
data_Ho4Al4IrPt3
_symmetry_space_group_name_H-M   'P 1'
_cell_length_a   4.41204200
_cell_length_b   6.81463600
_cell_length_c   7.77844000
_cell_angle_alpha   89.99777932
_cell_angle_beta   90.00000000
_cell_angle_gamma   90.00000000
_symmetry_Int_Tables_number   1
_chemical_formula_structural   Ho4Al4IrPt3
_chemical_formula_sum   'Ho4 Al4 Ir1 Pt3'
_cell_volume   233.87015696
_cell_formula_units_Z   1
loop_
 _symmetry_equiv_pos_site_id
 _symmetry_equiv_pos_as_xyz
  1  'x, y, z'
loop_
 _atom_site_type_symbol
 _atom_site_label
 _atom_site_symmetry_multiplicity
 _atom_site_fract_x
 _atom_site_fract_y
 _atom_site_fract_z
 _atom_site_occupancy
  Ho  Ho0  1  0.250000  0.033106  0.678444  1
  Ho  Ho1  1  0.250000  0.530151  0.819524  1
  Ho  Ho2  1  0.750000  0.974607  0.320067  1
  Ho  Ho3  1  0.750000  0.467833  0.182524  1
  Al  Al4  1  0.250000  0.146409  0.063906  1
  Al  Al5  1  0.250000  0.640685  0.437004  1
  Al  Al6  1  0.750000  0.854512  0.938474  1
  Al  Al7  1  0.750000  0.354743  0.560783  1
  Ir  Ir8  1  0.250000  0.268424  0.381687  1
  Pt  Pt9  1  0.250000  0.772368  0.117718  1
  Pt  Pt10  1  0.750000  0.729101  0.618857  1
  Pt  Pt11  1  0.750000  0.228061  0.881012  1
