# generated using pymatgen
data_Hf5ZrTa4(Si3N)2
_symmetry_space_group_name_H-M   'P 1'
_cell_length_a   7.74711800
_cell_length_b   7.73468312
_cell_length_c   5.41903400
_cell_angle_alpha   90.00000000
_cell_angle_beta   90.00000000
_cell_angle_gamma   120.05320440
_symmetry_Int_Tables_number   1
_chemical_formula_structural   Hf5ZrTa4(Si3N)2
_chemical_formula_sum   'Hf5 Zr1 Ta4 Si6 N2'
_cell_volume   281.06199161
_cell_formula_units_Z   1
loop_
 _symmetry_equiv_pos_site_id
 _symmetry_equiv_pos_as_xyz
  1  'x, y, z'
loop_
 _atom_site_type_symbol
 _atom_site_label
 _atom_site_symmetry_multiplicity
 _atom_site_fract_x
 _atom_site_fract_y
 _atom_site_fract_z
 _atom_site_occupancy
  Hf  Hf0  1  0.762942  0.000000  0.750000  1
  Hf  Hf1  1  0.000086  0.236120  0.250000  1
  Hf  Hf2  1  0.999354  0.763778  0.750000  1
  Hf  Hf3  1  0.763966  0.763880  0.250000  1
  Hf  Hf4  1  0.235576  0.236222  0.750000  1
  Zr  Zr5  1  0.239333  0.000000  0.250000  1
  Ta  Ta6  1  0.333556  0.666200  0.999272  1
  Ta  Ta7  1  0.667357  0.333800  0.999272  1
  Ta  Ta8  1  0.667357  0.333800  0.500728  1
  Ta  Ta9  1  0.333556  0.666200  0.500728  1
  Si  Si10  1  0.593237  0.000000  0.250000  1
  Si  Si11  1  0.408300  0.000000  0.750000  1
  Si  Si12  1  0.999690  0.590663  0.250000  1
  Si  Si13  1  0.999981  0.408263  0.750000  1
  Si  Si14  1  0.409027  0.409337  0.250000  1
  Si  Si15  1  0.591718  0.591737  0.750000  1
  N  N16  1  0.997481  0.000000  0.998400  1
  N  N17  1  0.997481  0.000000  0.501600  1
