# generated using pymatgen
data_Ta3Al2IrN
_symmetry_space_group_name_H-M   'P 1'
_cell_length_a   8.27578298
_cell_length_b   8.27578370
_cell_length_c   8.27578300
_cell_angle_alpha   59.99999882
_cell_angle_beta   59.99999591
_cell_angle_gamma   59.99999787
_symmetry_Int_Tables_number   1
_chemical_formula_structural   Ta3Al2IrN
_chemical_formula_sum   'Ta12 Al8 Ir4 N4'
_cell_volume   400.78577345
_cell_formula_units_Z   4
loop_
 _symmetry_equiv_pos_site_id
 _symmetry_equiv_pos_as_xyz
  1  'x, y, z'
loop_
 _atom_site_type_symbol
 _atom_site_label
 _atom_site_symmetry_multiplicity
 _atom_site_fract_x
 _atom_site_fract_y
 _atom_site_fract_z
 _atom_site_occupancy
  Ta  Ta0  1  0.564311  0.935689  0.564311  1
  Ta  Ta1  1  0.314311  0.685689  0.685689  1
  Ta  Ta2  1  0.685689  0.314311  0.314311  1
  Ta  Ta3  1  0.314311  0.685689  0.314311  1
  Ta  Ta4  1  0.685689  0.685689  0.314311  1
  Ta  Ta5  1  0.314311  0.314311  0.685689  1
  Ta  Ta6  1  0.564311  0.564311  0.935689  1
  Ta  Ta7  1  0.935689  0.564311  0.564311  1
  Ta  Ta8  1  0.564311  0.935689  0.935689  1
  Ta  Ta9  1  0.935689  0.935689  0.564311  1
  Ta  Ta10  1  0.685689  0.314311  0.685689  1
  Ta  Ta11  1  0.935689  0.564311  0.935689  1
  Al  Al12  1  0.916165  0.916165  0.916165  1
  Al  Al13  1  0.998494  0.333835  0.333835  1
  Al  Al14  1  0.333835  0.998494  0.333835  1
  Al  Al15  1  0.333835  0.333835  0.998494  1
  Al  Al16  1  0.916165  0.251506  0.916165  1
  Al  Al17  1  0.916165  0.916165  0.251506  1
  Al  Al18  1  0.251506  0.916165  0.916165  1
  Al  Al19  1  0.333835  0.333835  0.333835  1
  Ir  Ir20  1  0.125000  0.125000  0.125000  1
  Ir  Ir21  1  0.625000  0.125000  0.125000  1
  Ir  Ir22  1  0.125000  0.625000  0.125000  1
  Ir  Ir23  1  0.125000  0.125000  0.625000  1
  N  N24  1  0.625000  0.625000  0.625000  1
  N  N25  1  0.125000  0.625000  0.625000  1
  N  N26  1  0.625000  0.125000  0.625000  1
  N  N27  1  0.625000  0.625000  0.125000  1
