# generated using pymatgen
data_Dy3ErTm2(Si3Ru)8
_symmetry_space_group_name_H-M   'P 1'
_cell_length_a   10.10372600
_cell_length_b   10.10373892
_cell_length_c   8.12984313
_cell_angle_alpha   89.98850571
_cell_angle_beta   90.00768182
_cell_angle_gamma   132.60711066
_symmetry_Int_Tables_number   1
_chemical_formula_structural   Dy3ErTm2(Si3Ru)8
_chemical_formula_sum   'Dy3 Er1 Tm2 Si24 Ru8'
_cell_volume   610.84547932
_cell_formula_units_Z   1
loop_
 _symmetry_equiv_pos_site_id
 _symmetry_equiv_pos_as_xyz
  1  'x, y, z'
loop_
 _atom_site_type_symbol
 _atom_site_label
 _atom_site_symmetry_multiplicity
 _atom_site_fract_x
 _atom_site_fract_y
 _atom_site_fract_z
 _atom_site_occupancy
  Dy  Dy0  1  0.497656  0.997643  0.249969  1
  Dy  Dy1  1  0.002424  0.502403  0.750032  1
  Dy  Dy2  1  0.502430  0.002453  0.750032  1
  Er  Er3  1  0.997656  0.497649  0.249991  1
  Tm  Tm4  1  0.500007  0.499979  0.499966  1
  Tm  Tm5  1  0.999982  0.000005  0.000034  1
  Si  Si6  1  0.388235  0.155227  0.004242  1
  Si  Si7  1  0.655190  0.888143  0.495722  1
  Si  Si8  1  0.112197  0.345587  0.504382  1
  Si  Si9  1  0.845564  0.612116  0.995643  1
  Si  Si10  1  0.611772  0.844795  0.995566  1
  Si  Si11  1  0.344818  0.111858  0.504448  1
  Si  Si12  1  0.887849  0.654340  0.494900  1
  Si  Si13  1  0.154364  0.387929  0.005067  1
  Si  Si14  1  0.613563  0.379400  0.228599  1
  Si  Si15  1  0.879336  0.113510  0.271389  1
  Si  Si16  1  0.887476  0.121815  0.728590  1
  Si  Si17  1  0.621725  0.387405  0.771420  1
  Si  Si18  1  0.386758  0.621069  0.771263  1
  Si  Si19  1  0.121149  0.886825  0.728745  1
  Si  Si20  1  0.706130  0.295565  0.000492  1
  Si  Si21  1  0.795563  0.206118  0.499523  1
  Si  Si22  1  0.293858  0.704493  0.000275  1
  Si  Si23  1  0.204494  0.793876  0.499734  1
  Si  Si24  1  0.168002  0.168042  0.333236  1
  Si  Si25  1  0.667958  0.667916  0.166807  1
  Si  Si26  1  0.332068  0.332074  0.833155  1
  Si  Si27  1  0.831987  0.831981  0.666791  1
  Si  Si28  1  0.377790  0.612156  0.228457  1
  Si  Si29  1  0.112095  0.877718  0.271536  1
  Ru  Ru30  1  0.625964  0.625848  0.872658  1
  Ru  Ru31  1  0.125808  0.125924  0.627467  1
  Ru  Ru32  1  0.874067  0.874104  0.372586  1
  Ru  Ru33  1  0.374069  0.374034  0.127280  1
  Ru  Ru34  1  0.331797  0.669466  0.499490  1
  Ru  Ru35  1  0.169435  0.831838  0.000520  1
  Ru  Ru36  1  0.668252  0.330484  0.499752  1
  Ru  Ru37  1  0.830513  0.168211  0.000244  1
