# generated using pymatgen
data_Y5Sc3(TcI4)2
_symmetry_space_group_name_H-M   'P 1'
_cell_length_a   11.19520770
_cell_length_b   11.25526157
_cell_length_c   6.04139100
_cell_angle_alpha   89.98230515
_cell_angle_beta   89.96839706
_cell_angle_gamma   88.61544774
_symmetry_Int_Tables_number   1
_chemical_formula_structural   Y5Sc3(TcI4)2
_chemical_formula_sum   'Y5 Sc3 Tc2 I8'
_cell_volume   761.02301705
_cell_formula_units_Z   1
loop_
 _symmetry_equiv_pos_site_id
 _symmetry_equiv_pos_as_xyz
  1  'x, y, z'
loop_
 _atom_site_type_symbol
 _atom_site_label
 _atom_site_symmetry_multiplicity
 _atom_site_fract_x
 _atom_site_fract_y
 _atom_site_fract_z
 _atom_site_occupancy
  Y  Y0  1  0.199964  0.084645  0.499208  1
  Y  Y1  1  0.921699  0.797628  0.999627  1
  Y  Y2  1  0.913496  0.204358  0.499478  1
  Y  Y3  1  0.203039  0.911401  0.999483  1
  Y  Y4  1  0.796876  0.923401  0.499665  1
  Sc  Sc5  1  0.815250  0.076947  0.998359  1
  Sc  Sc6  1  0.077854  0.816865  0.498362  1
  Sc  Sc7  1  0.074546  0.181558  0.999606  1
  Tc  Tc8  1  0.999647  0.000312  0.249718  1
  Tc  Tc9  1  0.999941  0.000106  0.749017  1
  I  I10  1  0.638861  0.155952  0.509631  1
  I  I11  1  0.863223  0.648819  0.504045  1
  I  I12  1  0.347350  0.148321  0.996077  1
  I  I13  1  0.143872  0.356507  0.493715  1
  I  I14  1  0.646536  0.863863  0.004051  1
  I  I15  1  0.351438  0.843443  0.494977  1
  I  I16  1  0.154853  0.639739  0.009407  1
  I  I17  1  0.851553  0.346136  0.995575  1
