# generated using pymatgen
data_Tm3Sc3(Zn3C)2
_symmetry_space_group_name_H-M   'P 1'
_cell_length_a   8.83861154
_cell_length_b   8.83861257
_cell_length_c   8.83861300
_cell_angle_alpha   60.00000213
_cell_angle_beta   59.99999829
_cell_angle_gamma   59.99999837
_symmetry_Int_Tables_number   1
_chemical_formula_structural   Tm3Sc3(Zn3C)2
_chemical_formula_sum   'Tm6 Sc6 Zn12 C4'
_cell_volume   488.24438951
_cell_formula_units_Z   2
loop_
 _symmetry_equiv_pos_site_id
 _symmetry_equiv_pos_as_xyz
  1  'x, y, z'
loop_
 _atom_site_type_symbol
 _atom_site_label
 _atom_site_symmetry_multiplicity
 _atom_site_fract_x
 _atom_site_fract_y
 _atom_site_fract_z
 _atom_site_occupancy
  Tm  Tm0  1  0.801886  0.801886  0.198114  1
  Tm  Tm1  1  0.198114  0.801886  0.198114  1
  Tm  Tm2  1  0.801886  0.198114  0.198114  1
  Tm  Tm3  1  0.198114  0.198114  0.801886  1
  Tm  Tm4  1  0.801886  0.198114  0.801886  1
  Tm  Tm5  1  0.198114  0.801886  0.801886  1
  Sc  Sc6  1  0.441177  0.441177  0.058823  1
  Sc  Sc7  1  0.058823  0.441177  0.058823  1
  Sc  Sc8  1  0.441177  0.058823  0.058823  1
  Sc  Sc9  1  0.058823  0.058823  0.441177  1
  Sc  Sc10  1  0.441177  0.058823  0.441177  1
  Sc  Sc11  1  0.058823  0.441177  0.441177  1
  Zn  Zn12  1  0.827532  0.827532  0.517405  1
  Zn  Zn13  1  0.827532  0.517405  0.827532  1
  Zn  Zn14  1  0.517405  0.827532  0.827532  1
  Zn  Zn15  1  0.827532  0.827532  0.827532  1
  Zn  Zn16  1  0.420963  0.420963  0.737111  1
  Zn  Zn17  1  0.420963  0.737111  0.420963  1
  Zn  Zn18  1  0.737111  0.420963  0.420963  1
  Zn  Zn19  1  0.420963  0.420963  0.420963  1
  Zn  Zn20  1  0.625050  0.625050  0.124851  1
  Zn  Zn21  1  0.625050  0.124851  0.625050  1
  Zn  Zn22  1  0.124851  0.625050  0.625050  1
  Zn  Zn23  1  0.625050  0.625050  0.625050  1
  C  C24  1  0.131860  0.131860  0.604420  1
  C  C25  1  0.131860  0.604420  0.131860  1
  C  C26  1  0.604420  0.131860  0.131860  1
  C  C27  1  0.131860  0.131860  0.131860  1
