# generated using pymatgen
data_TbPr8NdRu4
_symmetry_space_group_name_H-M   'P 1'
_cell_length_a   8.91710249
_cell_length_b   8.91710272
_cell_length_c   7.42022100
_cell_angle_alpha   83.85121207
_cell_angle_beta   83.85121285
_cell_angle_gamma   43.73402244
_symmetry_Int_Tables_number   1
_chemical_formula_structural   TbPr8NdRu4
_chemical_formula_sum   'Tb1 Pr8 Nd1 Ru4'
_cell_volume   405.15970473
_cell_formula_units_Z   1
loop_
 _symmetry_equiv_pos_site_id
 _symmetry_equiv_pos_as_xyz
  1  'x, y, z'
loop_
 _atom_site_type_symbol
 _atom_site_label
 _atom_site_symmetry_multiplicity
 _atom_site_fract_x
 _atom_site_fract_y
 _atom_site_fract_z
 _atom_site_occupancy
  Tb  Tb0  1  0.570108  0.429892  0.750000  1
  Pr  Pr1  1  0.018918  0.798323  0.912750  1
  Pr  Pr2  1  0.201677  0.981082  0.587250  1
  Pr  Pr3  1  0.980345  0.203078  0.083558  1
  Pr  Pr4  1  0.796922  0.019655  0.416442  1
  Pr  Pr5  1  0.361392  0.209184  0.813207  1
  Pr  Pr6  1  0.790816  0.638608  0.686793  1
  Pr  Pr7  1  0.640188  0.791340  0.185706  1
  Pr  Pr8  1  0.208660  0.359812  0.314294  1
  Nd  Nd9  1  0.426369  0.573631  0.250000  1
  Ru  Ru10  1  0.182134  0.599431  0.576988  1
  Ru  Ru11  1  0.400569  0.817866  0.923012  1
  Ru  Ru12  1  0.819902  0.398002  0.428817  1
  Ru  Ru13  1  0.601998  0.180098  0.071183  1
