# generated using pymatgen
data_Gd2MnOs3
_symmetry_space_group_name_H-M   'P 1'
_cell_length_a   5.24059300
_cell_length_b   5.42485802
_cell_length_c   8.80029700
_cell_angle_alpha   90.00000000
_cell_angle_beta   90.00000000
_cell_angle_gamma   121.17011143
_symmetry_Int_Tables_number   1
_chemical_formula_structural   Gd2MnOs3
_chemical_formula_sum   'Gd4 Mn2 Os6'
_cell_volume   214.06928666
_cell_formula_units_Z   2
loop_
 _symmetry_equiv_pos_site_id
 _symmetry_equiv_pos_as_xyz
  1  'x, y, z'
loop_
 _atom_site_type_symbol
 _atom_site_label
 _atom_site_symmetry_multiplicity
 _atom_site_fract_x
 _atom_site_fract_y
 _atom_site_fract_z
 _atom_site_occupancy
  Gd  Gd0  1  0.339568  0.669785  0.064187  1
  Gd  Gd1  1  0.660432  0.330215  0.564187  1
  Gd  Gd2  1  0.660432  0.330215  0.935813  1
  Gd  Gd3  1  0.339568  0.669785  0.435813  1
  Mn  Mn4  1  0.670338  0.835169  0.750000  1
  Mn  Mn5  1  0.329662  0.164831  0.250000  1
  Os  Os6  1  0.000000  0.000000  0.500000  1
  Os  Os7  1  0.000000  0.000000  0.000000  1
  Os  Os8  1  0.167115  0.346179  0.750000  1
  Os  Os9  1  0.832885  0.179065  0.250000  1
  Os  Os10  1  0.832885  0.653821  0.250000  1
  Os  Os11  1  0.167115  0.820935  0.750000  1
