# generated using pymatgen
data_Tm3Fe7(P3Rh)2
_symmetry_space_group_name_H-M   'P 1'
_cell_length_a   3.72786200
_cell_length_b   10.69036100
_cell_length_c   12.17749600
_cell_angle_alpha   90.00000000
_cell_angle_beta   90.00000000
_cell_angle_gamma   90.00000000
_symmetry_Int_Tables_number   1
_chemical_formula_structural   Tm3Fe7(P3Rh)2
_chemical_formula_sum   'Tm6 Fe14 P12 Rh4'
_cell_volume   485.29989087
_cell_formula_units_Z   2
loop_
 _symmetry_equiv_pos_site_id
 _symmetry_equiv_pos_as_xyz
  1  'x, y, z'
loop_
 _atom_site_type_symbol
 _atom_site_label
 _atom_site_symmetry_multiplicity
 _atom_site_fract_x
 _atom_site_fract_y
 _atom_site_fract_z
 _atom_site_occupancy
  Tm  Tm0  1  0.000000  0.500000  0.523818  1
  Tm  Tm1  1  0.500000  0.000000  0.476182  1
  Tm  Tm2  1  0.500000  0.816514  0.203743  1
  Tm  Tm3  1  0.500000  0.183486  0.203743  1
  Tm  Tm4  1  0.000000  0.683486  0.796257  1
  Tm  Tm5  1  0.000000  0.316514  0.796257  1
  Fe  Fe6  1  0.000000  0.500000  0.990704  1
  Fe  Fe7  1  0.500000  0.000000  0.009296  1
  Fe  Fe8  1  0.500000  0.331084  0.994758  1
  Fe  Fe9  1  0.500000  0.668916  0.994758  1
  Fe  Fe10  1  0.000000  0.168916  0.005242  1
  Fe  Fe11  1  0.000000  0.831084  0.005242  1
  Fe  Fe12  1  0.500000  0.301028  0.430988  1
  Fe  Fe13  1  0.500000  0.698972  0.430988  1
  Fe  Fe14  1  0.000000  0.198972  0.569012  1
  Fe  Fe15  1  0.000000  0.801028  0.569012  1
  Fe  Fe16  1  0.500000  0.882604  0.710202  1
  Fe  Fe17  1  0.500000  0.117396  0.710202  1
  Fe  Fe18  1  0.000000  0.617396  0.289798  1
  Fe  Fe19  1  0.000000  0.382604  0.289798  1
  P  P20  1  0.500000  0.500000  0.891182  1
  P  P21  1  0.000000  0.000000  0.108818  1
  P  P22  1  0.500000  0.500000  0.347662  1
  P  P23  1  0.000000  0.000000  0.652338  1
  P  P24  1  0.500000  0.296990  0.614431  1
  P  P25  1  0.500000  0.703010  0.614431  1
  P  P26  1  0.000000  0.203010  0.385569  1
  P  P27  1  0.000000  0.796990  0.385569  1
  P  P28  1  0.500000  0.842374  0.895643  1
  P  P29  1  0.500000  0.157626  0.895643  1
  P  P30  1  0.000000  0.657626  0.104357  1
  P  P31  1  0.000000  0.342374  0.104357  1
  Rh  Rh32  1  0.500000  0.500000  0.156427  1
  Rh  Rh33  1  0.000000  0.000000  0.843573  1
  Rh  Rh34  1  0.500000  0.500000  0.698414  1
  Rh  Rh35  1  0.000000  0.000000  0.301586  1
