# generated using pymatgen
data_Tb10Th6MgZn3Ru4
_symmetry_space_group_name_H-M   'P 1'
_cell_length_a   9.61302509
_cell_length_b   9.73730471
_cell_length_c   9.73730547
_cell_angle_alpha   59.15130917
_cell_angle_beta   60.04618849
_cell_angle_gamma   60.04618467
_symmetry_Int_Tables_number   1
_chemical_formula_structural   Tb10Th6MgZn3Ru4
_chemical_formula_sum   'Tb10 Th6 Mg1 Zn3 Ru4'
_cell_volume   640.70551453
_cell_formula_units_Z   1
loop_
 _symmetry_equiv_pos_site_id
 _symmetry_equiv_pos_as_xyz
  1  'x, y, z'
loop_
 _atom_site_type_symbol
 _atom_site_label
 _atom_site_symmetry_multiplicity
 _atom_site_fract_x
 _atom_site_fract_y
 _atom_site_fract_z
 _atom_site_occupancy
  Tb  Tb0  1  0.439798  0.058955  0.442159  1
  Tb  Tb1  1  0.055822  0.443273  0.056644  1
  Tb  Tb2  1  0.439798  0.442159  0.058955  1
  Tb  Tb3  1  0.055822  0.056644  0.443273  1
  Tb  Tb4  1  0.177317  0.819410  0.819410  1
  Tb  Tb5  1  0.814089  0.184075  0.184075  1
  Tb  Tb6  1  0.810188  0.192123  0.814567  1
  Tb  Tb7  1  0.184562  0.813283  0.191391  1
  Tb  Tb8  1  0.810188  0.814567  0.192123  1
  Tb  Tb9  1  0.184562  0.191391  0.813283  1
  Th  Th10  1  0.591746  0.600385  0.600385  1
  Th  Th11  1  0.605632  0.593994  0.200210  1
  Th  Th12  1  0.605632  0.200210  0.593994  1
  Th  Th13  1  0.195143  0.604247  0.604247  1
  Th  Th14  1  0.062701  0.438382  0.438382  1
  Th  Th15  1  0.434723  0.065508  0.065508  1
  Mg  Mg16  1  0.534478  0.818882  0.818882  1
  Zn  Zn17  1  0.838241  0.829718  0.829718  1
  Zn  Zn18  1  0.830314  0.832878  0.501329  1
  Zn  Zn19  1  0.830314  0.501329  0.832878  1
  Ru  Ru20  1  0.379184  0.398928  0.398928  1
  Ru  Ru21  1  0.397618  0.376802  0.823030  1
  Ru  Ru22  1  0.397618  0.823030  0.376802  1
  Ru  Ru23  1  0.824513  0.399829  0.399829  1
