# generated using pymatgen
data_CaEu3(Ga7Ni)2
_symmetry_space_group_name_H-M   'P 1'
_cell_length_a   6.08854775
_cell_length_b   6.07784589
_cell_length_c   11.48396736
_cell_angle_alpha   74.65544465
_cell_angle_beta   74.62776208
_cell_angle_gamma   89.99999525
_symmetry_Int_Tables_number   1
_chemical_formula_structural   CaEu3(Ga7Ni)2
_chemical_formula_sum   'Ca1 Eu3 Ga14 Ni2'
_cell_volume   394.03014265
_cell_formula_units_Z   1
loop_
 _symmetry_equiv_pos_site_id
 _symmetry_equiv_pos_as_xyz
  1  'x, y, z'
loop_
 _atom_site_type_symbol
 _atom_site_label
 _atom_site_symmetry_multiplicity
 _atom_site_fract_x
 _atom_site_fract_y
 _atom_site_fract_z
 _atom_site_occupancy
  Ca  Ca0  1  0.247991  0.747991  0.504020  1
  Eu  Eu1  1  0.997220  0.997220  0.005559  1
  Eu  Eu2  1  0.499918  0.499918  0.000163  1
  Eu  Eu3  1  0.750026  0.250026  0.499947  1
  Ga  Ga4  1  0.203941  0.203941  0.592118  1
  Ga  Ga5  1  0.810389  0.810389  0.379223  1
  Ga  Ga6  1  0.606006  0.128296  0.255358  1
  Ga  Ga7  1  0.138635  0.616345  0.255358  1
  Ga  Ga8  1  0.606006  0.616345  0.255358  1
  Ga  Ga9  1  0.138635  0.128296  0.255358  1
  Ga  Ga10  1  0.866734  0.355646  0.754979  1
  Ga  Ga11  1  0.378288  0.889374  0.754979  1
  Ga  Ga12  1  0.866734  0.889374  0.754979  1
  Ga  Ga13  1  0.378288  0.355646  0.754979  1
  Ga  Ga14  1  0.691938  0.691938  0.616124  1
  Ga  Ga15  1  0.060347  0.560347  0.879307  1
  Ga  Ga16  1  0.453456  0.953456  0.093086  1
  Ga  Ga17  1  0.942003  0.442003  0.115994  1
  Ni  Ni18  1  0.314335  0.314335  0.371331  1
  Ni  Ni19  1  0.563946  0.063946  0.872111  1
