# generated using pymatgen
data_TbErCo12SiP6
_symmetry_space_group_name_H-M   'P 1'
_cell_length_a   9.03175100
_cell_length_b   9.03175055
_cell_length_c   3.59639000
_cell_angle_alpha   90.00000000
_cell_angle_beta   90.00000000
_cell_angle_gamma   120.00000531
_symmetry_Int_Tables_number   1
_chemical_formula_structural   TbErCo12SiP6
_chemical_formula_sum   'Tb1 Er1 Co12 Si1 P6'
_cell_volume   254.06291695
_cell_formula_units_Z   1
loop_
 _symmetry_equiv_pos_site_id
 _symmetry_equiv_pos_as_xyz
  1  'x, y, z'
loop_
 _atom_site_type_symbol
 _atom_site_label
 _atom_site_symmetry_multiplicity
 _atom_site_fract_x
 _atom_site_fract_y
 _atom_site_fract_z
 _atom_site_occupancy
  Tb  Tb0  1  0.333333  0.666667  0.500000  1
  Er  Er1  1  0.000000  0.000000  0.000000  1
  Co  Co2  1  0.100190  0.392355  0.000000  1
  Co  Co3  1  0.607645  0.707835  0.000000  1
  Co  Co4  1  0.292165  0.899810  0.000000  1
  Co  Co5  1  0.051235  0.769381  0.500000  1
  Co  Co6  1  0.230619  0.281854  0.500000  1
  Co  Co7  1  0.718146  0.948765  0.500000  1
  Co  Co8  1  0.825103  0.614409  0.000000  1
  Co  Co9  1  0.385591  0.210694  0.000000  1
  Co  Co10  1  0.789306  0.174897  0.000000  1
  Co  Co11  1  0.897356  0.433735  0.500000  1
  Co  Co12  1  0.566265  0.463621  0.500000  1
  Co  Co13  1  0.536379  0.102644  0.500000  1
  Si  Si14  1  0.666667  0.333333  0.000000  1
  P  P15  1  0.779106  0.736495  0.500000  1
  P  P16  1  0.263505  0.042611  0.500000  1
  P  P17  1  0.957389  0.220894  0.500000  1
  P  P18  1  0.072182  0.626812  0.000000  1
  P  P19  1  0.373188  0.445370  0.000000  1
  P  P20  1  0.554630  0.927818  0.000000  1
