# generated using pymatgen
data_Zr6BiPtPb
_symmetry_space_group_name_H-M   'P 1'
_cell_length_a   3.73151900
_cell_length_b   8.01423020
_cell_length_c   8.01423100
_cell_angle_alpha   119.99999918
_cell_angle_beta   90.00000000
_cell_angle_gamma   90.00000000
_symmetry_Int_Tables_number   1
_chemical_formula_structural   Zr6BiPtPb
_chemical_formula_sum   'Zr6 Bi1 Pt1 Pb1'
_cell_volume   207.55823148
_cell_formula_units_Z   1
loop_
 _symmetry_equiv_pos_site_id
 _symmetry_equiv_pos_as_xyz
  1  'x, y, z'
loop_
 _atom_site_type_symbol
 _atom_site_label
 _atom_site_symmetry_multiplicity
 _atom_site_fract_x
 _atom_site_fract_y
 _atom_site_fract_z
 _atom_site_occupancy
  Zr  Zr0  1  0.500000  0.752671  0.750813  1
  Zr  Zr1  1  0.500000  0.998142  0.247329  1
  Zr  Zr2  1  0.500000  0.249187  0.001858  1
  Zr  Zr3  1  0.000000  0.395252  0.395492  1
  Zr  Zr4  1  0.000000  0.000241  0.604748  1
  Zr  Zr5  1  0.000000  0.604508  0.999759  1
  Bi  Bi6  1  0.500000  0.333333  0.666667  1
  Pt  Pt7  1  0.000000  0.000000  0.000000  1
  Pb  Pb8  1  0.500000  0.666667  0.333333  1
