# generated using pymatgen
data_Tm12InFe2TcPd
_symmetry_space_group_name_H-M   'P 1'
_cell_length_a   8.18670585
_cell_length_b   8.18667574
_cell_length_c   8.18670785
_cell_angle_alpha   106.62639402
_cell_angle_beta   111.17275228
_cell_angle_gamma   110.65202782
_symmetry_Int_Tables_number   1
_chemical_formula_structural   Tm12InFe2TcPd
_chemical_formula_sum   'Tm12 In1 Fe2 Tc1 Pd1'
_cell_volume   421.59476409
_cell_formula_units_Z   1
loop_
 _symmetry_equiv_pos_site_id
 _symmetry_equiv_pos_as_xyz
  1  'x, y, z'
loop_
 _atom_site_type_symbol
 _atom_site_label
 _atom_site_symmetry_multiplicity
 _atom_site_fract_x
 _atom_site_fract_y
 _atom_site_fract_z
 _atom_site_occupancy
  Tm  Tm0  1  0.191701  0.417614  0.225913  1
  Tm  Tm1  1  0.808299  0.582386  0.774087  1
  Tm  Tm2  1  0.191699  0.965780  0.774080  1
  Tm  Tm3  1  0.927194  0.189917  0.737275  1
  Tm  Tm4  1  0.808301  0.034220  0.225920  1
  Tm  Tm5  1  0.072806  0.810083  0.262725  1
  Tm  Tm6  1  0.452642  0.189917  0.262724  1
  Tm  Tm7  1  0.547358  0.810083  0.737276  1
  Tm  Tm8  1  0.307564  0.310136  0.617697  1
  Tm  Tm9  1  0.692436  0.689864  0.382303  1
  Tm  Tm10  1  0.692439  0.310136  0.002572  1
  Tm  Tm11  1  0.307561  0.689864  0.997428  1
  In  In12  1  0.000000  0.500000  0.500000  1
  Fe  Fe13  1  0.382852  0.382858  0.000005  1
  Fe  Fe14  1  0.617148  0.617142  0.999995  1
  Tc  Tc15  1  0.000000  0.000000  0.000000  1
  Pd  Pd16  1  0.500000  0.000000  0.500000  1
