# generated using pymatgen
data_Hf3Mg(Pd3Pt)3
_symmetry_space_group_name_H-M   'P 1'
_cell_length_a   5.67872900
_cell_length_b   5.67872962
_cell_length_c   9.25148700
_cell_angle_alpha   90.00000000
_cell_angle_beta   90.00000000
_cell_angle_gamma   120.00000223
_symmetry_Int_Tables_number   1
_chemical_formula_structural   Hf3Mg(Pd3Pt)3
_chemical_formula_sum   'Hf3 Mg1 Pd9 Pt3'
_cell_volume   258.37143644
_cell_formula_units_Z   1
loop_
 _symmetry_equiv_pos_site_id
 _symmetry_equiv_pos_as_xyz
  1  'x, y, z'
loop_
 _atom_site_type_symbol
 _atom_site_label
 _atom_site_symmetry_multiplicity
 _atom_site_fract_x
 _atom_site_fract_y
 _atom_site_fract_z
 _atom_site_occupancy
  Hf  Hf0  1  0.000000  0.000000  0.499910  1
  Hf  Hf1  1  0.333333  0.666667  0.250000  1
  Hf  Hf2  1  0.000000  0.000000  0.000090  1
  Mg  Mg3  1  0.666667  0.333333  0.750000  1
  Pd  Pd4  1  0.168888  0.337776  0.750000  1
  Pd  Pd5  1  0.001548  0.500775  0.999497  1
  Pd  Pd6  1  0.499225  0.500775  0.999497  1
  Pd  Pd7  1  0.499225  0.500775  0.500503  1
  Pd  Pd8  1  0.499225  0.998452  0.500503  1
  Pd  Pd9  1  0.168888  0.831112  0.750000  1
  Pd  Pd10  1  0.662224  0.831112  0.750000  1
  Pd  Pd11  1  0.499225  0.998452  0.999497  1
  Pd  Pd12  1  0.001548  0.500775  0.500503  1
  Pt  Pt13  1  0.831002  0.662006  0.250000  1
  Pt  Pt14  1  0.337994  0.168998  0.250000  1
  Pt  Pt15  1  0.831002  0.168998  0.250000  1
