# generated using pymatgen
data_CaNd4Ga2Bi
_symmetry_space_group_name_H-M   'P 1'
_cell_length_a   9.14512112
_cell_length_b   9.14512059
_cell_length_c   9.14512031
_cell_angle_alpha   126.89843805
_cell_angle_beta   126.89843212
_cell_angle_gamma   78.41644347
_symmetry_Int_Tables_number   1
_chemical_formula_structural   CaNd4Ga2Bi
_chemical_formula_sum   'Ca2 Nd8 Ga4 Bi2'
_cell_volume   473.63666380
_cell_formula_units_Z   2
loop_
 _symmetry_equiv_pos_site_id
 _symmetry_equiv_pos_as_xyz
  1  'x, y, z'
loop_
 _atom_site_type_symbol
 _atom_site_label
 _atom_site_symmetry_multiplicity
 _atom_site_fract_x
 _atom_site_fract_y
 _atom_site_fract_z
 _atom_site_occupancy
  Ca  Ca0  1  0.500000  0.500000  0.000000  1
  Ca  Ca1  1  0.000000  0.000000  0.000000  1
  Nd  Nd2  1  0.522392  0.022392  0.830966  1
  Nd  Nd3  1  0.191425  0.691425  0.169034  1
  Nd  Nd4  1  0.022392  0.191425  0.500000  1
  Nd  Nd5  1  0.691425  0.522392  0.500000  1
  Nd  Nd6  1  0.477608  0.977608  0.169034  1
  Nd  Nd7  1  0.808575  0.308575  0.830966  1
  Nd  Nd8  1  0.977608  0.808575  0.500000  1
  Nd  Nd9  1  0.308575  0.477608  0.500000  1
  Ga  Ga10  1  0.876659  0.376659  0.253316  1
  Ga  Ga11  1  0.123341  0.623341  0.746684  1
  Ga  Ga12  1  0.376659  0.123341  0.500000  1
  Ga  Ga13  1  0.623341  0.876659  0.500000  1
  Bi  Bi14  1  0.250000  0.250000  0.000000  1
  Bi  Bi15  1  0.750000  0.750000  0.000000  1
