# generated using pymatgen
data_Tb2Mo3P7(RuRh2)3
_symmetry_space_group_name_H-M   'P 1'
_cell_length_a   3.94316165
_cell_length_b   9.52414764
_cell_length_c   9.52346096
_cell_angle_alpha   119.99894397
_cell_angle_beta   89.99668412
_cell_angle_gamma   90.00398313
_symmetry_Int_Tables_number   1
_chemical_formula_structural   Tb2Mo3P7(RuRh2)3
_chemical_formula_sum   'Tb2 Mo3 P7 Ru3 Rh6'
_cell_volume   309.74247076
_cell_formula_units_Z   1
loop_
 _symmetry_equiv_pos_site_id
 _symmetry_equiv_pos_as_xyz
  1  'x, y, z'
loop_
 _atom_site_type_symbol
 _atom_site_label
 _atom_site_symmetry_multiplicity
 _atom_site_fract_x
 _atom_site_fract_y
 _atom_site_fract_z
 _atom_site_occupancy
  Tb  Tb0  1  0.261870  0.666694  0.333354  1
  Tb  Tb1  1  0.762023  0.333364  0.666675  1
  Mo  Mo2  1  0.761907  0.094554  0.876829  1
  Mo  Mo3  1  0.761910  0.123279  0.217901  1
  Mo  Mo4  1  0.761921  0.782091  0.905380  1
  P  P5  1  0.261978  0.999970  0.999934  1
  P  P6  1  0.761876  0.881650  0.598675  1
  P  P7  1  0.761859  0.401226  0.282919  1
  P  P8  1  0.761871  0.717025  0.118317  1
  P  P9  1  0.261986  0.116564  0.411087  1
  P  P10  1  0.261997  0.589048  0.705523  1
  P  P11  1  0.261984  0.294584  0.883462  1
  Ru  Ru12  1  0.261816  0.885736  0.159490  1
  Ru  Ru13  1  0.261817  0.840414  0.726129  1
  Ru  Ru14  1  0.261790  0.273816  0.114324  1
  Rh  Rh15  1  0.761913  0.610472  0.555692  1
  Rh  Rh16  1  0.761896  0.444253  0.054676  1
  Rh  Rh17  1  0.761902  0.945147  0.389489  1
  Rh  Rh18  1  0.261895  0.369391  0.437386  1
  Rh  Rh19  1  0.261898  0.562756  0.932127  1
  Rh  Rh20  1  0.261893  0.067964  0.630634  1
