# generated using pymatgen
data_Pr4Ga5Br2
_symmetry_space_group_name_H-M   'P 1'
_cell_length_a   11.56145652
_cell_length_b   11.56145664
_cell_length_c   4.26562100
_cell_angle_alpha   90.00000000
_cell_angle_beta   90.00000000
_cell_angle_gamma   93.57692995
_symmetry_Int_Tables_number   1
_chemical_formula_structural   Pr4Ga5Br2
_chemical_formula_sum   'Pr8 Ga10 Br4'
_cell_volume   569.06321047
_cell_formula_units_Z   2
loop_
 _symmetry_equiv_pos_site_id
 _symmetry_equiv_pos_as_xyz
  1  'x, y, z'
loop_
 _atom_site_type_symbol
 _atom_site_label
 _atom_site_symmetry_multiplicity
 _atom_site_fract_x
 _atom_site_fract_y
 _atom_site_fract_z
 _atom_site_occupancy
  Pr  Pr0  1  0.674192  0.040327  0.500000  1
  Pr  Pr1  1  0.325808  0.959673  0.500000  1
  Pr  Pr2  1  0.040327  0.674192  0.500000  1
  Pr  Pr3  1  0.959673  0.325808  0.500000  1
  Pr  Pr4  1  0.730041  0.730041  0.000000  1
  Pr  Pr5  1  0.269959  0.269959  0.000000  1
  Pr  Pr6  1  0.368383  0.631617  0.000000  1
  Pr  Pr7  1  0.631617  0.368383  0.000000  1
  Ga  Ga8  1  0.579457  0.579457  0.500000  1
  Ga  Ga9  1  0.420543  0.420543  0.500000  1
  Ga  Ga10  1  0.536368  0.899356  0.000000  1
  Ga  Ga11  1  0.463632  0.100644  0.000000  1
  Ga  Ga12  1  0.899356  0.536368  0.000000  1
  Ga  Ga13  1  0.100644  0.463632  0.000000  1
  Ga  Ga14  1  0.512959  0.782122  0.500000  1
  Ga  Ga15  1  0.487041  0.217878  0.500000  1
  Ga  Ga16  1  0.217878  0.487041  0.500000  1
  Ga  Ga17  1  0.782122  0.512959  0.500000  1
  Br  Br18  1  0.124453  0.124453  0.500000  1
  Br  Br19  1  0.875547  0.875547  0.500000  1
  Br  Br20  1  0.823874  0.176126  0.000000  1
  Br  Br21  1  0.176126  0.823874  0.000000  1
