# generated using pymatgen
data_Er2Lu2CoCu3
_symmetry_space_group_name_H-M   'P 1'
_cell_length_a   4.29600800
_cell_length_b   5.34868629
_cell_length_c   6.95925355
_cell_angle_alpha   90.40254624
_cell_angle_beta   90.00000000
_cell_angle_gamma   90.00000000
_symmetry_Int_Tables_number   1
_chemical_formula_structural   Er2Lu2CoCu3
_chemical_formula_sum   'Er2 Lu2 Co1 Cu3'
_cell_volume   159.90577506
_cell_formula_units_Z   1
loop_
 _symmetry_equiv_pos_site_id
 _symmetry_equiv_pos_as_xyz
  1  'x, y, z'
loop_
 _atom_site_type_symbol
 _atom_site_label
 _atom_site_symmetry_multiplicity
 _atom_site_fract_x
 _atom_site_fract_y
 _atom_site_fract_z
 _atom_site_occupancy
  Er  Er0  1  0.000000  0.872237  0.812094  1
  Er  Er1  1  0.500000  0.137318  0.194607  1
  Lu  Lu2  1  0.000000  0.630800  0.325858  1
  Lu  Lu3  1  0.500000  0.357919  0.669211  1
  Co  Co4  1  0.000000  0.133344  0.468059  1
  Cu  Cu5  1  0.000000  0.376381  0.964105  1
  Cu  Cu6  1  0.500000  0.866774  0.536695  1
  Cu  Cu7  1  0.500000  0.625228  0.029371  1
