# generated using pymatgen
data_TbTm3Sb10
_symmetry_space_group_name_H-M   'P 1'
_cell_length_a   4.20090200
_cell_length_b   13.15316437
_cell_length_c   14.53762317
_cell_angle_alpha   78.46191842
_cell_angle_beta   90.00000000
_cell_angle_gamma   90.00000000
_symmetry_Int_Tables_number   1
_chemical_formula_structural   TbTm3Sb10
_chemical_formula_sum   'Tb2 Tm6 Sb20'
_cell_volume   787.04594263
_cell_formula_units_Z   2
loop_
 _symmetry_equiv_pos_site_id
 _symmetry_equiv_pos_as_xyz
  1  'x, y, z'
loop_
 _atom_site_type_symbol
 _atom_site_label
 _atom_site_symmetry_multiplicity
 _atom_site_fract_x
 _atom_site_fract_y
 _atom_site_fract_z
 _atom_site_occupancy
  Tb  Tb0  1  0.250000  0.953776  0.358803  1
  Tb  Tb1  1  0.750000  0.046224  0.641197  1
  Tm  Tm2  1  0.250000  0.395447  0.770640  1
  Tm  Tm3  1  0.750000  0.604553  0.229360  1
  Tm  Tm4  1  0.250000  0.661404  0.856143  1
  Tm  Tm5  1  0.750000  0.338596  0.143857  1
  Tm  Tm6  1  0.250000  0.668267  0.576325  1
  Tm  Tm7  1  0.750000  0.331733  0.423675  1
  Sb  Sb8  1  0.250000  0.144933  0.778701  1
  Sb  Sb9  1  0.750000  0.855067  0.221299  1
  Sb  Sb10  1  0.250000  0.145812  0.482257  1
  Sb  Sb11  1  0.750000  0.854188  0.517743  1
  Sb  Sb12  1  0.250000  0.153944  0.170157  1
  Sb  Sb13  1  0.750000  0.846056  0.829843  1
  Sb  Sb14  1  0.250000  0.420698  0.975412  1
  Sb  Sb15  1  0.750000  0.579302  0.024588  1
  Sb  Sb16  1  0.750000  0.028768  0.910334  1
  Sb  Sb17  1  0.250000  0.971232  0.089666  1
  Sb  Sb18  1  0.750000  0.141262  0.321870  1
  Sb  Sb19  1  0.250000  0.858738  0.678130  1
  Sb  Sb20  1  0.750000  0.279435  0.936688  1
  Sb  Sb21  1  0.250000  0.720565  0.063312  1
  Sb  Sb22  1  0.750000  0.286033  0.652967  1
  Sb  Sb23  1  0.250000  0.713967  0.347033  1
  Sb  Sb24  1  0.750000  0.576419  0.734405  1
  Sb  Sb25  1  0.250000  0.423581  0.265595  1
  Sb  Sb26  1  0.750000  0.571670  0.447090  1
  Sb  Sb27  1  0.250000  0.428330  0.552910  1
