# generated using pymatgen
data_Sr7Ca(BeSi3)4
_symmetry_space_group_name_H-M   'P 1'
_cell_length_a   8.01528500
_cell_length_b   8.02764573
_cell_length_c   9.30277500
_cell_angle_alpha   90.00000000
_cell_angle_beta   90.00000000
_cell_angle_gamma   119.94907374
_symmetry_Int_Tables_number   1
_chemical_formula_structural   Sr7Ca(BeSi3)4
_chemical_formula_sum   'Sr7 Ca1 Be4 Si12'
_cell_volume   518.64829345
_cell_formula_units_Z   1
loop_
 _symmetry_equiv_pos_site_id
 _symmetry_equiv_pos_as_xyz
  1  'x, y, z'
loop_
 _atom_site_type_symbol
 _atom_site_label
 _atom_site_symmetry_multiplicity
 _atom_site_fract_x
 _atom_site_fract_y
 _atom_site_fract_z
 _atom_site_occupancy
  Sr  Sr0  1  0.999968  0.999935  0.750000  1
  Sr  Sr1  1  0.000076  0.000152  0.250000  1
  Sr  Sr2  1  0.499895  0.500004  0.750000  1
  Sr  Sr3  1  0.499917  0.999835  0.750000  1
  Sr  Sr4  1  0.000108  0.500004  0.750000  1
  Sr  Sr5  1  0.500106  0.499970  0.250000  1
  Sr  Sr6  1  0.999863  0.499970  0.250000  1
  Ca  Ca7  1  0.499848  0.999694  0.250000  1
  Be  Be8  1  0.666575  0.333150  0.008049  1
  Be  Be9  1  0.666575  0.333150  0.491951  1
  Be  Be10  1  0.333446  0.666894  0.491572  1
  Be  Be11  1  0.333446  0.666894  0.008428  1
  Si  Si12  1  0.825656  0.171716  0.003640  1
  Si  Si13  1  0.828091  0.656181  0.000139  1
  Si  Si14  1  0.346059  0.171716  0.003640  1
  Si  Si15  1  0.825656  0.171716  0.496360  1
  Si  Si16  1  0.828091  0.656181  0.499861  1
  Si  Si17  1  0.346059  0.171716  0.496360  1
  Si  Si18  1  0.174367  0.828336  0.496120  1
  Si  Si19  1  0.653969  0.828336  0.496120  1
  Si  Si20  1  0.171944  0.343888  0.499412  1
  Si  Si21  1  0.174367  0.828336  0.003880  1
  Si  Si22  1  0.653969  0.828336  0.003880  1
  Si  Si23  1  0.171944  0.343888  0.000588  1
