# generated using pymatgen
data_SmGd5I18
_symmetry_space_group_name_H-M   'P 1'
_cell_length_a   7.80491602
_cell_length_b   7.80491654
_cell_length_c   25.21574500
_cell_angle_alpha   89.99541923
_cell_angle_beta   89.99542657
_cell_angle_gamma   119.99502151
_symmetry_Int_Tables_number   1
_chemical_formula_structural   SmGd5I18
_chemical_formula_sum   'Sm1 Gd5 I18'
_cell_volume   1330.33406929
_cell_formula_units_Z   1
loop_
 _symmetry_equiv_pos_site_id
 _symmetry_equiv_pos_as_xyz
  1  'x, y, z'
loop_
 _atom_site_type_symbol
 _atom_site_label
 _atom_site_symmetry_multiplicity
 _atom_site_fract_x
 _atom_site_fract_y
 _atom_site_fract_z
 _atom_site_occupancy
  Sm  Sm0  1  0.222631  0.777386  0.666746  1
  Gd  Gd1  1  0.221447  0.110618  0.000021  1
  Gd  Gd2  1  0.554703  0.777468  0.999909  1
  Gd  Gd3  1  0.222714  0.445373  0.333492  1
  Gd  Gd4  1  0.889240  0.778409  0.333306  1
  Gd  Gd5  1  0.889536  0.110573  0.666559  1
  I  I6  1  0.523162  0.444270  0.071431  1
  I  I7  1  0.887923  0.079066  0.071417  1
  I  I8  1  0.253576  0.809284  0.071529  1
  I  I9  1  0.190435  0.746527  0.261796  1
  I  I10  1  0.920803  0.111680  0.261917  1
  I  I11  1  0.556099  0.477104  0.261878  1
  I  I12  1  0.920899  0.477102  0.404868  1
  I  I13  1  0.190831  0.111530  0.404795  1
  I  I14  1  0.556073  0.746735  0.404890  1
  I  I15  1  0.558606  0.809205  0.594507  1
  I  I16  1  0.191205  0.081990  0.594552  1
  I  I17  1  0.918205  0.441516  0.594576  1
  I  I18  1  0.558597  0.081757  0.738785  1
  I  I19  1  0.917998  0.808865  0.738813  1
  I  I20  1  0.190707  0.441366  0.738865  1
  I  I21  1  0.253479  0.444313  0.928420  1
  I  I22  1  0.888034  0.808938  0.928495  1
  I  I23  1  0.523098  0.078922  0.928432  1
