# generated using pymatgen
data_La4ReTc3Cl2
_symmetry_space_group_name_H-M   'P 1'
_cell_length_a   4.15217400
_cell_length_b   4.15217336
_cell_length_c   17.60519000
_cell_angle_alpha   90.00000000
_cell_angle_beta   90.00000000
_cell_angle_gamma   119.99998919
_symmetry_Int_Tables_number   1
_chemical_formula_structural   La4ReTc3Cl2
_chemical_formula_sum   'La4 Re1 Tc3 Cl2'
_cell_volume   262.85873743
_cell_formula_units_Z   1
loop_
 _symmetry_equiv_pos_site_id
 _symmetry_equiv_pos_as_xyz
  1  'x, y, z'
loop_
 _atom_site_type_symbol
 _atom_site_label
 _atom_site_symmetry_multiplicity
 _atom_site_fract_x
 _atom_site_fract_y
 _atom_site_fract_z
 _atom_site_occupancy
  La  La0  1  0.000000  0.000000  0.121024  1
  La  La1  1  0.000000  0.000000  0.378310  1
  La  La2  1  0.000000  0.000000  0.621981  1
  La  La3  1  0.000000  0.000000  0.878746  1
  Re  Re4  1  0.333334  0.666667  0.517664  1
  Tc  Tc5  1  0.666666  0.333332  0.017570  1
  Tc  Tc6  1  0.333334  0.666667  0.982311  1
  Tc  Tc7  1  0.666666  0.333332  0.482529  1
  Cl  Cl8  1  0.333334  0.666667  0.249782  1
  Cl  Cl9  1  0.666666  0.333332  0.750084  1
