# generated using pymatgen
data_Zr3Al2CuO
_symmetry_space_group_name_H-M   'P 1'
_cell_length_a   8.61129347
_cell_length_b   8.61135817
_cell_length_c   8.61192003
_cell_angle_alpha   60.00243829
_cell_angle_beta   60.00101949
_cell_angle_gamma   59.99969312
_symmetry_Int_Tables_number   1
_chemical_formula_structural   Zr3Al2CuO
_chemical_formula_sum   'Zr12 Al8 Cu4 O4'
_cell_volume   451.58070264
_cell_formula_units_Z   4
loop_
 _symmetry_equiv_pos_site_id
 _symmetry_equiv_pos_as_xyz
  1  'x, y, z'
loop_
 _atom_site_type_symbol
 _atom_site_label
 _atom_site_symmetry_multiplicity
 _atom_site_fract_x
 _atom_site_fract_y
 _atom_site_fract_z
 _atom_site_occupancy
  Zr  Zr0  1  0.562761  0.937263  0.562710  1
  Zr  Zr1  1  0.312763  0.687210  0.687255  1
  Zr  Zr2  1  0.687261  0.312743  0.312734  1
  Zr  Zr3  1  0.312711  0.687289  0.312716  1
  Zr  Zr4  1  0.687266  0.687269  0.312729  1
  Zr  Zr5  1  0.312752  0.312764  0.687267  1
  Zr  Zr6  1  0.562733  0.562731  0.937271  1
  Zr  Zr7  1  0.937237  0.562790  0.562745  1
  Zr  Zr8  1  0.562739  0.937257  0.937267  1
  Zr  Zr9  1  0.937248  0.937236  0.562733  1
  Zr  Zr10  1  0.687239  0.312737  0.687290  1
  Zr  Zr11  1  0.937289  0.562711  0.937284  1
  Al  Al12  1  0.331857  0.331900  0.331901  1
  Al  Al13  1  0.245659  0.918113  0.918107  1
  Al  Al14  1  0.918137  0.245656  0.918098  1
  Al  Al15  1  0.918135  0.918103  0.245649  1
  Al  Al16  1  0.331863  0.004344  0.331902  1
  Al  Al17  1  0.331865  0.331897  0.004350  1
  Al  Al18  1  0.004341  0.331887  0.331893  1
  Al  Al19  1  0.918143  0.918100  0.918099  1
  Cu  Cu20  1  0.125000  0.125000  0.125000  1
  Cu  Cu21  1  0.625000  0.125000  0.125000  1
  Cu  Cu22  1  0.125000  0.625000  0.125000  1
  Cu  Cu23  1  0.125000  0.125000  0.625000  1
  O  O24  1  0.625000  0.625000  0.625000  1
  O  O25  1  0.125000  0.625000  0.625000  1
  O  O26  1  0.625000  0.125000  0.625000  1
  O  O27  1  0.625000  0.625000  0.125000  1
