# generated using pymatgen
data_Ti6In5Co12Sn
_symmetry_space_group_name_H-M   'P 1'
_cell_length_a   4.29025800
_cell_length_b   6.10305000
_cell_length_c   12.89855801
_cell_angle_alpha   90.00459106
_cell_angle_beta   90.00100499
_cell_angle_gamma   90.00029709
_symmetry_Int_Tables_number   1
_chemical_formula_structural   Ti6In5Co12Sn
_chemical_formula_sum   'Ti6 In5 Co12 Sn1'
_cell_volume   337.73144482
_cell_formula_units_Z   1
loop_
 _symmetry_equiv_pos_site_id
 _symmetry_equiv_pos_as_xyz
  1  'x, y, z'
loop_
 _atom_site_type_symbol
 _atom_site_label
 _atom_site_symmetry_multiplicity
 _atom_site_fract_x
 _atom_site_fract_y
 _atom_site_fract_z
 _atom_site_occupancy
  Ti  Ti0  1  0.000006  0.500009  0.999994  1
  Ti  Ti1  1  0.500143  0.999971  0.168156  1
  Ti  Ti2  1  0.000160  0.500049  0.333593  1
  Ti  Ti3  1  0.499993  0.999954  0.500007  1
  Ti  Ti4  1  0.999840  0.500033  0.666415  1
  Ti  Ti5  1  0.499857  0.999982  0.831830  1
  In  In6  1  0.500152  0.500072  0.166410  1
  In  In7  1  0.000162  0.999939  0.333443  1
  In  In8  1  0.500001  0.500011  0.500016  1
  In  In9  1  0.999831  0.999946  0.666551  1
  In  In10  1  0.499852  0.500052  0.833590  1
  Co  Co11  1  0.499998  0.247629  0.999991  1
  Co  Co12  1  0.499997  0.752384  0.999993  1
  Co  Co13  1  0.000182  0.247835  0.165621  1
  Co  Co14  1  0.000180  0.752161  0.165603  1
  Co  Co15  1  0.500194  0.250669  0.333223  1
  Co  Co16  1  0.500193  0.749333  0.333207  1
  Co  Co17  1  0.999998  0.249662  0.500008  1
  Co  Co18  1  0.999997  0.750329  0.500003  1
  Co  Co19  1  0.499794  0.250641  0.666788  1
  Co  Co20  1  0.499794  0.749348  0.666812  1
  Co  Co21  1  0.999836  0.247840  0.834369  1
  Co  Co22  1  0.999836  0.752154  0.834382  1
  Sn  Sn23  1  0.999999  0.999993  0.999993  1
