# generated using pymatgen
data_SrPaNi12P5
_symmetry_space_group_name_H-M   'P 1'
_cell_length_a   3.65954500
_cell_length_b   10.74145232
_cell_length_c   13.16614449
_cell_angle_alpha   71.75047591
_cell_angle_beta   90.00000000
_cell_angle_gamma   90.00000000
_symmetry_Int_Tables_number   1
_chemical_formula_structural   SrPaNi12P5
_chemical_formula_sum   'Sr2 Pa2 Ni24 P10'
_cell_volume   491.51405570
_cell_formula_units_Z   2
loop_
 _symmetry_equiv_pos_site_id
 _symmetry_equiv_pos_as_xyz
  1  'x, y, z'
loop_
 _atom_site_type_symbol
 _atom_site_label
 _atom_site_symmetry_multiplicity
 _atom_site_fract_x
 _atom_site_fract_y
 _atom_site_fract_z
 _atom_site_occupancy
  Sr  Sr0  1  0.250000  0.247586  0.188120  1
  Sr  Sr1  1  0.750000  0.752414  0.811880  1
  Pa  Pa2  1  0.250000  0.280724  0.680785  1
  Pa  Pa3  1  0.750000  0.719276  0.319215  1
  Ni  Ni4  1  0.250000  0.830669  0.145476  1
  Ni  Ni5  1  0.750000  0.169331  0.854524  1
  Ni  Ni6  1  0.250000  0.286629  0.442591  1
  Ni  Ni7  1  0.750000  0.713371  0.557409  1
  Ni  Ni8  1  0.250000  0.066788  0.018272  1
  Ni  Ni9  1  0.750000  0.933212  0.981728  1
  Ni  Ni10  1  0.250000  0.062676  0.446247  1
  Ni  Ni11  1  0.750000  0.937324  0.553753  1
  Ni  Ni12  1  0.250000  0.592734  0.695028  1
  Ni  Ni13  1  0.750000  0.407266  0.304972  1
  Ni  Ni14  1  0.250000  0.582243  0.010771  1
  Ni  Ni15  1  0.750000  0.417757  0.989229  1
  Ni  Ni16  1  0.250000  0.581351  0.505813  1
  Ni  Ni17  1  0.750000  0.418649  0.494187  1
  Ni  Ni18  1  0.250000  0.295175  0.914730  1
  Ni  Ni19  1  0.750000  0.704825  0.085270  1
  Ni  Ni20  1  0.250000  0.998638  0.657612  1
  Ni  Ni21  1  0.750000  0.001362  0.342388  1
  Ni  Ni22  1  0.250000  0.833481  0.434873  1
  Ni  Ni23  1  0.750000  0.166519  0.565127  1
  Ni  Ni24  1  0.250000  0.995410  0.847034  1
  Ni  Ni25  1  0.750000  0.004590  0.152966  1
  Ni  Ni26  1  0.250000  0.572185  0.204214  1
  Ni  Ni27  1  0.750000  0.427815  0.795786  1
  P  P28  1  0.250000  0.507181  0.872054  1
  P  P29  1  0.750000  0.492819  0.127946  1
  P  P30  1  0.250000  0.804848  0.985677  1
  P  P31  1  0.750000  0.195152  0.014323  1
  P  P32  1  0.250000  0.496532  0.376503  1
  P  P33  1  0.750000  0.503468  0.623497  1
  P  P34  1  0.250000  0.812883  0.608155  1
  P  P35  1  0.750000  0.187117  0.391845  1
  P  P36  1  0.250000  0.947160  0.260140  1
  P  P37  1  0.750000  0.052840  0.739860  1
