# generated using pymatgen
data_K4Zr6CoCl18
_symmetry_space_group_name_H-M   'P 1'
_cell_length_a   10.09630687
_cell_length_b   10.26705794
_cell_length_c   10.37957301
_cell_angle_alpha   118.40967784
_cell_angle_beta   100.16287167
_cell_angle_gamma   103.62139949
_symmetry_Int_Tables_number   1
_chemical_formula_structural   K4Zr6CoCl18
_chemical_formula_sum   'K4 Zr6 Co1 Cl18'
_cell_volume   865.78303554
_cell_formula_units_Z   1
loop_
 _symmetry_equiv_pos_site_id
 _symmetry_equiv_pos_as_xyz
  1  'x, y, z'
loop_
 _atom_site_type_symbol
 _atom_site_label
 _atom_site_symmetry_multiplicity
 _atom_site_fract_x
 _atom_site_fract_y
 _atom_site_fract_z
 _atom_site_occupancy
  K  K0  1  0.652604  0.537764  0.226848  1
  K  K1  1  0.347396  0.462236  0.773152  1
  K  K2  1  0.686792  0.225093  0.564067  1
  K  K3  1  0.313208  0.774907  0.435933  1
  Zr  Zr4  1  0.159105  0.060990  0.245869  1
  Zr  Zr5  1  0.840895  0.939010  0.754131  1
  Zr  Zr6  1  0.853409  0.134964  0.141995  1
  Zr  Zr7  1  0.146591  0.865036  0.858005  1
  Zr  Zr8  1  0.153407  0.253976  0.047778  1
  Zr  Zr9  1  0.846593  0.746024  0.952222  1
  Co  Co10  1  0.000000  0.000000  0.000000  1
  Cl  Cl11  1  0.007654  0.409913  0.196228  1
  Cl  Cl12  1  0.992346  0.590087  0.803772  1
  Cl  Cl13  1  0.328395  0.332428  0.309636  1
  Cl  Cl14  1  0.671605  0.667572  0.690364  1
  Cl  Cl15  1  0.326683  0.524873  0.101786  1
  Cl  Cl16  1  0.673317  0.475127  0.898214  1
  Cl  Cl17  1  0.005438  0.796025  0.209018  1
  Cl  Cl18  1  0.994562  0.203975  0.790982  1
  Cl  Cl19  1  0.701569  0.279797  0.292662  1
  Cl  Cl20  1  0.298431  0.720203  0.707338  1
  Cl  Cl21  1  0.315796  0.127449  0.904098  1
  Cl  Cl22  1  0.684204  0.872551  0.095902  1
  Cl  Cl23  1  0.014404  0.204241  0.409218  1
  Cl  Cl24  1  0.985596  0.795759  0.590782  1
  Cl  Cl25  1  0.318685  0.922510  0.109853  1
  Cl  Cl26  1  0.681315  0.077490  0.890147  1
  Cl  Cl27  1  0.337500  0.122168  0.505663  1
  Cl  Cl28  1  0.662500  0.877832  0.494337  1
