# generated using pymatgen
data_Ac5SnBi2Se
_symmetry_space_group_name_H-M   'P 1'
_cell_length_a   10.13139200
_cell_length_b   10.07266351
_cell_length_c   7.24555700
_cell_angle_alpha   90.00000000
_cell_angle_beta   90.00000000
_cell_angle_gamma   120.19305897
_symmetry_Int_Tables_number   1
_chemical_formula_structural   Ac5SnBi2Se
_chemical_formula_sum   'Ac10 Sn2 Bi4 Se2'
_cell_volume   639.09834147
_cell_formula_units_Z   2
loop_
 _symmetry_equiv_pos_site_id
 _symmetry_equiv_pos_as_xyz
  1  'x, y, z'
loop_
 _atom_site_type_symbol
 _atom_site_label
 _atom_site_symmetry_multiplicity
 _atom_site_fract_x
 _atom_site_fract_y
 _atom_site_fract_z
 _atom_site_occupancy
  Ac  Ac0  1  0.257478  0.000000  0.750000  1
  Ac  Ac1  1  0.742522  0.000000  0.250000  1
  Ac  Ac2  1  0.996415  0.252506  0.750000  1
  Ac  Ac3  1  0.003585  0.747494  0.250000  1
  Ac  Ac4  1  0.743908  0.747494  0.750000  1
  Ac  Ac5  1  0.256092  0.252506  0.250000  1
  Ac  Ac6  1  0.336824  0.673650  0.500000  1
  Ac  Ac7  1  0.663176  0.326350  0.500000  1
  Ac  Ac8  1  0.663176  0.326350  0.000000  1
  Ac  Ac9  1  0.336824  0.673650  0.000000  1
  Sn  Sn10  1  0.607368  0.000000  0.750000  1
  Sn  Sn11  1  0.392632  0.000000  0.250000  1
  Bi  Bi12  1  0.998333  0.607604  0.750000  1
  Bi  Bi13  1  0.001667  0.392396  0.250000  1
  Bi  Bi14  1  0.390730  0.392396  0.750000  1
  Bi  Bi15  1  0.609270  0.607604  0.250000  1
  Se  Se16  1  0.000000  0.000000  0.500000  1
  Se  Se17  1  0.000000  0.000000  0.000000  1
