# generated using pymatgen
data_DyHoTcB8Rh
_symmetry_space_group_name_H-M   'P 1'
_cell_length_a   3.57759900
_cell_length_b   5.95484472
_cell_length_c   11.53956107
_cell_angle_alpha   90.23826519
_cell_angle_beta   90.00000000
_cell_angle_gamma   90.00000000
_symmetry_Int_Tables_number   1
_chemical_formula_structural   DyHoTcB8Rh
_chemical_formula_sum   'Dy2 Ho2 Tc2 B16 Rh2'
_cell_volume   245.83722023
_cell_formula_units_Z   2
loop_
 _symmetry_equiv_pos_site_id
 _symmetry_equiv_pos_as_xyz
  1  'x, y, z'
loop_
 _atom_site_type_symbol
 _atom_site_label
 _atom_site_symmetry_multiplicity
 _atom_site_fract_x
 _atom_site_fract_y
 _atom_site_fract_z
 _atom_site_occupancy
  Dy  Dy0  1  0.500000  0.371495  0.149131  1
  Dy  Dy1  1  0.500000  0.628505  0.850869  1
  Ho  Ho2  1  0.500000  0.129015  0.648726  1
  Ho  Ho3  1  0.500000  0.870985  0.351274  1
  Tc  Tc4  1  0.500000  0.365494  0.411178  1
  Tc  Tc5  1  0.500000  0.634506  0.588822  1
  B  B6  1  0.000000  0.112500  0.047539  1
  B  B7  1  0.000000  0.887500  0.952461  1
  B  B8  1  0.000000  0.387106  0.546679  1
  B  B9  1  0.000000  0.612894  0.453321  1
  B  B10  1  0.000000  0.135156  0.469279  1
  B  B11  1  0.000000  0.864844  0.530721  1
  B  B12  1  0.000000  0.363711  0.969086  1
  B  B13  1  0.000000  0.636289  0.030914  1
  B  B14  1  0.000000  0.023194  0.193094  1
  B  B15  1  0.000000  0.976806  0.806906  1
  B  B16  1  0.000000  0.475852  0.692218  1
  B  B17  1  0.000000  0.524148  0.307782  1
  B  B18  1  0.000000  0.211128  0.314362  1
  B  B19  1  0.000000  0.788872  0.685638  1
  B  B20  1  0.000000  0.289619  0.813770  1
  B  B21  1  0.000000  0.710381  0.186230  1
  Rh  Rh22  1  0.500000  0.140606  0.905564  1
  Rh  Rh23  1  0.500000  0.859394  0.094436  1
