# generated using pymatgen
data_Tb8Ir3WO24
_symmetry_space_group_name_H-M   'P 1'
_cell_length_a   5.30718116
_cell_length_b   9.20383856
_cell_length_c   9.95725508
_cell_angle_alpha   90.07223362
_cell_angle_beta   90.03137977
_cell_angle_gamma   90.08585524
_symmetry_Int_Tables_number   1
_chemical_formula_structural   Tb8Ir3WO24
_chemical_formula_sum   'Tb8 Ir3 W1 O24'
_cell_volume   486.37544337
_cell_formula_units_Z   1
loop_
 _symmetry_equiv_pos_site_id
 _symmetry_equiv_pos_as_xyz
  1  'x, y, z'
loop_
 _atom_site_type_symbol
 _atom_site_label
 _atom_site_symmetry_multiplicity
 _atom_site_fract_x
 _atom_site_fract_y
 _atom_site_fract_z
 _atom_site_occupancy
  Tb  Tb0  1  0.983667  0.601084  0.534427  1
  Tb  Tb1  1  0.484043  0.896078  0.467311  1
  Tb  Tb2  1  0.020260  0.102110  0.962367  1
  Tb  Tb3  1  0.516594  0.398656  0.034148  1
  Tb  Tb4  1  0.461020  0.781256  0.869617  1
  Tb  Tb5  1  0.960297  0.719127  0.129746  1
  Tb  Tb6  1  0.040912  0.218183  0.369804  1
  Tb  Tb7  1  0.540482  0.281819  0.629719  1
  Ir  Ir8  1  0.959188  0.996512  0.647365  1
  Ir  Ir9  1  0.458881  0.503422  0.351847  1
  Ir  Ir10  1  0.041198  0.496440  0.851888  1
  W  W11  1  0.540149  0.004864  0.151228  1
  O  O12  1  0.752662  0.088049  0.502396  1
  O  O13  1  0.252092  0.410711  0.496538  1
  O  O14  1  0.247069  0.588505  0.997306  1
  O  O15  1  0.746205  0.911791  0.004759  1
  O  O16  1  0.233518  0.115993  0.570037  1
  O  O17  1  0.733453  0.383722  0.429848  1
  O  O18  1  0.765671  0.614835  0.930845  1
  O  O19  1  0.268733  0.885945  0.067530  1
  O  O20  1  0.084063  0.844128  0.528180  1
  O  O21  1  0.583865  0.653989  0.473669  1
  O  O22  1  0.914980  0.344436  0.971010  1
  O  O23  1  0.412988  0.157006  0.030741  1
  O  O24  1  0.691979  0.859941  0.264622  1
  O  O25  1  0.187440  0.642785  0.736649  1
  O  O26  1  0.312100  0.357460  0.236690  1
  O  O27  1  0.812292  0.142548  0.762721  1
  O  O28  1  0.329150  0.048142  0.299221  1
  O  O29  1  0.834344  0.446361  0.701849  1
  O  O30  1  0.675351  0.865271  0.682200  1
  O  O31  1  0.167490  0.946479  0.796665  1
  O  O32  1  0.821350  0.136907  0.179218  1
  O  O33  1  0.324606  0.365643  0.817418  1
  O  O34  1  0.176503  0.635330  0.318062  1
  O  O35  1  0.665401  0.554472  0.202358  1
