# generated using pymatgen
data_Sm3Tm(AuCl6)4
_symmetry_space_group_name_H-M   'P 1'
_cell_length_a   8.04767051
_cell_length_b   10.00239085
_cell_length_c   14.25828000
_cell_angle_alpha   102.85419716
_cell_angle_beta   97.23333747
_cell_angle_gamma   113.01207547
_symmetry_Int_Tables_number   1
_chemical_formula_structural   Sm3Tm(AuCl6)4
_chemical_formula_sum   'Sm3 Tm1 Au4 Cl24'
_cell_volume   1000.52507008
_cell_formula_units_Z   1
loop_
 _symmetry_equiv_pos_site_id
 _symmetry_equiv_pos_as_xyz
  1  'x, y, z'
loop_
 _atom_site_type_symbol
 _atom_site_label
 _atom_site_symmetry_multiplicity
 _atom_site_fract_x
 _atom_site_fract_y
 _atom_site_fract_z
 _atom_site_occupancy
  Sm  Sm0  1  0.578142  0.927427  0.623350  1
  Sm  Sm1  1  0.420547  0.071422  0.375619  1
  Sm  Sm2  1  0.970528  0.315466  0.872989  1
  Tm  Tm3  1  0.031697  0.685001  0.128032  1
  Au  Au4  1  0.288875  0.633867  0.763413  1
  Au  Au5  1  0.711970  0.367198  0.236091  1
  Au  Au6  1  0.499825  0.499721  0.499802  1
  Au  Au7  1  0.000049  0.999188  0.000721  1
  Cl  Cl8  1  0.595999  0.732701  0.751053  1
  Cl  Cl9  1  0.404743  0.267823  0.249065  1
  Cl  Cl10  1  0.276868  0.847820  0.732098  1
  Cl  Cl11  1  0.723488  0.152893  0.267931  1
  Cl  Cl12  1  0.979678  0.536463  0.772024  1
  Cl  Cl13  1  0.020210  0.467698  0.225808  1
  Cl  Cl14  1  0.299656  0.416277  0.790848  1
  Cl  Cl15  1  0.705317  0.585654  0.208310  1
  Cl  Cl16  1  0.687964  0.373135  0.501993  1
  Cl  Cl17  1  0.311749  0.626562  0.497824  1
  Cl  Cl18  1  0.754465  0.732943  0.532903  1
  Cl  Cl19  1  0.245044  0.266333  0.466725  1
  Cl  Cl20  1  0.789984  0.102631  0.976491  1
  Cl  Cl21  1  0.206409  0.893018  0.025767  1
  Cl  Cl22  1  0.780849  0.789821  0.031038  1
  Cl  Cl23  1  0.221966  0.208304  0.970398  1
  Cl  Cl24  1  0.622006  0.196074  0.746404  1
  Cl  Cl25  1  0.371006  0.801785  0.251384  1
  Cl  Cl26  1  0.938662  0.059229  0.731659  1
  Cl  Cl27  1  0.060067  0.933940  0.264385  1
  Cl  Cl28  1  0.717466  0.047479  0.482269  1
  Cl  Cl29  1  0.281780  0.952167  0.517124  1
  Cl  Cl30  1  0.776720  0.442120  0.981600  1
  Cl  Cl31  1  0.226273  0.567840  0.024881  1
