# generated using pymatgen
data_Gd3Dy(NiB10)2
_symmetry_space_group_name_H-M   'P 1'
_cell_length_a   4.16189500
_cell_length_b   5.57842003
_cell_length_c   11.14225204
_cell_angle_alpha   89.98931178
_cell_angle_beta   90.00002920
_cell_angle_gamma   90.00004808
_symmetry_Int_Tables_number   1
_chemical_formula_structural   Gd3Dy(NiB10)2
_chemical_formula_sum   'Gd3 Dy1 Ni2 B20'
_cell_volume   258.68741512
_cell_formula_units_Z   1
loop_
 _symmetry_equiv_pos_site_id
 _symmetry_equiv_pos_as_xyz
  1  'x, y, z'
loop_
 _atom_site_type_symbol
 _atom_site_label
 _atom_site_symmetry_multiplicity
 _atom_site_fract_x
 _atom_site_fract_y
 _atom_site_fract_z
 _atom_site_occupancy
  Gd  Gd0  1  0.500000  0.813767  0.637436  1
  Gd  Gd1  1  0.500000  0.313715  0.862342  1
  Gd  Gd2  1  0.500000  0.686030  0.137586  1
  Dy  Dy3  1  0.500000  0.185863  0.362396  1
  Ni  Ni4  1  0.000000  0.000066  0.000399  1
  Ni  Ni5  1  0.000000  0.499670  0.499639  1
  B  B6  1  0.000000  0.374394  0.041332  1
  B  B7  1  0.000000  0.625882  0.959122  1
  B  B8  1  0.000000  0.125814  0.540646  1
  B  B9  1  0.000000  0.874359  0.458762  1
  B  B10  1  0.000000  0.341473  0.198738  1
  B  B11  1  0.000000  0.658350  0.801628  1
  B  B12  1  0.000000  0.158235  0.698146  1
  B  B13  1  0.000000  0.841381  0.301446  1
  B  B14  1  0.000000  0.030224  0.186818  1
  B  B15  1  0.000000  0.969827  0.813371  1
  B  B16  1  0.000000  0.469734  0.686535  1
  B  B17  1  0.000000  0.529971  0.313410  1
  B  B18  1  0.301376  0.201829  0.114941  1
  B  B19  1  0.698700  0.798473  0.885587  1
  B  B20  1  0.301300  0.798473  0.885587  1
  B  B21  1  0.698690  0.298294  0.614253  1
  B  B22  1  0.698624  0.201829  0.114941  1
  B  B23  1  0.301415  0.702025  0.385343  1
  B  B24  1  0.698585  0.702025  0.385343  1
  B  B25  1  0.301310  0.298294  0.614253  1
