# generated using pymatgen
data_KCu(BrO3)4
_symmetry_space_group_name_H-M   'P 1'
_cell_length_a   5.79656300
_cell_length_b   7.44598855
_cell_length_c   8.41044327
_cell_angle_alpha   109.05829200
_cell_angle_beta   90.00000000
_cell_angle_gamma   112.90725514
_symmetry_Int_Tables_number   1
_chemical_formula_structural   KCu(BrO3)4
_chemical_formula_sum   'K1 Cu1 Br4 O12'
_cell_volume   312.66243246
_cell_formula_units_Z   1
loop_
 _symmetry_equiv_pos_site_id
 _symmetry_equiv_pos_as_xyz
  1  'x, y, z'
loop_
 _atom_site_type_symbol
 _atom_site_label
 _atom_site_symmetry_multiplicity
 _atom_site_fract_x
 _atom_site_fract_y
 _atom_site_fract_z
 _atom_site_occupancy
  K  K0  1  0.020055  0.000000  0.000000  1
  Cu  Cu1  1  0.218778  0.000000  0.500000  1
  Br  Br2  1  0.376834  0.730976  0.647117  1
  Br  Br3  1  0.645857  0.269024  0.352883  1
  Br  Br4  1  0.231527  0.636057  0.164925  1
  Br  Br5  1  0.595470  0.363943  0.835076  1
  O  O6  1  0.529692  0.719166  0.479944  1
  O  O7  1  0.810527  0.280834  0.520056  1
  O  O8  1  0.559591  0.948136  0.804668  1
  O  O9  1  0.611456  0.051864  0.195332  1
  O  O10  1  0.118238  0.783177  0.587393  1
  O  O11  1  0.335060  0.216823  0.412607  1
  O  O12  1  0.058426  0.414008  0.191634  1
  O  O13  1  0.644417  0.585992  0.808366  1
  O  O14  1  0.124007  0.613407  0.972964  1
  O  O15  1  0.510599  0.386593  0.027036  1
  O  O16  1  0.093952  0.813014  0.279563  1
  O  O17  1  0.280937  0.186986  0.720437  1
