# generated using pymatgen
data_Dy2HfZr(NiP)4
_symmetry_space_group_name_H-M   'P 1'
_cell_length_a   3.85536000
_cell_length_b   3.85536026
_cell_length_c   14.69439300
_cell_angle_alpha   90.00000000
_cell_angle_beta   90.00000000
_cell_angle_gamma   119.99999778
_symmetry_Int_Tables_number   1
_chemical_formula_structural   Dy2HfZr(NiP)4
_chemical_formula_sum   'Dy2 Hf1 Zr1 Ni4 P4'
_cell_volume   189.15254797
_cell_formula_units_Z   1
loop_
 _symmetry_equiv_pos_site_id
 _symmetry_equiv_pos_as_xyz
  1  'x, y, z'
loop_
 _atom_site_type_symbol
 _atom_site_label
 _atom_site_symmetry_multiplicity
 _atom_site_fract_x
 _atom_site_fract_y
 _atom_site_fract_z
 _atom_site_occupancy
  Dy  Dy0  1  0.000000  0.000000  0.501440  1
  Dy  Dy1  1  0.000000  0.000000  0.998560  1
  Hf  Hf2  1  0.000000  0.000000  0.750000  1
  Zr  Zr3  1  0.000000  0.000000  0.250000  1
  Ni  Ni4  1  0.333333  0.666667  0.355852  1
  Ni  Ni5  1  0.666667  0.333333  0.649916  1
  Ni  Ni6  1  0.666667  0.333333  0.850084  1
  Ni  Ni7  1  0.333333  0.666667  0.144148  1
  P  P8  1  0.333333  0.666667  0.874435  1
  P  P9  1  0.666667  0.333333  0.124616  1
  P  P10  1  0.666667  0.333333  0.375384  1
  P  P11  1  0.333333  0.666667  0.625565  1
