# generated using pymatgen
data_Er3GeSe2O10F
_symmetry_space_group_name_H-M   'P 1'
_cell_length_a   5.99885200
_cell_length_b   10.40570800
_cell_length_c   15.66416000
_cell_angle_alpha   90.00000000
_cell_angle_beta   90.00000000
_cell_angle_gamma   90.00000000
_symmetry_Int_Tables_number   1
_chemical_formula_structural   Er3GeSe2O10F
_chemical_formula_sum   'Er12 Ge4 Se8 O40 F4'
_cell_volume   977.79292997
_cell_formula_units_Z   4
loop_
 _symmetry_equiv_pos_site_id
 _symmetry_equiv_pos_as_xyz
  1  'x, y, z'
loop_
 _atom_site_type_symbol
 _atom_site_label
 _atom_site_symmetry_multiplicity
 _atom_site_fract_x
 _atom_site_fract_y
 _atom_site_fract_z
 _atom_site_occupancy
  Er  Er0  1  0.927266  0.885894  0.655220  1
  Er  Er1  1  0.072734  0.114106  0.344780  1
  Er  Er2  1  0.250000  0.375503  0.500000  1
  Er  Er3  1  0.750000  0.624497  0.500000  1
  Er  Er4  1  0.427266  0.114106  0.655220  1
  Er  Er5  1  0.427266  0.385894  0.844780  1
  Er  Er6  1  0.572734  0.614106  0.155220  1
  Er  Er7  1  0.750000  0.875503  0.000000  1
  Er  Er8  1  0.927266  0.614106  0.844780  1
  Er  Er9  1  0.072734  0.385894  0.155220  1
  Er  Er10  1  0.572734  0.885894  0.344780  1
  Er  Er11  1  0.250000  0.124497  0.000000  1
  Ge  Ge12  1  0.750000  0.357378  0.000000  1
  Ge  Ge13  1  0.250000  0.857378  0.500000  1
  Ge  Ge14  1  0.750000  0.142622  0.500000  1
  Ge  Ge15  1  0.250000  0.642622  0.000000  1
  Se  Se16  1  0.027187  0.884352  0.174314  1
  Se  Se17  1  0.972813  0.115648  0.825686  1
  Se  Se18  1  0.972813  0.384352  0.674314  1
  Se  Se19  1  0.527187  0.115648  0.174314  1
  Se  Se20  1  0.527187  0.384352  0.325686  1
  Se  Se21  1  0.472813  0.615648  0.674314  1
  Se  Se22  1  0.027187  0.615648  0.325686  1
  Se  Se23  1  0.472813  0.884352  0.825686  1
  O  O24  1  0.482552  0.984385  0.914506  1
  O  O25  1  0.982552  0.015615  0.914506  1
  O  O26  1  0.240145  0.549549  0.095150  1
  O  O27  1  0.008065  0.772215  0.532028  1
  O  O28  1  0.380013  0.032827  0.253378  1
  O  O29  1  0.740145  0.450451  0.095150  1
  O  O30  1  0.017448  0.984385  0.085494  1
  O  O31  1  0.740145  0.049549  0.404850  1
  O  O32  1  0.491935  0.727785  0.032028  1
  O  O33  1  0.991935  0.227785  0.467972  1
  O  O34  1  0.491935  0.772215  0.467972  1
  O  O35  1  0.880013  0.967173  0.253378  1
  O  O36  1  0.517448  0.015615  0.085494  1
  O  O37  1  0.818489  0.782703  0.138444  1
  O  O38  1  0.982552  0.484385  0.585494  1
  O  O39  1  0.181511  0.217297  0.861556  1
  O  O40  1  0.880013  0.532827  0.246622  1
  O  O41  1  0.759855  0.049549  0.595150  1
  O  O42  1  0.240145  0.950451  0.404850  1
  O  O43  1  0.119987  0.467173  0.753378  1
  O  O44  1  0.380013  0.467173  0.246622  1
  O  O45  1  0.508065  0.227785  0.532028  1
  O  O46  1  0.318489  0.282703  0.361556  1
  O  O47  1  0.759855  0.450451  0.904850  1
  O  O48  1  0.259855  0.549549  0.904850  1
  O  O49  1  0.318489  0.217297  0.138444  1
  O  O50  1  0.508065  0.272215  0.967972  1
  O  O51  1  0.181511  0.282703  0.638444  1
  O  O52  1  0.482552  0.515615  0.585494  1
  O  O53  1  0.008065  0.727785  0.967972  1
  O  O54  1  0.818489  0.717297  0.361556  1
  O  O55  1  0.619987  0.532827  0.753378  1
  O  O56  1  0.681511  0.782703  0.861556  1
  O  O57  1  0.517448  0.484385  0.414506  1
  O  O58  1  0.259855  0.950451  0.595150  1
  O  O59  1  0.119987  0.032827  0.746622  1
  O  O60  1  0.681511  0.717297  0.638444  1
  O  O61  1  0.017448  0.515615  0.414506  1
  O  O62  1  0.991935  0.272215  0.032028  1
  O  O63  1  0.619987  0.967173  0.746622  1
  F  F64  1  0.439946  0.750000  0.250000  1
  F  F65  1  0.939946  0.250000  0.250000  1
  F  F66  1  0.560054  0.250000  0.750000  1
  F  F67  1  0.060054  0.750000  0.750000  1
