# generated using pymatgen
data_SmHo2Er2(In2Pd)2
_symmetry_space_group_name_H-M   'P 1'
_cell_length_a   3.60917900
_cell_length_b   8.17405400
_cell_length_c   18.30679000
_cell_angle_alpha   90.00000000
_cell_angle_beta   90.00000000
_cell_angle_gamma   90.00000000
_symmetry_Int_Tables_number   1
_chemical_formula_structural   SmHo2Er2(In2Pd)2
_chemical_formula_sum   'Sm2 Ho4 Er4 In8 Pd4'
_cell_volume   540.08003599
_cell_formula_units_Z   2
loop_
 _symmetry_equiv_pos_site_id
 _symmetry_equiv_pos_as_xyz
  1  'x, y, z'
loop_
 _atom_site_type_symbol
 _atom_site_label
 _atom_site_symmetry_multiplicity
 _atom_site_fract_x
 _atom_site_fract_y
 _atom_site_fract_z
 _atom_site_occupancy
  Sm  Sm0  1  0.000000  0.500000  0.500000  1
  Sm  Sm1  1  0.000000  0.000000  0.000000  1
  Ho  Ho2  1  0.000000  0.738945  0.281634  1
  Ho  Ho3  1  0.000000  0.261055  0.718366  1
  Ho  Ho4  1  0.000000  0.761055  0.781634  1
  Ho  Ho5  1  0.000000  0.238945  0.218366  1
  Er  Er6  1  0.000000  0.619963  0.084179  1
  Er  Er7  1  0.000000  0.380037  0.915821  1
  Er  Er8  1  0.000000  0.880037  0.584179  1
  Er  Er9  1  0.000000  0.119963  0.415821  1
  In  In10  1  0.500000  0.702245  0.932378  1
  In  In11  1  0.500000  0.297755  0.067622  1
  In  In12  1  0.500000  0.797755  0.432378  1
  In  In13  1  0.500000  0.202245  0.567622  1
  In  In14  1  0.500000  0.582084  0.652464  1
  In  In15  1  0.500000  0.417916  0.347536  1
  In  In16  1  0.500000  0.917916  0.152464  1
  In  In17  1  0.500000  0.082084  0.847536  1
  Pd  Pd18  1  0.500000  0.523954  0.195597  1
  Pd  Pd19  1  0.500000  0.476046  0.804403  1
  Pd  Pd20  1  0.500000  0.976046  0.695597  1
  Pd  Pd21  1  0.500000  0.023954  0.304403  1
