# generated using pymatgen
data_Na2Cd5(MoO4)6
_symmetry_space_group_name_H-M   'P 1'
_cell_length_a   7.37381417
_cell_length_b   9.16155046
_cell_length_c   10.94292514
_cell_angle_alpha   106.05361357
_cell_angle_beta   105.85933213
_cell_angle_gamma   101.88149815
_symmetry_Int_Tables_number   1
_chemical_formula_structural   Na2Cd5(MoO4)6
_chemical_formula_sum   'Na2 Cd5 Mo6 O24'
_cell_volume   650.93921302
_cell_formula_units_Z   1
loop_
 _symmetry_equiv_pos_site_id
 _symmetry_equiv_pos_as_xyz
  1  'x, y, z'
loop_
 _atom_site_type_symbol
 _atom_site_label
 _atom_site_symmetry_multiplicity
 _atom_site_fract_x
 _atom_site_fract_y
 _atom_site_fract_z
 _atom_site_occupancy
  Na  Na0  1  0.022295  0.501903  0.020330  1
  Na  Na1  1  0.282867  0.290638  0.292774  1
  Cd  Cd2  1  0.382824  0.953652  0.110292  1
  Cd  Cd3  1  0.625639  0.055854  0.897625  1
  Cd  Cd4  1  0.955601  0.789932  0.476227  1
  Cd  Cd5  1  0.039700  0.205440  0.516522  1
  Cd  Cd6  1  0.710555  0.710626  0.699363  1
  Mo  Mo7  1  0.404474  0.730940  0.372549  1
  Mo  Mo8  1  0.592483  0.274452  0.629385  1
  Mo  Mo9  1  0.896355  0.904901  0.165859  1
  Mo  Mo10  1  0.101026  0.086059  0.828773  1
  Mo  Mo11  1  0.781097  0.337078  0.233603  1
  Mo  Mo12  1  0.221381  0.664626  0.767530  1
  O  O13  1  0.259160  0.804154  0.466336  1
  O  O14  1  0.743697  0.202782  0.540203  1
  O  O15  1  0.682568  0.957075  0.077193  1
  O  O16  1  0.313024  0.031640  0.914515  1
  O  O17  1  0.867664  0.703366  0.087396  1
  O  O18  1  0.130363  0.286054  0.911427  1
  O  O19  1  0.118228  0.017333  0.153967  1
  O  O20  1  0.872323  0.970520  0.836838  1
  O  O21  1  0.446522  0.844856  0.269067  1
  O  O22  1  0.567293  0.172397  0.744103  1
  O  O23  1  0.268675  0.531965  0.262346  1
  O  O24  1  0.712019  0.485226  0.727286  1
  O  O25  1  0.792662  0.302351  0.065131  1
  O  O26  1  0.220375  0.697915  0.936910  1
  O  O27  1  0.821359  0.543028  0.316690  1
  O  O28  1  0.173912  0.459230  0.684028  1
  O  O29  1  0.923361  0.942725  0.343679  1
  O  O30  1  0.074994  0.054012  0.652975  1
  O  O31  1  0.972416  0.274241  0.329035  1
  O  O32  1  0.024690  0.729198  0.674988  1
  O  O33  1  0.640516  0.738672  0.495156  1
  O  O34  1  0.355285  0.247199  0.507260  1
  O  O35  1  0.541502  0.227753  0.224326  1
  O  O36  1  0.461093  0.770207  0.768315  1
