# generated using pymatgen
data_Y6PdRu
_symmetry_space_group_name_H-M   'P 1'
_cell_length_a   6.40064258
_cell_length_b   7.25563888
_cell_length_c   9.48992600
_cell_angle_alpha   90.00000000
_cell_angle_beta   90.00000000
_cell_angle_gamma   89.83342069
_symmetry_Int_Tables_number   1
_chemical_formula_structural   Y6PdRu
_chemical_formula_sum   'Y12 Pd2 Ru2'
_cell_volume   440.71742904
_cell_formula_units_Z   2
loop_
 _symmetry_equiv_pos_site_id
 _symmetry_equiv_pos_as_xyz
  1  'x, y, z'
loop_
 _atom_site_type_symbol
 _atom_site_label
 _atom_site_symmetry_multiplicity
 _atom_site_fract_x
 _atom_site_fract_y
 _atom_site_fract_z
 _atom_site_occupancy
  Y  Y0  1  0.635549  0.028112  0.250000  1
  Y  Y1  1  0.364451  0.971888  0.750000  1
  Y  Y2  1  0.127964  0.459946  0.750000  1
  Y  Y3  1  0.872036  0.540054  0.250000  1
  Y  Y4  1  0.166583  0.174818  0.061026  1
  Y  Y5  1  0.833417  0.825182  0.938974  1
  Y  Y6  1  0.676793  0.316790  0.936649  1
  Y  Y7  1  0.833417  0.825182  0.561026  1
  Y  Y8  1  0.323207  0.683210  0.063351  1
  Y  Y9  1  0.166583  0.174818  0.438974  1
  Y  Y10  1  0.323207  0.683210  0.436649  1
  Y  Y11  1  0.676793  0.316790  0.563351  1
  Pd  Pd12  1  0.449390  0.386595  0.250000  1
  Pd  Pd13  1  0.550610  0.613405  0.750000  1
  Ru  Ru14  1  0.952975  0.114924  0.750000  1
  Ru  Ru15  1  0.047025  0.885076  0.250000  1
