# generated using pymatgen
data_HoU3(GeIr)4
_symmetry_space_group_name_H-M   'P 1'
_cell_length_a   4.33658000
_cell_length_b   6.84642560
_cell_length_c   7.61955714
_cell_angle_alpha   90.38014531
_cell_angle_beta   90.00000000
_cell_angle_gamma   90.00000000
_symmetry_Int_Tables_number   1
_chemical_formula_structural   HoU3(GeIr)4
_chemical_formula_sum   'Ho1 U3 Ge4 Ir4'
_cell_volume   226.22022330
_cell_formula_units_Z   1
loop_
 _symmetry_equiv_pos_site_id
 _symmetry_equiv_pos_as_xyz
  1  'x, y, z'
loop_
 _atom_site_type_symbol
 _atom_site_label
 _atom_site_symmetry_multiplicity
 _atom_site_fract_x
 _atom_site_fract_y
 _atom_site_fract_z
 _atom_site_occupancy
  Ho  Ho0  1  0.250000  0.490864  0.203079  1
  U  U1  1  0.750000  0.508458  0.794134  1
  U  U2  1  0.250000  0.991910  0.295989  1
  U  U3  1  0.750000  0.008195  0.705943  1
  Ge  Ge4  1  0.250000  0.818492  0.919183  1
  Ge  Ge5  1  0.750000  0.184211  0.085442  1
  Ge  Ge6  1  0.250000  0.323551  0.582438  1
  Ge  Ge7  1  0.750000  0.680223  0.412135  1
  Ir  Ir8  1  0.750000  0.781209  0.086889  1
  Ir  Ir9  1  0.250000  0.219507  0.905710  1
  Ir  Ir10  1  0.750000  0.262581  0.419129  1
  Ir  Ir11  1  0.250000  0.730798  0.589930  1
