# generated using pymatgen
data_Er16In4OsPd3
_symmetry_space_group_name_H-M   'P 1'
_cell_length_a   9.65899984
_cell_length_b   9.65900074
_cell_length_c   9.65900091
_cell_angle_alpha   59.57219359
_cell_angle_beta   59.57218962
_cell_angle_gamma   59.57220000
_symmetry_Int_Tables_number   1
_chemical_formula_structural   Er16In4OsPd3
_chemical_formula_sum   'Er16 In4 Os1 Pd3'
_cell_volume   631.01154576
_cell_formula_units_Z   1
loop_
 _symmetry_equiv_pos_site_id
 _symmetry_equiv_pos_as_xyz
  1  'x, y, z'
loop_
 _atom_site_type_symbol
 _atom_site_label
 _atom_site_symmetry_multiplicity
 _atom_site_fract_x
 _atom_site_fract_y
 _atom_site_fract_z
 _atom_site_occupancy
  Er  Er0  1  0.189989  0.189989  0.810746  1
  Er  Er1  1  0.444905  0.060384  0.060384  1
  Er  Er2  1  0.435641  0.066363  0.435641  1
  Er  Er3  1  0.060384  0.444905  0.060384  1
  Er  Er4  1  0.650189  0.054592  0.650189  1
  Er  Er5  1  0.183936  0.811240  0.811240  1
  Er  Er6  1  0.060384  0.060384  0.444905  1
  Er  Er7  1  0.810746  0.189989  0.189989  1
  Er  Er8  1  0.811240  0.811240  0.183936  1
  Er  Er9  1  0.650189  0.650189  0.054592  1
  Er  Er10  1  0.646899  0.646899  0.646899  1
  Er  Er11  1  0.066363  0.435641  0.435641  1
  Er  Er12  1  0.054592  0.650189  0.650189  1
  Er  Er13  1  0.811240  0.183936  0.811240  1
  Er  Er14  1  0.435641  0.435641  0.066363  1
  Er  Er15  1  0.189989  0.810746  0.189989  1
  In  In16  1  0.416450  0.750151  0.416450  1
  In  In17  1  0.416450  0.416450  0.750151  1
  In  In18  1  0.750151  0.416450  0.416450  1
  In  In19  1  0.415775  0.415775  0.415775  1
  Os  Os20  1  0.856859  0.856859  0.856859  1
  Pd  Pd21  1  0.855675  0.430636  0.855675  1
  Pd  Pd22  1  0.855675  0.855675  0.430636  1
  Pd  Pd23  1  0.430636  0.855675  0.855675  1
