# generated using pymatgen
data_U6CoNi5Sb8
_symmetry_space_group_name_H-M   'P 1'
_cell_length_a   8.12726204
_cell_length_b   8.12726261
_cell_length_c   8.12726299
_cell_angle_alpha   109.57374806
_cell_angle_beta   109.57374942
_cell_angle_gamma   109.26636313
_symmetry_Int_Tables_number   1
_chemical_formula_structural   U6CoNi5Sb8
_chemical_formula_sum   'U6 Co1 Ni5 Sb8'
_cell_volume   413.24422264
_cell_formula_units_Z   1
loop_
 _symmetry_equiv_pos_site_id
 _symmetry_equiv_pos_as_xyz
  1  'x, y, z'
loop_
 _atom_site_type_symbol
 _atom_site_label
 _atom_site_symmetry_multiplicity
 _atom_site_fract_x
 _atom_site_fract_y
 _atom_site_fract_z
 _atom_site_occupancy
  U  U0  1  0.877254  0.249636  0.118355  1
  U  U1  1  0.631281  0.758899  0.381645  1
  U  U2  1  0.241101  0.122746  0.872382  1
  U  U3  1  0.750364  0.368719  0.627618  1
  U  U4  1  0.125000  0.875000  0.250000  1
  U  U5  1  0.375000  0.625000  0.750000  1
  Co  Co6  1  0.875000  0.125000  0.750000  1
  Ni  Ni7  1  0.375417  0.250665  0.624352  1
  Ni  Ni8  1  0.126314  0.751065  0.875648  1
  Ni  Ni9  1  0.248935  0.624583  0.375249  1
  Ni  Ni10  1  0.749335  0.873686  0.124751  1
  Ni  Ni11  1  0.625000  0.375000  0.250000  1
  Sb  Sb12  1  0.664510  0.498909  0.001087  1
  Sb  Sb13  1  0.498464  0.999107  0.666690  1
  Sb  Sb14  1  0.997822  0.663423  0.498913  1
  Sb  Sb15  1  0.832417  0.831774  0.833310  1
  Sb  Sb16  1  0.501091  0.002178  0.165602  1
  Sb  Sb17  1  0.168226  0.501536  0.000643  1
  Sb  Sb18  1  0.000893  0.167583  0.499357  1
  Sb  Sb19  1  0.336577  0.335490  0.334398  1
