# generated using pymatgen
data_Dy16Cd4IrOsPt2
_symmetry_space_group_name_H-M   'P 1'
_cell_length_a   9.68733730
_cell_length_b   9.66582719
_cell_length_c   9.66582720
_cell_angle_alpha   59.51843761
_cell_angle_beta   59.67558982
_cell_angle_gamma   59.67558041
_symmetry_Int_Tables_number   1
_chemical_formula_structural   Dy16Cd4IrOsPt2
_chemical_formula_sum   'Dy16 Cd4 Ir1 Os1 Pt2'
_cell_volume   634.49823794
_cell_formula_units_Z   1
loop_
 _symmetry_equiv_pos_site_id
 _symmetry_equiv_pos_as_xyz
  1  'x, y, z'
loop_
 _atom_site_type_symbol
 _atom_site_label
 _atom_site_symmetry_multiplicity
 _atom_site_fract_x
 _atom_site_fract_y
 _atom_site_fract_z
 _atom_site_occupancy
  Dy  Dy0  1  0.603763  0.599797  0.599797  1
  Dy  Dy1  1  0.601083  0.597748  0.202378  1
  Dy  Dy2  1  0.601083  0.202378  0.597748  1
  Dy  Dy3  1  0.197553  0.600585  0.600585  1
  Dy  Dy4  1  0.062365  0.438676  0.438676  1
  Dy  Dy5  1  0.439145  0.058450  0.058450  1
  Dy  Dy6  1  0.439653  0.064430  0.439296  1
  Dy  Dy7  1  0.056429  0.437266  0.062800  1
  Dy  Dy8  1  0.439653  0.439296  0.064430  1
  Dy  Dy9  1  0.056429  0.062800  0.437266  1
  Dy  Dy10  1  0.187288  0.814060  0.814060  1
  Dy  Dy11  1  0.808159  0.188278  0.188278  1
  Dy  Dy12  1  0.816039  0.186831  0.811585  1
  Dy  Dy13  1  0.188064  0.807010  0.187924  1
  Dy  Dy14  1  0.816039  0.811585  0.186831  1
  Dy  Dy15  1  0.188064  0.187924  0.807010  1
  Cd  Cd16  1  0.830120  0.829756  0.829756  1
  Cd  Cd17  1  0.831049  0.831096  0.504303  1
  Cd  Cd18  1  0.831049  0.504303  0.831096  1
  Cd  Cd19  1  0.504982  0.830749  0.830749  1
  Ir  Ir20  1  0.824555  0.394632  0.394632  1
  Os  Os21  1  0.391265  0.393708  0.393708  1
  Pt  Pt22  1  0.393087  0.394800  0.823845  1
  Pt  Pt23  1  0.393087  0.823845  0.394800  1
