# generated using pymatgen
data_Y20Cd6RePd
_symmetry_space_group_name_H-M   'P 1'
_cell_length_a   9.66972500
_cell_length_b   9.66972569
_cell_length_c   9.90784000
_cell_angle_alpha   90.00000000
_cell_angle_beta   90.00000000
_cell_angle_gamma   120.00000108
_symmetry_Int_Tables_number   1
_chemical_formula_structural   Y20Cd6RePd
_chemical_formula_sum   'Y20 Cd6 Re1 Pd1'
_cell_volume   802.30202591
_cell_formula_units_Z   1
loop_
 _symmetry_equiv_pos_site_id
 _symmetry_equiv_pos_as_xyz
  1  'x, y, z'
loop_
 _atom_site_type_symbol
 _atom_site_label
 _atom_site_symmetry_multiplicity
 _atom_site_fract_x
 _atom_site_fract_y
 _atom_site_fract_z
 _atom_site_occupancy
  Y  Y0  1  0.209665  0.790335  0.940914  1
  Y  Y1  1  0.209665  0.419331  0.940914  1
  Y  Y2  1  0.580669  0.790335  0.940914  1
  Y  Y3  1  0.791885  0.208115  0.057005  1
  Y  Y4  1  0.791885  0.583771  0.057005  1
  Y  Y5  1  0.416229  0.208115  0.057005  1
  Y  Y6  1  0.791885  0.208115  0.442995  1
  Y  Y7  1  0.791885  0.583771  0.442995  1
  Y  Y8  1  0.416229  0.208115  0.442995  1
  Y  Y9  1  0.209665  0.790335  0.559086  1
  Y  Y10  1  0.209665  0.419331  0.559086  1
  Y  Y11  1  0.580669  0.790335  0.559086  1
  Y  Y12  1  0.537739  0.462261  0.750000  1
  Y  Y13  1  0.537739  0.075478  0.750000  1
  Y  Y14  1  0.924522  0.462261  0.750000  1
  Y  Y15  1  0.457076  0.542924  0.250000  1
  Y  Y16  1  0.457076  0.914152  0.250000  1
  Y  Y17  1  0.085848  0.542924  0.250000  1
  Y  Y18  1  0.000000  0.000000  0.001214  1
  Y  Y19  1  0.000000  0.000000  0.498786  1
  Cd  Cd20  1  0.885366  0.114634  0.750000  1
  Cd  Cd21  1  0.885366  0.770732  0.750000  1
  Cd  Cd22  1  0.229268  0.114634  0.750000  1
  Cd  Cd23  1  0.114500  0.885500  0.250000  1
  Cd  Cd24  1  0.114500  0.228999  0.250000  1
  Cd  Cd25  1  0.771001  0.885500  0.250000  1
  Re  Re26  1  0.333333  0.666667  0.750000  1
  Pd  Pd27  1  0.666667  0.333333  0.250000  1
