# generated using pymatgen
data_Tm8Nb11Si16Ag
_symmetry_space_group_name_H-M   'P 1'
_cell_length_a   6.82198248
_cell_length_b   7.05850596
_cell_length_c   13.37595000
_cell_angle_alpha   90.00000000
_cell_angle_beta   90.00000000
_cell_angle_gamma   90.44254326
_symmetry_Int_Tables_number   1
_chemical_formula_structural   Tm8Nb11Si16Ag
_chemical_formula_sum   'Tm8 Nb11 Si16 Ag1'
_cell_volume   644.07296118
_cell_formula_units_Z   1
loop_
 _symmetry_equiv_pos_site_id
 _symmetry_equiv_pos_as_xyz
  1  'x, y, z'
loop_
 _atom_site_type_symbol
 _atom_site_label
 _atom_site_symmetry_multiplicity
 _atom_site_fract_x
 _atom_site_fract_y
 _atom_site_fract_z
 _atom_site_occupancy
  Tm  Tm0  1  0.006243  0.171471  0.096131  1
  Tm  Tm1  1  0.995837  0.826921  0.906062  1
  Tm  Tm2  1  0.494731  0.672370  0.905329  1
  Tm  Tm3  1  0.995837  0.826921  0.593938  1
  Tm  Tm4  1  0.502705  0.328812  0.098136  1
  Tm  Tm5  1  0.006243  0.171471  0.403869  1
  Tm  Tm6  1  0.502705  0.328812  0.401864  1
  Tm  Tm7  1  0.494731  0.672370  0.594671  1
  Nb  Nb8  1  0.161294  0.498064  0.750000  1
  Nb  Nb9  1  0.839395  0.506248  0.250000  1
  Nb  Nb10  1  0.339416  0.991874  0.250000  1
  Nb  Nb11  1  0.339456  0.176995  0.625745  1
  Nb  Nb12  1  0.664424  0.825130  0.375524  1
  Nb  Nb13  1  0.164195  0.673563  0.374159  1
  Nb  Nb14  1  0.664424  0.825130  0.124476  1
  Nb  Nb15  1  0.833050  0.325559  0.625788  1
  Nb  Nb16  1  0.339456  0.176995  0.874255  1
  Nb  Nb17  1  0.833050  0.325559  0.874212  1
  Nb  Nb18  1  0.164195  0.673563  0.125841  1
  Si  Si19  1  0.041705  0.127959  0.750000  1
  Si  Si20  1  0.961598  0.879128  0.250000  1
  Si  Si21  1  0.461687  0.620766  0.250000  1
  Si  Si22  1  0.536152  0.384236  0.750000  1
  Si  Si23  1  0.282750  0.874999  0.750000  1
  Si  Si24  1  0.708390  0.128949  0.250000  1
  Si  Si25  1  0.205537  0.370643  0.250000  1
  Si  Si26  1  0.796014  0.619130  0.750000  1
  Si  Si27  1  0.162352  0.464010  0.540885  1
  Si  Si28  1  0.836336  0.535093  0.459243  1
  Si  Si29  1  0.336461  0.963366  0.459793  1
  Si  Si30  1  0.836336  0.535093  0.040757  1
  Si  Si31  1  0.663739  0.042877  0.532974  1
  Si  Si32  1  0.162352  0.464010  0.959115  1
  Si  Si33  1  0.663739  0.042877  0.967026  1
  Si  Si34  1  0.336461  0.963366  0.040207  1
  Ag  Ag35  1  0.667004  0.985669  0.750000  1
