# generated using pymatgen
data_Sc12Fe(Si4Ir)3
_symmetry_space_group_name_H-M   'P 1'
_cell_length_a   4.03653400
_cell_length_b   10.16503880
_cell_length_c   11.62947989
_cell_angle_alpha   89.85820429
_cell_angle_beta   90.00000000
_cell_angle_gamma   90.00000000
_symmetry_Int_Tables_number   1
_chemical_formula_structural   Sc12Fe(Si4Ir)3
_chemical_formula_sum   'Sc12 Fe1 Si12 Ir3'
_cell_volume   477.17383012
_cell_formula_units_Z   1
loop_
 _symmetry_equiv_pos_site_id
 _symmetry_equiv_pos_as_xyz
  1  'x, y, z'
loop_
 _atom_site_type_symbol
 _atom_site_label
 _atom_site_symmetry_multiplicity
 _atom_site_fract_x
 _atom_site_fract_y
 _atom_site_fract_z
 _atom_site_occupancy
  Sc  Sc0  1  0.250000  0.876887  0.018583  1
  Sc  Sc1  1  0.250000  0.618398  0.523711  1
  Sc  Sc2  1  0.750000  0.123754  0.979297  1
  Sc  Sc3  1  0.750000  0.376517  0.480959  1
  Sc  Sc4  1  0.250000  0.919890  0.602861  1
  Sc  Sc5  1  0.250000  0.580488  0.102928  1
  Sc  Sc6  1  0.750000  0.079972  0.398171  1
  Sc  Sc7  1  0.750000  0.420520  0.899745  1
  Sc  Sc8  1  0.250000  0.653216  0.797292  1
  Sc  Sc9  1  0.250000  0.841405  0.299656  1
  Sc  Sc10  1  0.750000  0.342476  0.200125  1
  Sc  Sc11  1  0.750000  0.162746  0.700207  1
  Fe  Fe12  1  0.250000  0.391590  0.674964  1
  Si  Si13  1  0.250000  0.016740  0.821053  1
  Si  Si14  1  0.250000  0.486007  0.322520  1
  Si  Si15  1  0.750000  0.985946  0.178393  1
  Si  Si16  1  0.750000  0.503849  0.680254  1
  Si  Si17  1  0.250000  0.256536  0.836416  1
  Si  Si18  1  0.250000  0.250010  0.342668  1
  Si  Si19  1  0.750000  0.750277  0.157452  1
  Si  Si20  1  0.750000  0.747732  0.658331  1
  Si  Si21  1  0.250000  0.198191  0.548388  1
  Si  Si22  1  0.250000  0.306755  0.043943  1
  Si  Si23  1  0.750000  0.806101  0.455306  1
  Si  Si24  1  0.750000  0.692439  0.953549  1
  Ir  Ir25  1  0.250000  0.110556  0.175989  1
  Ir  Ir26  1  0.750000  0.610577  0.324275  1
  Ir  Ir27  1  0.750000  0.890425  0.822965  1
