# generated using pymatgen
data_DyPa(SiRu)2
_symmetry_space_group_name_H-M   'P 1'
_cell_length_a   4.30775000
_cell_length_b   7.16061091
_cell_length_c   6.94419504
_cell_angle_alpha   89.74890587
_cell_angle_beta   90.00000000
_cell_angle_gamma   90.00000000
_symmetry_Int_Tables_number   1
_chemical_formula_structural   DyPa(SiRu)2
_chemical_formula_sum   'Dy2 Pa2 Si4 Ru4'
_cell_volume   214.19942801
_cell_formula_units_Z   2
loop_
 _symmetry_equiv_pos_site_id
 _symmetry_equiv_pos_as_xyz
  1  'x, y, z'
loop_
 _atom_site_type_symbol
 _atom_site_label
 _atom_site_symmetry_multiplicity
 _atom_site_fract_x
 _atom_site_fract_y
 _atom_site_fract_z
 _atom_site_occupancy
  Dy  Dy0  1  0.250000  0.484828  0.679360  1
  Dy  Dy1  1  0.750000  0.515172  0.320640  1
  Pa  Pa2  1  0.250000  0.982040  0.828729  1
  Pa  Pa3  1  0.750000  0.017960  0.171271  1
  Si  Si4  1  0.250000  0.308063  0.111297  1
  Si  Si5  1  0.750000  0.691937  0.888703  1
  Si  Si6  1  0.250000  0.795903  0.389671  1
  Si  Si7  1  0.750000  0.204097  0.610329  1
  Ru  Ru8  1  0.750000  0.864152  0.570479  1
  Ru  Ru9  1  0.250000  0.135848  0.429521  1
  Ru  Ru10  1  0.750000  0.347138  0.937718  1
  Ru  Ru11  1  0.250000  0.652862  0.062282  1
