# generated using pymatgen
data_Lu12CdCo4Os
_symmetry_space_group_name_H-M   'P 1'
_cell_length_a   8.09424352
_cell_length_b   8.09424485
_cell_length_c   8.09424411
_cell_angle_alpha   111.58361076
_cell_angle_beta   110.93044389
_cell_angle_gamma   105.95648181
_symmetry_Int_Tables_number   1
_chemical_formula_structural   Lu12CdCo4Os
_chemical_formula_sum   'Lu12 Cd1 Co4 Os1'
_cell_volume   407.07475133
_cell_formula_units_Z   1
loop_
 _symmetry_equiv_pos_site_id
 _symmetry_equiv_pos_as_xyz
  1  'x, y, z'
loop_
 _atom_site_type_symbol
 _atom_site_label
 _atom_site_symmetry_multiplicity
 _atom_site_fract_x
 _atom_site_fract_y
 _atom_site_fract_z
 _atom_site_occupancy
  Lu  Lu0  1  0.419657  0.224380  0.195277  1
  Lu  Lu1  1  0.580343  0.775620  0.804723  1
  Lu  Lu2  1  0.029104  0.224380  0.804723  1
  Lu  Lu3  1  0.970896  0.775620  0.195277  1
  Lu  Lu4  1  0.181308  0.276166  0.457475  1
  Lu  Lu5  1  0.818692  0.723834  0.542525  1
  Lu  Lu6  1  0.181308  0.723834  0.905143  1
  Lu  Lu7  1  0.818692  0.276166  0.094857  1
  Lu  Lu8  1  0.314414  0.619981  0.305566  1
  Lu  Lu9  1  0.685586  0.380019  0.694434  1
  Lu  Lu10  1  0.314414  0.008846  0.694434  1
  Lu  Lu11  1  0.685586  0.991154  0.305566  1
  Cd  Cd12  1  0.500000  0.500000  0.000000  1
  Co  Co13  1  0.373214  0.000000  0.373214  1
  Co  Co14  1  0.626786  0.000000  0.626786  1
  Co  Co15  1  0.113225  0.613225  0.500000  1
  Co  Co16  1  0.886775  0.386775  0.500000  1
  Os  Os17  1  0.000000  0.000000  0.000000  1
