# generated using pymatgen
data_CaTh3IrPd3
_symmetry_space_group_name_H-M   'P 1'
_cell_length_a   4.54084900
_cell_length_b   5.81563333
_cell_length_c   7.27553600
_cell_angle_alpha   89.83769748
_cell_angle_beta   90.00000000
_cell_angle_gamma   90.00000000
_symmetry_Int_Tables_number   1
_chemical_formula_structural   CaTh3IrPd3
_chemical_formula_sum   'Ca1 Th3 Ir1 Pd3'
_cell_volume   192.13094944
_cell_formula_units_Z   1
loop_
 _symmetry_equiv_pos_site_id
 _symmetry_equiv_pos_as_xyz
  1  'x, y, z'
loop_
 _atom_site_type_symbol
 _atom_site_label
 _atom_site_symmetry_multiplicity
 _atom_site_fract_x
 _atom_site_fract_y
 _atom_site_fract_z
 _atom_site_occupancy
  Ca  Ca0  1  0.250000  0.145634  0.182101  1
  Th  Th1  1  0.250000  0.352985  0.676113  1
  Th  Th2  1  0.750000  0.661520  0.322863  1
  Th  Th3  1  0.750000  0.854001  0.812669  1
  Ir  Ir4  1  0.250000  0.822499  0.556471  1
  Pd  Pd5  1  0.250000  0.647451  0.041803  1
  Pd  Pd6  1  0.750000  0.165605  0.457518  1
  Pd  Pd7  1  0.750000  0.350305  0.950462  1
