# generated using pymatgen
data_Li7Nd6Eu2ZnRh8
_symmetry_space_group_name_H-M   'P 1'
_cell_length_a   4.05762600
_cell_length_b   7.30362200
_cell_length_c   16.48360071
_cell_angle_alpha   89.83687397
_cell_angle_beta   90.00000000
_cell_angle_gamma   90.00000000
_symmetry_Int_Tables_number   1
_chemical_formula_structural   Li7Nd6Eu2ZnRh8
_chemical_formula_sum   'Li7 Nd6 Eu2 Zn1 Rh8'
_cell_volume   488.49556852
_cell_formula_units_Z   1
loop_
 _symmetry_equiv_pos_site_id
 _symmetry_equiv_pos_as_xyz
  1  'x, y, z'
loop_
 _atom_site_type_symbol
 _atom_site_label
 _atom_site_symmetry_multiplicity
 _atom_site_fract_x
 _atom_site_fract_y
 _atom_site_fract_z
 _atom_site_occupancy
  Li  Li0  1  0.750000  0.008497  0.561688  1
  Li  Li1  1  0.250000  0.629411  0.352331  1
  Li  Li2  1  0.750000  0.369293  0.648145  1
  Li  Li3  1  0.250000  0.492339  0.062042  1
  Li  Li4  1  0.750000  0.507438  0.937536  1
  Li  Li5  1  0.250000  0.992898  0.439072  1
  Li  Li6  1  0.250000  0.131157  0.149351  1
  Nd  Nd7  1  0.250000  0.165080  0.936799  1
  Nd  Nd8  1  0.250000  0.660354  0.561344  1
  Nd  Nd9  1  0.750000  0.838338  0.059082  1
  Nd  Nd10  1  0.750000  0.455098  0.217190  1
  Nd  Nd11  1  0.250000  0.045098  0.716418  1
  Nd  Nd12  1  0.250000  0.548079  0.781507  1
  Eu  Eu13  1  0.750000  0.336526  0.441567  1
  Eu  Eu14  1  0.750000  0.953203  0.285949  1
  Zn  Zn15  1  0.750000  0.873161  0.848893  1
  Rh  Rh16  1  0.750000  0.745548  0.442363  1
  Rh  Rh17  1  0.250000  0.250252  0.315098  1
  Rh  Rh18  1  0.750000  0.246401  0.812843  1
  Rh  Rh19  1  0.750000  0.754438  0.688375  1
  Rh  Rh20  1  0.250000  0.255291  0.562700  1
  Rh  Rh21  1  0.250000  0.743918  0.185846  1
  Rh  Rh22  1  0.750000  0.245549  0.060716  1
  Rh  Rh23  1  0.250000  0.752633  0.933142  1
