# generated using pymatgen
data_Cr2TcP
_symmetry_space_group_name_H-M   'P 1'
_cell_length_a   6.96127137
_cell_length_b   6.96665524
_cell_length_c   6.95650273
_cell_angle_alpha   96.14760024
_cell_angle_beta   96.09311551
_cell_angle_gamma   141.90501543
_symmetry_Int_Tables_number   1
_chemical_formula_structural   Cr2TcP
_chemical_formula_sum   'Cr8 Tc4 P4'
_cell_volume   196.72395370
_cell_formula_units_Z   4
loop_
 _symmetry_equiv_pos_site_id
 _symmetry_equiv_pos_as_xyz
  1  'x, y, z'
loop_
 _atom_site_type_symbol
 _atom_site_label
 _atom_site_symmetry_multiplicity
 _atom_site_fract_x
 _atom_site_fract_y
 _atom_site_fract_z
 _atom_site_occupancy
  Cr  Cr0  1  0.031905  0.358190  0.395178  1
  Cr  Cr1  1  0.962961  0.636607  0.604669  1
  Cr  Cr2  1  0.642199  0.037324  0.673781  1
  Cr  Cr3  1  0.363075  0.967873  0.326231  1
  Cr  Cr4  1  0.983582  0.922024  0.387523  1
  Cr  Cr5  1  0.534385  0.596048  0.612485  1
  Cr  Cr6  1  0.078208  0.465518  0.061876  1
  Cr  Cr7  1  0.403759  0.016398  0.938295  1
  Tc  Tc8  1  0.347881  0.313022  0.190117  1
  Tc  Tc9  1  0.122791  0.157680  0.809829  1
  Tc  Tc10  1  0.686945  0.877134  0.034884  1
  Tc  Tc11  1  0.842326  0.652091  0.965085  1
  P  P12  1  0.554568  0.801293  0.351117  1
  P  P13  1  0.450210  0.203451  0.648829  1
  P  P14  1  0.198770  0.549913  0.753344  1
  P  P15  1  0.796432  0.445434  0.246753  1
