# generated using pymatgen
data_Ta2Be9W
_symmetry_space_group_name_H-M   'P 1'
_cell_length_a   7.42860985
_cell_length_b   7.42861013
_cell_length_c   7.42860988
_cell_angle_alpha   35.29787275
_cell_angle_beta   35.29787023
_cell_angle_gamma   35.29786875
_symmetry_Int_Tables_number   1
_chemical_formula_structural   Ta2Be9W
_chemical_formula_sum   'Ta2 Be9 W1'
_cell_volume   122.27398688
_cell_formula_units_Z   1
loop_
 _symmetry_equiv_pos_site_id
 _symmetry_equiv_pos_as_xyz
  1  'x, y, z'
loop_
 _atom_site_type_symbol
 _atom_site_label
 _atom_site_symmetry_multiplicity
 _atom_site_fract_x
 _atom_site_fract_y
 _atom_site_fract_z
 _atom_site_occupancy
  Ta  Ta0  1  0.142179  0.142179  0.142179  1
  Ta  Ta1  1  0.998780  0.998780  0.998780  1
  Be  Be2  1  0.416444  0.922090  0.416444  1
  Be  Be3  1  0.416444  0.416444  0.922090  1
  Be  Be4  1  0.922090  0.416444  0.416444  1
  Be  Be5  1  0.584844  0.075029  0.584844  1
  Be  Be6  1  0.584844  0.584844  0.075029  1
  Be  Be7  1  0.075029  0.584844  0.584844  1
  Be  Be8  1  0.665979  0.665979  0.665979  1
  Be  Be9  1  0.334832  0.334832  0.334832  1
  Be  Be10  1  0.500233  0.500233  0.500233  1
  W  W11  1  0.858305  0.858305  0.858305  1
