# generated using pymatgen
data_YEr3ReSi4Rh
_symmetry_space_group_name_H-M   'P 1'
_cell_length_a   5.70617644
_cell_length_b   5.70617687
_cell_length_c   10.04769200
_cell_angle_alpha   63.49811938
_cell_angle_beta   63.49811817
_cell_angle_gamma   43.50634605
_symmetry_Int_Tables_number   1
_chemical_formula_structural   YEr3ReSi4Rh
_chemical_formula_sum   'Y1 Er3 Re1 Si4 Rh1'
_cell_volume   197.52994626
_cell_formula_units_Z   1
loop_
 _symmetry_equiv_pos_site_id
 _symmetry_equiv_pos_as_xyz
  1  'x, y, z'
loop_
 _atom_site_type_symbol
 _atom_site_label
 _atom_site_symmetry_multiplicity
 _atom_site_fract_x
 _atom_site_fract_y
 _atom_site_fract_z
 _atom_site_occupancy
  Y  Y0  1  0.812577  0.812577  0.109182  1
  Er  Er1  1  0.006810  0.006810  0.321459  1
  Er  Er2  1  0.183894  0.183894  0.890080  1
  Er  Er3  1  0.995933  0.995933  0.677600  1
  Re  Re4  1  0.728355  0.728355  0.626954  1
  Si  Si5  1  0.356929  0.356929  0.562239  1
  Si  Si6  1  0.495243  0.495243  0.877152  1
  Si  Si7  1  0.640627  0.640627  0.438714  1
  Si  Si8  1  0.508613  0.508613  0.122531  1
  Rh  Rh9  1  0.271018  0.271018  0.374087  1
