# generated using pymatgen
data_Nb6Al4Cu2C
_symmetry_space_group_name_H-M   'P 1'
_cell_length_a   8.15200885
_cell_length_b   8.15200909
_cell_length_c   8.15201000
_cell_angle_alpha   60.00000443
_cell_angle_beta   60.00000344
_cell_angle_gamma   60.00000563
_symmetry_Int_Tables_number   1
_chemical_formula_structural   Nb6Al4Cu2C
_chemical_formula_sum   'Nb12 Al8 Cu4 C2'
_cell_volume   383.07079946
_cell_formula_units_Z   2
loop_
 _symmetry_equiv_pos_site_id
 _symmetry_equiv_pos_as_xyz
  1  'x, y, z'
loop_
 _atom_site_type_symbol
 _atom_site_label
 _atom_site_symmetry_multiplicity
 _atom_site_fract_x
 _atom_site_fract_y
 _atom_site_fract_z
 _atom_site_occupancy
  Nb  Nb0  1  0.058557  0.058557  0.441443  1
  Nb  Nb1  1  0.441443  0.058557  0.441443  1
  Nb  Nb2  1  0.058557  0.441443  0.441443  1
  Nb  Nb3  1  0.441443  0.441443  0.058557  1
  Nb  Nb4  1  0.058557  0.441443  0.058557  1
  Nb  Nb5  1  0.441443  0.058557  0.058557  1
  Nb  Nb6  1  0.191443  0.191443  0.808557  1
  Nb  Nb7  1  0.808557  0.191443  0.808557  1
  Nb  Nb8  1  0.191443  0.808557  0.808557  1
  Nb  Nb9  1  0.808557  0.808557  0.191443  1
  Nb  Nb10  1  0.191443  0.808557  0.191443  1
  Nb  Nb11  1  0.808557  0.191443  0.191443  1
  Al  Al12  1  0.416218  0.416218  0.751346  1
  Al  Al13  1  0.416218  0.751346  0.416218  1
  Al  Al14  1  0.751346  0.416218  0.416218  1
  Al  Al15  1  0.416218  0.416218  0.416218  1
  Al  Al16  1  0.833782  0.833782  0.498654  1
  Al  Al17  1  0.833782  0.498654  0.833782  1
  Al  Al18  1  0.498654  0.833782  0.833782  1
  Al  Al19  1  0.833782  0.833782  0.833782  1
  Cu  Cu20  1  0.625000  0.625000  0.125000  1
  Cu  Cu21  1  0.625000  0.125000  0.625000  1
  Cu  Cu22  1  0.125000  0.625000  0.625000  1
  Cu  Cu23  1  0.625000  0.625000  0.625000  1
  C  C24  1  0.250000  0.250000  0.250000  1
  C  C25  1  0.000000  0.000000  0.000000  1
