# generated using pymatgen
data_La10ZnGeBi6
_symmetry_space_group_name_H-M   'P 1'
_cell_length_a   9.90523900
_cell_length_b   9.90523823
_cell_length_c   6.74548800
_cell_angle_alpha   90.00000000
_cell_angle_beta   90.00000000
_cell_angle_gamma   119.99999924
_symmetry_Int_Tables_number   1
_chemical_formula_structural   La10ZnGeBi6
_chemical_formula_sum   'La10 Zn1 Ge1 Bi6'
_cell_volume   573.15738557
_cell_formula_units_Z   1
loop_
 _symmetry_equiv_pos_site_id
 _symmetry_equiv_pos_as_xyz
  1  'x, y, z'
loop_
 _atom_site_type_symbol
 _atom_site_label
 _atom_site_symmetry_multiplicity
 _atom_site_fract_x
 _atom_site_fract_y
 _atom_site_fract_z
 _atom_site_occupancy
  La  La0  1  0.666667  0.333333  0.000000  1
  La  La1  1  0.333333  0.666667  0.000000  1
  La  La2  1  0.333333  0.666667  0.500000  1
  La  La3  1  0.666667  0.333333  0.500000  1
  La  La4  1  0.743409  0.743409  0.754894  1
  La  La5  1  0.256591  0.000000  0.754894  1
  La  La6  1  0.000000  0.256591  0.754894  1
  La  La7  1  0.256591  0.256591  0.245106  1
  La  La8  1  0.743409  0.000000  0.245106  1
  La  La9  1  0.000000  0.743409  0.245106  1
  Zn  Zn10  1  0.000000  0.000000  0.500000  1
  Ge  Ge11  1  0.000000  0.000000  0.000000  1
  Bi  Bi12  1  0.385388  0.385388  0.748916  1
  Bi  Bi13  1  0.614612  0.000000  0.748916  1
  Bi  Bi14  1  0.000000  0.614612  0.748916  1
  Bi  Bi15  1  0.614612  0.614612  0.251084  1
  Bi  Bi16  1  0.385388  0.000000  0.251084  1
  Bi  Bi17  1  0.000000  0.385388  0.251084  1
