# generated using pymatgen
data_Tb14Ho5ErPb16
_symmetry_space_group_name_H-M   'P 1'
_cell_length_a   8.21840201
_cell_length_b   8.30472840
_cell_length_c   15.68611805
_cell_angle_alpha   90.00919381
_cell_angle_beta   89.99810241
_cell_angle_gamma   90.01411251
_symmetry_Int_Tables_number   1
_chemical_formula_structural   Tb14Ho5ErPb16
_chemical_formula_sum   'Tb14 Ho5 Er1 Pb16'
_cell_volume   1070.60255406
_cell_formula_units_Z   1
loop_
 _symmetry_equiv_pos_site_id
 _symmetry_equiv_pos_as_xyz
  1  'x, y, z'
loop_
 _atom_site_type_symbol
 _atom_site_label
 _atom_site_symmetry_multiplicity
 _atom_site_fract_x
 _atom_site_fract_y
 _atom_site_fract_z
 _atom_site_occupancy
  Tb  Tb0  1  0.622450  0.159167  0.379587  1
  Tb  Tb1  1  0.122713  0.340679  0.120402  1
  Tb  Tb2  1  0.622392  0.159276  0.120572  1
  Tb  Tb3  1  0.122665  0.340567  0.379438  1
  Tb  Tb4  1  0.377506  0.840728  0.620411  1
  Tb  Tb5  1  0.877516  0.659290  0.879502  1
  Tb  Tb6  1  0.534516  0.323295  0.899828  1
  Tb  Tb7  1  0.034510  0.176695  0.600096  1
  Tb  Tb8  1  0.465383  0.676864  0.399823  1
  Tb  Tb9  1  0.965539  0.823386  0.100176  1
  Tb  Tb10  1  0.465395  0.676854  0.100014  1
  Tb  Tb11  1  0.965549  0.823406  0.399987  1
  Tb  Tb12  1  0.534578  0.323455  0.600235  1
  Tb  Tb13  1  0.034568  0.176548  0.899837  1
  Ho  Ho14  1  0.377295  0.840807  0.879435  1
  Ho  Ho15  1  0.877303  0.659208  0.620646  1
  Ho  Ho16  1  0.209056  0.504009  0.750019  1
  Ho  Ho17  1  0.709039  0.996050  0.749984  1
  Ho  Ho18  1  0.790989  0.496344  0.250043  1
  Er  Er19  1  0.290893  0.003804  0.249966  1
  Pb  Pb20  1  0.281279  0.032467  0.042729  1
  Pb  Pb21  1  0.781247  0.467340  0.457483  1
  Pb  Pb22  1  0.719482  0.966041  0.543036  1
  Pb  Pb23  1  0.219462  0.533891  0.956945  1
  Pb  Pb24  1  0.718196  0.966576  0.956897  1
  Pb  Pb25  1  0.218163  0.533363  0.543110  1
  Pb  Pb26  1  0.281064  0.032966  0.456793  1
  Pb  Pb27  1  0.781003  0.466872  0.043000  1
  Pb  Pb28  1  0.572943  0.626408  0.750028  1
  Pb  Pb29  1  0.072976  0.873643  0.749970  1
  Pb  Pb30  1  0.426998  0.373829  0.250011  1
  Pb  Pb31  1  0.927414  0.125672  0.249995  1
  Pb  Pb32  1  0.346193  0.152368  0.750150  1
  Pb  Pb33  1  0.846308  0.347466  0.749853  1
  Pb  Pb34  1  0.653569  0.847318  0.249993  1
  Pb  Pb35  1  0.153848  0.653345  0.250007  1
