# generated using pymatgen
data_NaPr6CoBr12
_symmetry_space_group_name_H-M   'P 1'
_cell_length_a   9.53926577
_cell_length_b   9.53508425
_cell_length_c   9.51339877
_cell_angle_alpha   107.21402134
_cell_angle_beta   107.14863154
_cell_angle_gamma   107.27074592
_symmetry_Int_Tables_number   1
_chemical_formula_structural   NaPr6CoBr12
_chemical_formula_sum   'Na1 Pr6 Co1 Br12'
_cell_volume   716.45251841
_cell_formula_units_Z   1
loop_
 _symmetry_equiv_pos_site_id
 _symmetry_equiv_pos_as_xyz
  1  'x, y, z'
loop_
 _atom_site_type_symbol
 _atom_site_label
 _atom_site_symmetry_multiplicity
 _atom_site_fract_x
 _atom_site_fract_y
 _atom_site_fract_z
 _atom_site_occupancy
  Na  Na0  1  0.500000  0.500000  0.500000  1
  Pr  Pr1  1  0.108641  0.318676  0.031781  1
  Pr  Pr2  1  0.318811  0.031588  0.108851  1
  Pr  Pr3  1  0.031652  0.108513  0.317936  1
  Pr  Pr4  1  0.968349  0.891487  0.682065  1
  Pr  Pr5  1  0.681189  0.968413  0.891149  1
  Pr  Pr6  1  0.891359  0.681324  0.968219  1
  Co  Co7  1  0.000000  0.000000  0.000000  1
  Br  Br8  1  0.222679  0.684770  0.074115  1
  Br  Br9  1  0.455085  0.375408  0.153461  1
  Br  Br10  1  0.684911  0.074186  0.222700  1
  Br  Br11  1  0.925861  0.777157  0.315105  1
  Br  Br12  1  0.153515  0.455206  0.375529  1
  Br  Br13  1  0.375416  0.153508  0.455187  1
  Br  Br14  1  0.624584  0.846492  0.544814  1
  Br  Br15  1  0.846486  0.544794  0.624471  1
  Br  Br16  1  0.074140  0.222843  0.684896  1
  Br  Br17  1  0.315090  0.925815  0.777300  1
  Br  Br18  1  0.544915  0.624592  0.846540  1
  Br  Br19  1  0.777321  0.315230  0.925885  1
