# generated using pymatgen
data_Dy3ZnSn3Ir2
_symmetry_space_group_name_H-M   'P 1'
_cell_length_a   7.48653900
_cell_length_b   7.48653842
_cell_length_c   4.03711700
_cell_angle_alpha   90.00000000
_cell_angle_beta   90.00000000
_cell_angle_gamma   120.00000699
_symmetry_Int_Tables_number   1
_chemical_formula_structural   Dy3ZnSn3Ir2
_chemical_formula_sum   'Dy3 Zn1 Sn3 Ir2'
_cell_volume   195.95849075
_cell_formula_units_Z   1
loop_
 _symmetry_equiv_pos_site_id
 _symmetry_equiv_pos_as_xyz
  1  'x, y, z'
loop_
 _atom_site_type_symbol
 _atom_site_label
 _atom_site_symmetry_multiplicity
 _atom_site_fract_x
 _atom_site_fract_y
 _atom_site_fract_z
 _atom_site_occupancy
  Dy  Dy0  1  0.394528  0.983905  0.000000  1
  Dy  Dy1  1  0.016095  0.410625  0.000000  1
  Dy  Dy2  1  0.589376  0.605473  0.000000  1
  Zn  Zn3  1  0.666666  0.333333  0.500001  1
  Sn  Sn4  1  0.744517  0.000234  0.500001  1
  Sn  Sn5  1  0.255717  0.255484  0.500001  1
  Sn  Sn6  1  0.999766  0.744282  0.500001  1
  Ir  Ir7  1  0.000000  0.000000  0.000000  1
  Ir  Ir8  1  0.333333  0.666667  0.500001  1
