# generated using pymatgen
data_Y2Ho2Sn6Ir7
_symmetry_space_group_name_H-M   'P 1'
_cell_length_a   7.60581660
_cell_length_b   7.59520955
_cell_length_c   7.59520971
_cell_angle_alpha   109.42165489
_cell_angle_beta   109.46772537
_cell_angle_gamma   109.46772742
_symmetry_Int_Tables_number   1
_chemical_formula_structural   Y2Ho2Sn6Ir7
_chemical_formula_sum   'Y2 Ho2 Sn6 Ir7'
_cell_volume   337.99180187
_cell_formula_units_Z   1
loop_
 _symmetry_equiv_pos_site_id
 _symmetry_equiv_pos_as_xyz
  1  'x, y, z'
loop_
 _atom_site_type_symbol
 _atom_site_label
 _atom_site_symmetry_multiplicity
 _atom_site_fract_x
 _atom_site_fract_y
 _atom_site_fract_z
 _atom_site_occupancy
  Y  Y0  1  0.000000  0.000000  0.500000  1
  Y  Y1  1  0.000000  0.500000  0.000000  1
  Ho  Ho2  1  0.500000  0.000000  0.000000  1
  Ho  Ho3  1  0.500000  0.500000  0.500000  1
  Sn  Sn4  1  0.685453  0.685796  0.999657  1
  Sn  Sn5  1  0.314547  0.000343  0.314204  1
  Sn  Sn6  1  0.000000  0.314229  0.314229  1
  Sn  Sn7  1  0.314547  0.314204  0.000343  1
  Sn  Sn8  1  0.685453  0.999657  0.685796  1
  Sn  Sn9  1  0.000000  0.685771  0.685771  1
  Ir  Ir10  1  0.749532  0.249991  0.499541  1
  Ir  Ir11  1  0.749532  0.499541  0.249991  1
  Ir  Ir12  1  0.500000  0.250000  0.750000  1
  Ir  Ir13  1  0.250468  0.500459  0.750009  1
  Ir  Ir14  1  0.250468  0.750009  0.500459  1
  Ir  Ir15  1  0.500000  0.750000  0.250000  1
  Ir  Ir16  1  0.000000  0.000000  0.000000  1
