# generated using pymatgen
data_AcTi(GaCu)2
_symmetry_space_group_name_H-M   'P 1'
_cell_length_a   4.25434600
_cell_length_b   4.25434712
_cell_length_c   7.42874700
_cell_angle_alpha   90.00000000
_cell_angle_beta   90.00000000
_cell_angle_gamma   119.99999133
_symmetry_Int_Tables_number   1
_chemical_formula_structural   AcTi(GaCu)2
_chemical_formula_sum   'Ac1 Ti1 Ga2 Cu2'
_cell_volume   116.44261941
_cell_formula_units_Z   1
loop_
 _symmetry_equiv_pos_site_id
 _symmetry_equiv_pos_as_xyz
  1  'x, y, z'
loop_
 _atom_site_type_symbol
 _atom_site_label
 _atom_site_symmetry_multiplicity
 _atom_site_fract_x
 _atom_site_fract_y
 _atom_site_fract_z
 _atom_site_occupancy
  Ac  Ac0  1  0.000000  0.000000  0.000000  1
  Ti  Ti1  1  0.000000  0.000000  0.500000  1
  Ga  Ga2  1  0.333333  0.666667  0.312999  1
  Ga  Ga3  1  0.666667  0.333333  0.687001  1
  Cu  Cu4  1  0.333333  0.666667  0.670415  1
  Cu  Cu5  1  0.666667  0.333333  0.329585  1
