# generated using pymatgen
data_Sc2Mn2FeOs
_symmetry_space_group_name_H-M   'P 1'
_cell_length_a   4.93266204
_cell_length_b   4.94283730
_cell_length_c   8.34252300
_cell_angle_alpha   90.00000000
_cell_angle_beta   90.00000000
_cell_angle_gamma   60.31996577
_symmetry_Int_Tables_number   1
_chemical_formula_structural   Sc2Mn2FeOs
_chemical_formula_sum   'Sc4 Mn4 Fe2 Os2'
_cell_volume   176.71644132
_cell_formula_units_Z   2
loop_
 _symmetry_equiv_pos_site_id
 _symmetry_equiv_pos_as_xyz
  1  'x, y, z'
loop_
 _atom_site_type_symbol
 _atom_site_label
 _atom_site_symmetry_multiplicity
 _atom_site_fract_x
 _atom_site_fract_y
 _atom_site_fract_z
 _atom_site_occupancy
  Sc  Sc0  1  0.333907  0.334095  0.564894  1
  Sc  Sc1  1  0.666176  0.666422  0.436015  1
  Sc  Sc2  1  0.666176  0.666422  0.063985  1
  Sc  Sc3  1  0.333907  0.334095  0.935106  1
  Mn  Mn4  1  0.828676  0.828753  0.750000  1
  Mn  Mn5  1  0.170689  0.648857  0.250000  1
  Mn  Mn6  1  0.648976  0.169851  0.250000  1
  Mn  Mn7  1  0.176884  0.174830  0.250000  1
  Fe  Fe8  1  0.829393  0.343475  0.750000  1
  Fe  Fe9  1  0.343744  0.829319  0.750000  1
  Os  Os10  1  0.000738  0.001940  0.497910  1
  Os  Os11  1  0.000738  0.001940  0.002090  1
