# generated using pymatgen
data_Lu2Hf2Zr3TcF30
_symmetry_space_group_name_H-M   'P 1'
_cell_length_a   8.09700498
_cell_length_b   8.09892691
_cell_length_c   8.08916820
_cell_angle_alpha   79.75404739
_cell_angle_beta   79.74664681
_cell_angle_gamma   100.04853898
_symmetry_Int_Tables_number   1
_chemical_formula_structural   Lu2Hf2Zr3TcF30
_chemical_formula_sum   'Lu2 Hf2 Zr3 Tc1 F30'
_cell_volume   501.89373931
_cell_formula_units_Z   1
loop_
 _symmetry_equiv_pos_site_id
 _symmetry_equiv_pos_as_xyz
  1  'x, y, z'
loop_
 _atom_site_type_symbol
 _atom_site_label
 _atom_site_symmetry_multiplicity
 _atom_site_fract_x
 _atom_site_fract_y
 _atom_site_fract_z
 _atom_site_occupancy
  Lu  Lu0  1  0.678798  0.322669  0.748428  1
  Lu  Lu1  1  0.321789  0.678234  0.250665  1
  Hf  Hf2  1  0.748930  0.251064  0.249774  1
  Hf  Hf3  1  0.821643  0.749873  0.326064  1
  Zr  Zr4  1  0.249379  0.177948  0.174226  1
  Zr  Zr5  1  0.178170  0.250150  0.673520  1
  Zr  Zr6  1  0.749877  0.821770  0.826557  1
  Tc  Tc7  1  0.250464  0.749648  0.750386  1
  F  F8  1  0.148317  0.184969  0.946149  1
  F  F9  1  0.688043  0.560820  0.846339  1
  F  F10  1  0.042331  0.658241  0.312974  1
  F  F11  1  0.654529  0.042871  0.815493  1
  F  F12  1  0.563336  0.688282  0.344751  1
  F  F13  1  0.182046  0.148151  0.448299  1
  F  F14  1  0.849147  0.814898  0.056313  1
  F  F15  1  0.314118  0.439990  0.153264  1
  F  F16  1  0.957887  0.346398  0.683321  1
  F  F17  1  0.344550  0.955884  0.186419  1
  F  F18  1  0.439414  0.312769  0.652144  1
  F  F19  1  0.813679  0.847533  0.552035  1
  F  F20  1  0.967011  0.031803  0.750358  1
  F  F21  1  0.541313  0.751664  0.030690  1
  F  F22  1  0.248582  0.458724  0.468660  1
  F  F23  1  0.457370  0.247580  0.968241  1
  F  F24  1  0.753033  0.543736  0.528748  1
  F  F25  1  0.031266  0.965400  0.250737  1
  F  F26  1  0.219318  0.725862  0.999576  1
  F  F27  1  0.226124  0.499318  0.783956  1
  F  F28  1  0.998188  0.719393  0.776245  1
  F  F29  1  0.725700  0.994439  0.276774  1
  F  F30  1  0.493437  0.224079  0.281310  1
  F  F31  1  0.726199  0.221568  0.503256  1
  F  F32  1  0.778400  0.274548  0.996244  1
  F  F33  1  0.776072  0.506347  0.221676  1
  F  F34  1  0.005362  0.276962  0.224317  1
  F  F35  1  0.280890  0.001681  0.724931  1
  F  F36  1  0.500877  0.774121  0.716188  1
  F  F37  1  0.274414  0.780610  0.500972  1
