# generated using pymatgen
data_Gd5LuC2I11
_symmetry_space_group_name_H-M   'P 1'
_cell_length_a   9.66699468
_cell_length_b   10.82057817
_cell_length_c   15.05409000
_cell_angle_alpha   88.42559708
_cell_angle_beta   104.00444893
_cell_angle_gamma   109.78372897
_symmetry_Int_Tables_number   1
_chemical_formula_structural   Gd5LuC2I11
_chemical_formula_sum   'Gd10 Lu2 C4 I22'
_cell_volume   1435.15197438
_cell_formula_units_Z   2
loop_
 _symmetry_equiv_pos_site_id
 _symmetry_equiv_pos_as_xyz
  1  'x, y, z'
loop_
 _atom_site_type_symbol
 _atom_site_label
 _atom_site_symmetry_multiplicity
 _atom_site_fract_x
 _atom_site_fract_y
 _atom_site_fract_z
 _atom_site_occupancy
  Gd  Gd0  1  0.423984  0.779709  0.265916  1
  Gd  Gd1  1  0.576016  0.220291  0.734084  1
  Gd  Gd2  1  0.625583  0.574480  0.366222  1
  Gd  Gd3  1  0.374417  0.425520  0.633778  1
  Gd  Gd4  1  0.830643  0.646821  0.199349  1
  Gd  Gd5  1  0.169357  0.353179  0.800651  1
  Gd  Gd6  1  0.629705  0.849008  0.097208  1
  Gd  Gd7  1  0.370295  0.150992  0.902792  1
  Gd  Gd8  1  0.857620  0.944116  0.345393  1
  Gd  Gd9  1  0.142380  0.055884  0.654607  1
  Lu  Lu10  1  0.393117  0.484852  0.123312  1
  Lu  Lu11  1  0.606883  0.515148  0.876688  1
  C  C12  1  0.430296  0.343773  0.797148  1
  C  C13  1  0.569704  0.656227  0.202852  1
  C  C14  1  0.317783  0.233696  0.742089  1
  C  C15  1  0.682217  0.766304  0.257911  1
  I  I16  1  0.384872  0.309040  0.272992  1
  I  I17  1  0.615128  0.690960  0.727008  1
  I  I18  1  0.131341  0.556246  0.147926  1
  I  I19  1  0.868659  0.443754  0.852074  1
  I  I20  1  0.623217  0.379784  0.062891  1
  I  I21  1  0.376783  0.620216  0.937109  1
  I  I22  1  0.121614  0.212673  0.478272  1
  I  I23  1  0.878386  0.787327  0.521728  1
  I  I24  1  0.611779  0.030879  0.387985  1
  I  I25  1  0.388221  0.969121  0.612015  1
  I  I26  1  0.124688  0.864789  0.302156  1
  I  I27  1  0.875312  0.135211  0.697844  1
  I  I28  1  0.132335  0.537621  0.650460  1
  I  I29  1  0.867665  0.462379  0.349540  1
  I  I30  1  0.621973  0.374180  0.559860  1
  I  I31  1  0.378027  0.625820  0.440140  1
  I  I32  1  0.149185  0.230953  0.989259  1
  I  I33  1  0.850815  0.769047  0.010741  1
  I  I34  1  0.626419  0.046714  0.900846  1
  I  I35  1  0.373581  0.953286  0.099154  1
  I  I36  1  0.128645  0.889248  0.822434  1
  I  I37  1  0.871355  0.110752  0.177566  1
