# generated using pymatgen
data_Tm4Fe12P12Ir7W
_symmetry_space_group_name_H-M   'P 1'
_cell_length_a   3.77552400
_cell_length_b   10.25929101
_cell_length_c   12.16082506
_cell_angle_alpha   90.28422450
_cell_angle_beta   90.00000000
_cell_angle_gamma   90.00000000
_symmetry_Int_Tables_number   1
_chemical_formula_structural   Tm4Fe12P12Ir7W
_chemical_formula_sum   'Tm4 Fe12 P12 Ir7 W1'
_cell_volume   471.03402750
_cell_formula_units_Z   1
loop_
 _symmetry_equiv_pos_site_id
 _symmetry_equiv_pos_as_xyz
  1  'x, y, z'
loop_
 _atom_site_type_symbol
 _atom_site_label
 _atom_site_symmetry_multiplicity
 _atom_site_fract_x
 _atom_site_fract_y
 _atom_site_fract_z
 _atom_site_occupancy
  Tm  Tm0  1  0.250000  0.581294  0.714617  1
  Tm  Tm1  1  0.250000  0.918590  0.211488  1
  Tm  Tm2  1  0.750000  0.419408  0.287359  1
  Tm  Tm3  1  0.750000  0.079502  0.787156  1
  Fe  Fe4  1  0.250000  0.223283  0.170839  1
  Fe  Fe5  1  0.250000  0.276596  0.670401  1
  Fe  Fe6  1  0.750000  0.778877  0.827483  1
  Fe  Fe7  1  0.750000  0.723666  0.328493  1
  Fe  Fe8  1  0.250000  0.878492  0.694374  1
  Fe  Fe9  1  0.250000  0.622466  0.197621  1
  Fe  Fe10  1  0.750000  0.122353  0.303833  1
  Fe  Fe11  1  0.750000  0.379538  0.804601  1
  Fe  Fe12  1  0.250000  0.456873  0.938389  1
  Fe  Fe13  1  0.250000  0.041813  0.436076  1
  Fe  Fe14  1  0.750000  0.536895  0.064120  1
  Fe  Fe15  1  0.750000  0.958733  0.561547  1
  P  P16  1  0.250000  0.428384  0.115657  1
  P  P17  1  0.250000  0.071508  0.613423  1
  P  P18  1  0.750000  0.575606  0.887707  1
  P  P19  1  0.750000  0.928150  0.384400  1
  P  P20  1  0.250000  0.271833  0.850770  1
  P  P21  1  0.250000  0.227664  0.351586  1
  P  P22  1  0.750000  0.726517  0.145043  1
  P  P23  1  0.750000  0.773359  0.647124  1
  P  P24  1  0.250000  0.602300  0.376339  1
  P  P25  1  0.250000  0.897098  0.875290  1
  P  P26  1  0.750000  0.397038  0.625338  1
  P  P27  1  0.750000  0.105060  0.123874  1
  Ir  Ir28  1  0.250000  0.791376  0.483293  1
  Ir  Ir29  1  0.750000  0.292249  0.014789  1
  Ir  Ir30  1  0.750000  0.208381  0.516562  1
  Ir  Ir31  1  0.250000  0.404826  0.476700  1
  Ir  Ir32  1  0.250000  0.097186  0.973734  1
  Ir  Ir33  1  0.750000  0.594411  0.524728  1
  Ir  Ir34  1  0.750000  0.906326  0.025333  1
  W  W35  1  0.250000  0.702354  0.989913  1
