# generated using pymatgen
data_Dy2Ga(BIr2)3
_symmetry_space_group_name_H-M   'P 1'
_cell_length_a   5.54640600
_cell_length_b   5.54640694
_cell_length_c   13.07727800
_cell_angle_alpha   90.00000000
_cell_angle_beta   90.00000000
_cell_angle_gamma   120.00000634
_symmetry_Int_Tables_number   1
_chemical_formula_structural   Dy2Ga(BIr2)3
_chemical_formula_sum   'Dy4 Ga2 B6 Ir12'
_cell_volume   348.39454585
_cell_formula_units_Z   2
loop_
 _symmetry_equiv_pos_site_id
 _symmetry_equiv_pos_as_xyz
  1  'x, y, z'
loop_
 _atom_site_type_symbol
 _atom_site_label
 _atom_site_symmetry_multiplicity
 _atom_site_fract_x
 _atom_site_fract_y
 _atom_site_fract_z
 _atom_site_occupancy
  Dy  Dy0  1  0.000000  0.000000  0.000000  1
  Dy  Dy1  1  0.000000  0.000000  0.500000  1
  Dy  Dy2  1  0.000000  0.000000  0.742172  1
  Dy  Dy3  1  0.000000  0.000000  0.257828  1
  Ga  Ga4  1  0.666667  0.333333  0.000000  1
  Ga  Ga5  1  0.333333  0.666667  0.000000  1
  B  B6  1  0.666667  0.333333  0.500000  1
  B  B7  1  0.333333  0.666667  0.500000  1
  B  B8  1  0.666667  0.333333  0.734298  1
  B  B9  1  0.333333  0.666667  0.734298  1
  B  B10  1  0.333333  0.666667  0.265702  1
  B  B11  1  0.666667  0.333333  0.265702  1
  Ir  Ir12  1  0.500000  0.500000  0.842356  1
  Ir  Ir13  1  0.500000  0.000000  0.842356  1
  Ir  Ir14  1  0.000000  0.500000  0.842356  1
  Ir  Ir15  1  0.500000  0.500000  0.157644  1
  Ir  Ir16  1  0.500000  0.000000  0.157644  1
  Ir  Ir17  1  0.000000  0.500000  0.157644  1
  Ir  Ir18  1  0.500000  0.500000  0.614289  1
  Ir  Ir19  1  0.500000  0.000000  0.614289  1
  Ir  Ir20  1  0.000000  0.500000  0.614289  1
  Ir  Ir21  1  0.500000  0.500000  0.385711  1
  Ir  Ir22  1  0.500000  0.000000  0.385711  1
  Ir  Ir23  1  0.000000  0.500000  0.385711  1
