# generated using pymatgen
data_Sr9AcTb2(Si7Br3)2
_symmetry_space_group_name_H-M   'P 1'
_cell_length_a   4.16325300
_cell_length_b   12.11892900
_cell_length_c   17.31546500
_cell_angle_alpha   90.00000000
_cell_angle_beta   90.00000000
_cell_angle_gamma   90.00000000
_symmetry_Int_Tables_number   1
_chemical_formula_structural   Sr9AcTb2(Si7Br3)2
_chemical_formula_sum   'Sr9 Ac1 Tb2 Si14 Br6'
_cell_volume   873.63737173
_cell_formula_units_Z   1
loop_
 _symmetry_equiv_pos_site_id
 _symmetry_equiv_pos_as_xyz
  1  'x, y, z'
loop_
 _atom_site_type_symbol
 _atom_site_label
 _atom_site_symmetry_multiplicity
 _atom_site_fract_x
 _atom_site_fract_y
 _atom_site_fract_z
 _atom_site_occupancy
  Sr  Sr0  1  0.000000  0.671910  0.000000  1
  Sr  Sr1  1  0.500000  0.349551  0.753426  1
  Sr  Sr2  1  0.000000  0.649897  0.747137  1
  Sr  Sr3  1  0.500000  0.349551  0.246574  1
  Sr  Sr4  1  0.000000  0.649897  0.252863  1
  Sr  Sr5  1  0.500000  0.057008  0.877384  1
  Sr  Sr6  1  0.000000  0.940122  0.623877  1
  Sr  Sr7  1  0.500000  0.057008  0.122616  1
  Sr  Sr8  1  0.000000  0.940122  0.376123  1
  Ac  Ac9  1  0.500000  0.336872  0.500000  1
  Tb  Tb10  1  0.500000  0.359861  0.000000  1
  Tb  Tb11  1  0.000000  0.641725  0.500000  1
  Si  Si12  1  0.000000  0.167614  0.000000  1
  Si  Si13  1  0.500000  0.832057  0.500000  1
  Si  Si14  1  0.500000  0.555487  0.878524  1
  Si  Si15  1  0.000000  0.443427  0.621644  1
  Si  Si16  1  0.500000  0.555487  0.121476  1
  Si  Si17  1  0.000000  0.443427  0.378356  1
  Si  Si18  1  0.000000  0.261331  0.882095  1
  Si  Si19  1  0.500000  0.737343  0.618135  1
  Si  Si20  1  0.000000  0.261331  0.117905  1
  Si  Si21  1  0.500000  0.737343  0.381865  1
  Si  Si22  1  0.000000  0.455896  0.885196  1
  Si  Si23  1  0.500000  0.543903  0.614957  1
  Si  Si24  1  0.500000  0.543903  0.385043  1
  Si  Si25  1  0.000000  0.455896  0.114804  1
  Br  Br26  1  0.500000  0.108609  0.690744  1
  Br  Br27  1  0.000000  0.892104  0.806985  1
  Br  Br28  1  0.000000  0.135995  0.500000  1
  Br  Br29  1  0.500000  0.864611  0.000000  1
  Br  Br30  1  0.500000  0.108609  0.309256  1
  Br  Br31  1  0.000000  0.892104  0.193015  1
