# generated using pymatgen
data_Ce5MgTa2(P3Ru4)4
_symmetry_space_group_name_H-M   'P 1'
_cell_length_a   12.86338553
_cell_length_b   12.86338384
_cell_length_c   3.95708900
_cell_angle_alpha   90.00000000
_cell_angle_beta   90.00000000
_cell_angle_gamma   120.83929350
_symmetry_Int_Tables_number   1
_chemical_formula_structural   Ce5MgTa2(P3Ru4)4
_chemical_formula_sum   'Ce5 Mg1 Ta2 P12 Ru16'
_cell_volume   562.18795290
_cell_formula_units_Z   1
loop_
 _symmetry_equiv_pos_site_id
 _symmetry_equiv_pos_as_xyz
  1  'x, y, z'
loop_
 _atom_site_type_symbol
 _atom_site_label
 _atom_site_symmetry_multiplicity
 _atom_site_fract_x
 _atom_site_fract_y
 _atom_site_fract_z
 _atom_site_occupancy
  Ce  Ce0  1  0.182747  0.182747  0.500000  1
  Ce  Ce1  1  0.814736  0.000191  0.500000  1
  Ce  Ce2  1  0.000191  0.814736  0.500000  1
  Ce  Ce3  1  0.328395  0.668928  0.000000  1
  Ce  Ce4  1  0.668928  0.328395  0.000000  1
  Mg  Mg5  1  0.559427  0.559427  0.000000  1
  Ta  Ta6  1  0.436299  0.001419  0.000000  1
  Ta  Ta7  1  0.001419  0.436299  0.000000  1
  P  P8  1  0.809334  0.809334  0.000000  1
  P  P9  1  0.182069  0.000754  0.000000  1
  P  P10  1  0.000754  0.182069  0.000000  1
  P  P11  1  0.169997  0.479660  0.500000  1
  P  P12  1  0.519211  0.698888  0.500000  1
  P  P13  1  0.310177  0.836005  0.500000  1
  P  P14  1  0.698888  0.519211  0.500000  1
  P  P15  1  0.836005  0.310177  0.500000  1
  P  P16  1  0.479660  0.169997  0.500000  1
  P  P17  1  0.360658  0.360658  0.000000  1
  P  P18  1  0.632517  0.997997  0.000000  1
  P  P19  1  0.997997  0.632517  0.000000  1
  Ru  Ru20  1  0.713428  0.713428  0.500000  1
  Ru  Ru21  1  0.279946  0.002830  0.500000  1
  Ru  Ru22  1  0.002830  0.279946  0.500000  1
  Ru  Ru23  1  0.185393  0.380174  0.000000  1
  Ru  Ru24  1  0.620803  0.803935  0.000000  1
  Ru  Ru25  1  0.190063  0.818208  0.000000  1
  Ru  Ru26  1  0.803935  0.620803  0.000000  1
  Ru  Ru27  1  0.818208  0.190063  0.000000  1
  Ru  Ru28  1  0.380174  0.185393  0.000000  1
  Ru  Ru29  1  0.366087  0.490999  0.500000  1
  Ru  Ru30  1  0.513241  0.879074  0.500000  1
  Ru  Ru31  1  0.130503  0.640415  0.500000  1
  Ru  Ru32  1  0.879074  0.513241  0.500000  1
  Ru  Ru33  1  0.640415  0.130503  0.500000  1
  Ru  Ru34  1  0.490999  0.366087  0.500000  1
  Ru  Ru35  1  0.995493  0.995493  0.000000  1
