# generated using pymatgen
data_MgPa3(Co4P3)2
_symmetry_space_group_name_H-M   'P 1'
_cell_length_a   3.72684600
_cell_length_b   10.61224800
_cell_length_c   12.27516100
_cell_angle_alpha   90.00000000
_cell_angle_beta   90.00000000
_cell_angle_gamma   90.00000000
_symmetry_Int_Tables_number   1
_chemical_formula_structural   MgPa3(Co4P3)2
_chemical_formula_sum   'Mg2 Pa6 Co16 P12'
_cell_volume   485.48524455
_cell_formula_units_Z   2
loop_
 _symmetry_equiv_pos_site_id
 _symmetry_equiv_pos_as_xyz
  1  'x, y, z'
loop_
 _atom_site_type_symbol
 _atom_site_label
 _atom_site_symmetry_multiplicity
 _atom_site_fract_x
 _atom_site_fract_y
 _atom_site_fract_z
 _atom_site_occupancy
  Mg  Mg0  1  0.500000  0.500000  0.152030  1
  Mg  Mg1  1  0.000000  0.000000  0.847970  1
  Pa  Pa2  1  0.000000  0.500000  0.527928  1
  Pa  Pa3  1  0.500000  0.000000  0.472072  1
  Pa  Pa4  1  0.500000  0.820411  0.206697  1
  Pa  Pa5  1  0.500000  0.179589  0.206697  1
  Pa  Pa6  1  0.000000  0.679589  0.793303  1
  Pa  Pa7  1  0.000000  0.320411  0.793303  1
  Co  Co8  1  0.500000  0.500000  0.700645  1
  Co  Co9  1  0.000000  0.000000  0.299355  1
  Co  Co10  1  0.000000  0.500000  0.985204  1
  Co  Co11  1  0.500000  0.000000  0.014796  1
  Co  Co12  1  0.500000  0.331380  0.994671  1
  Co  Co13  1  0.500000  0.668620  0.994671  1
  Co  Co14  1  0.000000  0.168620  0.005329  1
  Co  Co15  1  0.000000  0.831380  0.005329  1
  Co  Co16  1  0.500000  0.302708  0.431694  1
  Co  Co17  1  0.500000  0.697292  0.431694  1
  Co  Co18  1  0.000000  0.197292  0.568306  1
  Co  Co19  1  0.000000  0.802708  0.568306  1
  Co  Co20  1  0.500000  0.875510  0.709058  1
  Co  Co21  1  0.500000  0.124490  0.709058  1
  Co  Co22  1  0.000000  0.624490  0.290942  1
  Co  Co23  1  0.000000  0.375510  0.290942  1
  P  P24  1  0.500000  0.500000  0.884542  1
  P  P25  1  0.000000  0.000000  0.115458  1
  P  P26  1  0.500000  0.500000  0.351301  1
  P  P27  1  0.000000  0.000000  0.648699  1
  P  P28  1  0.500000  0.308096  0.613387  1
  P  P29  1  0.500000  0.691904  0.613387  1
  P  P30  1  0.000000  0.191904  0.386613  1
  P  P31  1  0.000000  0.808096  0.386613  1
  P  P32  1  0.500000  0.842013  0.896102  1
  P  P33  1  0.500000  0.157987  0.896102  1
  P  P34  1  0.000000  0.657987  0.103898  1
  P  P35  1  0.000000  0.342013  0.103898  1
