# generated using pymatgen
data_Ce2Sm4Zn4Pt13
_symmetry_space_group_name_H-M   'P 1'
_cell_length_a   8.36541897
_cell_length_b   8.36541982
_cell_length_c   8.36518000
_cell_angle_alpha   109.48287873
_cell_angle_beta   109.48288080
_cell_angle_gamma   109.44906146
_symmetry_Int_Tables_number   1
_chemical_formula_structural   Ce2Sm4Zn4Pt13
_chemical_formula_sum   'Ce2 Sm4 Zn4 Pt13'
_cell_volume   450.63257987
_cell_formula_units_Z   1
loop_
 _symmetry_equiv_pos_site_id
 _symmetry_equiv_pos_as_xyz
  1  'x, y, z'
loop_
 _atom_site_type_symbol
 _atom_site_label
 _atom_site_symmetry_multiplicity
 _atom_site_fract_x
 _atom_site_fract_y
 _atom_site_fract_z
 _atom_site_occupancy
  Ce  Ce0  1  0.697337  0.000452  0.697789  1
  Ce  Ce1  1  0.000452  0.697337  0.697789  1
  Sm  Sm2  1  0.697848  0.697848  0.001061  1
  Sm  Sm3  1  0.298904  0.000636  0.299539  1
  Sm  Sm4  1  0.000636  0.298904  0.299539  1
  Sm  Sm5  1  0.303214  0.303214  0.001061  1
  Zn  Zn6  1  0.000489  0.000489  0.498879  1
  Zn  Zn7  1  0.000424  0.500424  0.000848  1
  Zn  Zn8  1  0.500424  0.000424  0.000848  1
  Zn  Zn9  1  0.498390  0.498390  0.498879  1
  Pt  Pt10  1  0.328007  0.328007  0.656012  1
  Pt  Pt11  1  0.670052  0.000247  0.331415  1
  Pt  Pt12  1  0.000247  0.670052  0.331415  1
  Pt  Pt13  1  0.672914  0.327576  0.000490  1
  Pt  Pt14  1  0.331168  0.661363  0.331415  1
  Pt  Pt15  1  0.000285  0.331004  0.670720  1
  Pt  Pt16  1  0.327576  0.672914  0.000490  1
  Pt  Pt17  1  0.331004  0.000285  0.670720  1
  Pt  Pt18  1  0.661363  0.331168  0.331415  1
  Pt  Pt19  1  0.673345  0.673345  0.346692  1
  Pt  Pt20  1  0.670435  0.339717  0.670720  1
  Pt  Pt21  1  0.339717  0.670435  0.670720  1
  Pt  Pt22  1  0.995770  0.995770  0.991541  1
