# generated using pymatgen
data_Yb2Zn11Cu6
_symmetry_space_group_name_H-M   'P 1'
_cell_length_a   6.64248076
_cell_length_b   6.64248022
_cell_length_c   6.64247952
_cell_angle_alpha   83.51876222
_cell_angle_beta   83.51876739
_cell_angle_gamma   83.51876093
_symmetry_Int_Tables_number   1
_chemical_formula_structural   Yb2Zn11Cu6
_chemical_formula_sum   'Yb2 Zn11 Cu6'
_cell_volume   287.85659643
_cell_formula_units_Z   1
loop_
 _symmetry_equiv_pos_site_id
 _symmetry_equiv_pos_as_xyz
  1  'x, y, z'
loop_
 _atom_site_type_symbol
 _atom_site_label
 _atom_site_symmetry_multiplicity
 _atom_site_fract_x
 _atom_site_fract_y
 _atom_site_fract_z
 _atom_site_occupancy
  Yb  Yb0  1  0.660525  0.660525  0.660525  1
  Yb  Yb1  1  0.348914  0.348914  0.348914  1
  Zn  Zn2  1  0.895545  0.895545  0.895545  1
  Zn  Zn3  1  0.105546  0.105546  0.105546  1
  Zn  Zn4  1  0.697108  0.996866  0.303656  1
  Zn  Zn5  1  0.996867  0.303656  0.697109  1
  Zn  Zn6  1  0.303654  0.697107  0.996866  1
  Zn  Zn7  1  0.303656  0.996867  0.697109  1
  Zn  Zn8  1  0.996866  0.697108  0.303656  1
  Zn  Zn9  1  0.697107  0.303654  0.996866  1
  Zn  Zn10  1  0.349132  0.838068  0.349131  1
  Zn  Zn11  1  0.349131  0.349131  0.838068  1
  Zn  Zn12  1  0.838068  0.349132  0.349131  1
  Cu  Cu13  1  0.999717  0.500413  0.999716  1
  Cu  Cu14  1  0.500413  0.999717  0.999716  1
  Cu  Cu15  1  0.999716  0.999716  0.500414  1
  Cu  Cu16  1  0.153806  0.652112  0.652110  1
  Cu  Cu17  1  0.652111  0.652111  0.153805  1
  Cu  Cu18  1  0.652112  0.153806  0.652110  1
