# generated using pymatgen
data_La4Zn4Si3Ge
_symmetry_space_group_name_H-M   'P 1'
_cell_length_a   4.28086200
_cell_length_b   4.28086302
_cell_length_c   17.34242000
_cell_angle_alpha   90.00000000
_cell_angle_beta   90.00000000
_cell_angle_gamma   119.99997664
_symmetry_Int_Tables_number   1
_chemical_formula_structural   La4Zn4Si3Ge
_chemical_formula_sum   'La4 Zn4 Si3 Ge1'
_cell_volume   275.23457763
_cell_formula_units_Z   1
loop_
 _symmetry_equiv_pos_site_id
 _symmetry_equiv_pos_as_xyz
  1  'x, y, z'
loop_
 _atom_site_type_symbol
 _atom_site_label
 _atom_site_symmetry_multiplicity
 _atom_site_fract_x
 _atom_site_fract_y
 _atom_site_fract_z
 _atom_site_occupancy
  La  La0  1  0.000000  0.000000  0.250372  1
  La  La1  1  0.000000  0.000000  0.748742  1
  La  La2  1  0.000000  0.000000  0.001478  1
  La  La3  1  0.000000  0.000000  0.499697  1
  Zn  Zn4  1  0.333333  0.666667  0.133421  1
  Zn  Zn5  1  0.666667  0.333333  0.863380  1
  Zn  Zn6  1  0.666667  0.333333  0.631984  1
  Zn  Zn7  1  0.333333  0.666667  0.367166  1
  Si  Si8  1  0.333333  0.666667  0.620765  1
  Si  Si9  1  0.666667  0.333333  0.378980  1
  Si  Si10  1  0.666667  0.333333  0.121929  1
  Ge  Ge11  1  0.333333  0.666667  0.882086  1
