# generated using pymatgen
data_DySc2SbO7
_symmetry_space_group_name_H-M   'P 1'
_cell_length_a   6.23885863
_cell_length_b   6.23885970
_cell_length_c   7.33836500
_cell_angle_alpha   90.00000000
_cell_angle_beta   90.00000000
_cell_angle_gamma   109.42288989
_symmetry_Int_Tables_number   1
_chemical_formula_structural   DySc2SbO7
_chemical_formula_sum   'Dy2 Sc4 Sb2 O14'
_cell_volume   269.37839369
_cell_formula_units_Z   2
loop_
 _symmetry_equiv_pos_site_id
 _symmetry_equiv_pos_as_xyz
  1  'x, y, z'
loop_
 _atom_site_type_symbol
 _atom_site_label
 _atom_site_symmetry_multiplicity
 _atom_site_fract_x
 _atom_site_fract_y
 _atom_site_fract_z
 _atom_site_occupancy
  Dy  Dy0  1  0.500568  0.500568  0.500000  1
  Dy  Dy1  1  0.499432  0.499432  0.000000  1
  Sc  Sc2  1  0.995262  0.472572  0.749439  1
  Sc  Sc3  1  0.004738  0.527428  0.249439  1
  Sc  Sc4  1  0.527428  0.004738  0.750561  1
  Sc  Sc5  1  0.472572  0.995262  0.250561  1
  Sb  Sb6  1  0.000159  0.000159  0.500000  1
  Sb  Sb7  1  0.999841  0.999841  0.000000  1
  O  O8  1  0.647608  0.352392  0.750000  1
  O  O9  1  0.352392  0.647608  0.250000  1
  O  O10  1  0.920480  0.079520  0.750000  1
  O  O11  1  0.079520  0.920480  0.250000  1
  O  O12  1  0.924522  0.668269  0.534988  1
  O  O13  1  0.075478  0.331731  0.034988  1
  O  O14  1  0.331731  0.075478  0.965012  1
  O  O15  1  0.668269  0.924522  0.465012  1
  O  O16  1  0.359789  0.640211  0.750000  1
  O  O17  1  0.640211  0.359789  0.250000  1
  O  O18  1  0.924993  0.668556  0.964374  1
  O  O19  1  0.075007  0.331444  0.464374  1
  O  O20  1  0.331444  0.075007  0.535626  1
  O  O21  1  0.668556  0.924993  0.035626  1
