# generated using pymatgen
data_Lu6Zr7Al9Os7
_symmetry_space_group_name_H-M   'P 1'
_cell_length_a   9.27067931
_cell_length_b   9.27067890
_cell_length_c   9.27067947
_cell_angle_alpha   59.53274355
_cell_angle_beta   59.53274214
_cell_angle_gamma   59.53274476
_symmetry_Int_Tables_number   1
_chemical_formula_structural   Lu6Zr7Al9Os7
_chemical_formula_sum   'Lu6 Zr7 Al9 Os7'
_cell_volume   557.41774970
_cell_formula_units_Z   1
loop_
 _symmetry_equiv_pos_site_id
 _symmetry_equiv_pos_as_xyz
  1  'x, y, z'
loop_
 _atom_site_type_symbol
 _atom_site_label
 _atom_site_symmetry_multiplicity
 _atom_site_fract_x
 _atom_site_fract_y
 _atom_site_fract_z
 _atom_site_occupancy
  Lu  Lu0  1  0.697548  0.697548  0.303929  1
  Lu  Lu1  1  0.299869  0.707311  0.299869  1
  Lu  Lu2  1  0.707311  0.299869  0.299869  1
  Lu  Lu3  1  0.299869  0.299869  0.707311  1
  Lu  Lu4  1  0.697548  0.303929  0.697548  1
  Lu  Lu5  1  0.303929  0.697548  0.697548  1
  Zr  Zr6  1  0.881457  0.881457  0.364241  1
  Zr  Zr7  1  0.881457  0.364241  0.881457  1
  Zr  Zr8  1  0.364241  0.881457  0.881457  1
  Zr  Zr9  1  0.876253  0.876253  0.876253  1
  Zr  Zr10  1  0.124084  0.124084  0.629065  1
  Zr  Zr11  1  0.124084  0.629065  0.124084  1
  Zr  Zr12  1  0.629065  0.124084  0.124084  1
  Al  Al13  1  0.118879  0.118879  0.118879  1
  Al  Al14  1  0.665387  0.665387  0.002130  1
  Al  Al15  1  0.665387  0.002130  0.665387  1
  Al  Al16  1  0.002130  0.665387  0.665387  1
  Al  Al17  1  0.667155  0.667155  0.667155  1
  Al  Al18  1  0.328472  0.328472  0.002236  1
  Al  Al19  1  0.328472  0.002236  0.328472  1
  Al  Al20  1  0.002236  0.328472  0.328472  1
  Al  Al21  1  0.336507  0.336507  0.336507  1
  Os  Os22  1  0.998498  0.998498  0.998498  1
  Os  Os23  1  0.001215  0.001215  0.498893  1
  Os  Os24  1  0.499969  0.998901  0.499969  1
  Os  Os25  1  0.998901  0.499969  0.499969  1
  Os  Os26  1  0.499969  0.499969  0.998901  1
  Os  Os27  1  0.001215  0.498893  0.001215  1
  Os  Os28  1  0.498893  0.001215  0.001215  1
