# generated using pymatgen
data_YbY3OsRu7
_symmetry_space_group_name_H-M   'P 1'
_cell_length_a   5.26754345
_cell_length_b   5.39478847
_cell_length_c   8.85217232
_cell_angle_alpha   90.00000009
_cell_angle_beta   90.02556290
_cell_angle_gamma   120.80235940
_symmetry_Int_Tables_number   1
_chemical_formula_structural   YbY3OsRu7
_chemical_formula_sum   'Yb1 Y3 Os1 Ru7'
_cell_volume   216.07005070
_cell_formula_units_Z   1
loop_
 _symmetry_equiv_pos_site_id
 _symmetry_equiv_pos_as_xyz
  1  'x, y, z'
loop_
 _atom_site_type_symbol
 _atom_site_label
 _atom_site_symmetry_multiplicity
 _atom_site_fract_x
 _atom_site_fract_y
 _atom_site_fract_z
 _atom_site_occupancy
  Yb  Yb0  1  0.323785  0.661892  0.064901  1
  Y  Y1  1  0.325386  0.662693  0.426977  1
  Y  Y2  1  0.655586  0.327793  0.566454  1
  Y  Y3  1  0.653874  0.326937  0.939215  1
  Os  Os4  1  0.688730  0.844365  0.751569  1
  Ru  Ru5  1  0.970151  0.985075  0.500959  1
  Ru  Ru6  1  0.968222  0.984111  0.000524  1
  Ru  Ru7  1  0.838007  0.163297  0.249824  1
  Ru  Ru8  1  0.838007  0.674710  0.249824  1
  Ru  Ru9  1  0.368514  0.184257  0.251167  1
  Ru  Ru10  1  0.184868  0.825547  0.749294  1
  Ru  Ru11  1  0.184868  0.359322  0.749294  1
