# generated using pymatgen
data_SmY3(Ga5Ni3)2
_symmetry_space_group_name_H-M   'P 1'
_cell_length_a   8.35654706
_cell_length_b   8.35223275
_cell_length_c   8.35223244
_cell_angle_alpha   141.07438429
_cell_angle_beta   107.75462306
_cell_angle_gamma   85.23793329
_symmetry_Int_Tables_number   1
_chemical_formula_structural   SmY3(Ga5Ni3)2
_chemical_formula_sum   'Sm1 Y3 Ga10 Ni6'
_cell_volume   337.04585982
_cell_formula_units_Z   1
loop_
 _symmetry_equiv_pos_site_id
 _symmetry_equiv_pos_as_xyz
  1  'x, y, z'
loop_
 _atom_site_type_symbol
 _atom_site_label
 _atom_site_symmetry_multiplicity
 _atom_site_fract_x
 _atom_site_fract_y
 _atom_site_fract_z
 _atom_site_occupancy
  Sm  Sm0  1  0.366043  0.641856  0.724186  1
  Y  Y1  1  0.634086  0.358275  0.275812  1
  Y  Y2  1  0.082220  0.857997  0.224222  1
  Y  Y3  1  0.918017  0.142109  0.775908  1
  Ga  Ga4  1  0.999114  0.750061  0.749711  1
  Ga  Ga5  1  0.999114  0.249404  0.249054  1
  Ga  Ga6  1  0.711466  0.460453  0.750170  1
  Ga  Ga7  1  0.289125  0.039662  0.749654  1
  Ga  Ga8  1  0.289125  0.539470  0.249463  1
  Ga  Ga9  1  0.711466  0.961296  0.251014  1
  Ga  Ga10  1  0.239063  0.410000  0.829064  1
  Ga  Ga11  1  0.760629  0.589480  0.171146  1
  Ga  Ga12  1  0.581984  0.910649  0.671335  1
  Ga  Ga13  1  0.418688  0.089114  0.329574  1
  Ni  Ni14  1  0.049811  0.644407  0.405404  1
  Ni  Ni15  1  0.237714  0.144272  0.093442  1
  Ni  Ni16  1  0.500182  0.749861  0.250189  1
  Ni  Ni17  1  0.500182  0.249993  0.750321  1
  Ni  Ni18  1  0.949990  0.355874  0.594116  1
  Ni  Ni19  1  0.761982  0.855765  0.906216  1
