# generated using pymatgen
data_Tm3Al2Zn9
_symmetry_space_group_name_H-M   'P 1'
_cell_length_a   8.07927892
_cell_length_b   8.07927915
_cell_length_c   8.07927813
_cell_angle_alpha   149.40987578
_cell_angle_beta   108.82191619
_cell_angle_gamma   79.42878233
_symmetry_Int_Tables_number   1
_chemical_formula_structural   Tm3Al2Zn9
_chemical_formula_sum   'Tm3 Al2 Zn9'
_cell_volume   249.11277757
_cell_formula_units_Z   1
loop_
 _symmetry_equiv_pos_site_id
 _symmetry_equiv_pos_as_xyz
  1  'x, y, z'
loop_
 _atom_site_type_symbol
 _atom_site_label
 _atom_site_symmetry_multiplicity
 _atom_site_fract_x
 _atom_site_fract_y
 _atom_site_fract_z
 _atom_site_occupancy
  Tm  Tm0  1  0.998730  0.000000  0.998730  1
  Tm  Tm1  1  0.297729  0.298934  0.998795  1
  Tm  Tm2  1  0.699861  0.701066  0.998795  1
  Al  Al3  1  0.695294  0.500000  0.195294  1
  Al  Al4  1  0.498526  0.000000  0.498526  1
  Zn  Zn5  1  0.418074  0.140060  0.278014  1
  Zn  Zn6  1  0.137954  0.859941  0.278014  1
  Zn  Zn7  1  0.708260  0.340663  0.367596  1
  Zn  Zn8  1  0.026932  0.659337  0.367596  1
  Zn  Zn9  1  0.976739  0.342394  0.634344  1
  Zn  Zn10  1  0.291949  0.657606  0.634344  1
  Zn  Zn11  1  0.859786  0.139357  0.720429  1
  Zn  Zn12  1  0.581073  0.860644  0.720430  1
  Zn  Zn13  1  0.309095  0.500001  0.809095  1
