# generated using pymatgen
data_Tb3Zn2In3Ir
_symmetry_space_group_name_H-M   'P 1'
_cell_length_a   7.77757500
_cell_length_b   7.77757616
_cell_length_c   3.86772600
_cell_angle_alpha   90.00000000
_cell_angle_beta   90.00000000
_cell_angle_gamma   120.00000784
_symmetry_Int_Tables_number   1
_chemical_formula_structural   Tb3Zn2In3Ir
_chemical_formula_sum   'Tb3 Zn2 In3 Ir1'
_cell_volume   202.61648524
_cell_formula_units_Z   1
loop_
 _symmetry_equiv_pos_site_id
 _symmetry_equiv_pos_as_xyz
  1  'x, y, z'
loop_
 _atom_site_type_symbol
 _atom_site_label
 _atom_site_symmetry_multiplicity
 _atom_site_fract_x
 _atom_site_fract_y
 _atom_site_fract_z
 _atom_site_occupancy
  Tb  Tb0  1  0.415730  0.391500  0.000000  1
  Tb  Tb1  1  0.608500  0.024230  0.000000  1
  Tb  Tb2  1  0.975770  0.584270  0.000000  1
  Zn  Zn3  1  0.000000  0.000000  0.000000  1
  Zn  Zn4  1  0.333333  0.666667  0.500000  1
  In  In5  1  0.005222  0.264907  0.500000  1
  In  In6  1  0.735093  0.740315  0.500000  1
  In  In7  1  0.259685  0.994778  0.500000  1
  Ir  Ir8  1  0.666667  0.333333  0.500000  1
