# generated using pymatgen
data_LiY6Lu13(Cd3Ru)2
_symmetry_space_group_name_H-M   'P 1'
_cell_length_a   9.42706200
_cell_length_b   9.42706135
_cell_length_c   9.59742500
_cell_angle_alpha   90.00000000
_cell_angle_beta   90.00000000
_cell_angle_gamma   119.99999527
_symmetry_Int_Tables_number   1
_chemical_formula_structural   LiY6Lu13(Cd3Ru)2
_chemical_formula_sum   'Li1 Y6 Lu13 Cd6 Ru2'
_cell_volume   738.64893515
_cell_formula_units_Z   1
loop_
 _symmetry_equiv_pos_site_id
 _symmetry_equiv_pos_as_xyz
  1  'x, y, z'
loop_
 _atom_site_type_symbol
 _atom_site_label
 _atom_site_symmetry_multiplicity
 _atom_site_fract_x
 _atom_site_fract_y
 _atom_site_fract_z
 _atom_site_occupancy
  Li  Li0  1  0.000000  0.000000  0.500000  1
  Y  Y1  1  0.540620  0.459380  0.251512  1
  Y  Y2  1  0.540620  0.081239  0.251512  1
  Y  Y3  1  0.918761  0.459380  0.251512  1
  Y  Y4  1  0.459380  0.540620  0.748488  1
  Y  Y5  1  0.459380  0.918761  0.748488  1
  Y  Y6  1  0.081239  0.540620  0.748488  1
  Lu  Lu7  1  0.000000  0.000000  0.000000  1
  Lu  Lu8  1  0.209036  0.790964  0.440580  1
  Lu  Lu9  1  0.209036  0.418071  0.440580  1
  Lu  Lu10  1  0.581929  0.790964  0.440580  1
  Lu  Lu11  1  0.790964  0.209036  0.559420  1
  Lu  Lu12  1  0.790964  0.581929  0.559420  1
  Lu  Lu13  1  0.418071  0.209036  0.559420  1
  Lu  Lu14  1  0.789210  0.210790  0.941651  1
  Lu  Lu15  1  0.789210  0.578419  0.941651  1
  Lu  Lu16  1  0.421581  0.210790  0.941651  1
  Lu  Lu17  1  0.210790  0.789210  0.058349  1
  Lu  Lu18  1  0.210790  0.421581  0.058349  1
  Lu  Lu19  1  0.578419  0.789210  0.058349  1
  Cd  Cd20  1  0.888718  0.111282  0.258285  1
  Cd  Cd21  1  0.888718  0.777438  0.258285  1
  Cd  Cd22  1  0.222562  0.111282  0.258285  1
  Cd  Cd23  1  0.111282  0.888718  0.741715  1
  Cd  Cd24  1  0.111282  0.222562  0.741715  1
  Cd  Cd25  1  0.777438  0.888718  0.741715  1
  Ru  Ru26  1  0.333333  0.666667  0.250355  1
  Ru  Ru27  1  0.666667  0.333333  0.749645  1
