# generated using pymatgen
data_YLuCo4
_symmetry_space_group_name_H-M   'P 1'
_cell_length_a   5.03252346
_cell_length_b   5.03252443
_cell_length_c   5.03252400
_cell_angle_alpha   60.00000280
_cell_angle_beta   59.99999642
_cell_angle_gamma   59.99999641
_symmetry_Int_Tables_number   1
_chemical_formula_structural   YLuCo4
_chemical_formula_sum   'Y1 Lu1 Co4'
_cell_volume   90.12443222
_cell_formula_units_Z   1
loop_
 _symmetry_equiv_pos_site_id
 _symmetry_equiv_pos_as_xyz
  1  'x, y, z'
loop_
 _atom_site_type_symbol
 _atom_site_label
 _atom_site_symmetry_multiplicity
 _atom_site_fract_x
 _atom_site_fract_y
 _atom_site_fract_z
 _atom_site_occupancy
  Y  Y0  1  0.000000  0.000000  0.000000  1
  Lu  Lu1  1  0.250000  0.250000  0.250000  1
  Co  Co2  1  0.624793  0.624793  0.125622  1
  Co  Co3  1  0.624793  0.125622  0.624793  1
  Co  Co4  1  0.125622  0.624793  0.624793  1
  Co  Co5  1  0.624793  0.624793  0.624793  1
