# generated using pymatgen
data_Tb13Dy6TmSn16
_symmetry_space_group_name_H-M   'P 1'
_cell_length_a   8.05093610
_cell_length_b   8.20112122
_cell_length_c   15.50226902
_cell_angle_alpha   90.00422259
_cell_angle_beta   89.99626866
_cell_angle_gamma   89.96656785
_symmetry_Int_Tables_number   1
_chemical_formula_structural   Tb13Dy6TmSn16
_chemical_formula_sum   'Tb13 Dy6 Tm1 Sn16'
_cell_volume   1023.56353035
_cell_formula_units_Z   1
loop_
 _symmetry_equiv_pos_site_id
 _symmetry_equiv_pos_as_xyz
  1  'x, y, z'
loop_
 _atom_site_type_symbol
 _atom_site_label
 _atom_site_symmetry_multiplicity
 _atom_site_fract_x
 _atom_site_fract_y
 _atom_site_fract_z
 _atom_site_occupancy
  Tb  Tb0  1  0.132561  0.336280  0.121371  1
  Tb  Tb1  1  0.632527  0.163770  0.121767  1
  Tb  Tb2  1  0.132524  0.336242  0.378603  1
  Tb  Tb3  1  0.367226  0.836144  0.622120  1
  Tb  Tb4  1  0.867886  0.663381  0.877945  1
  Tb  Tb5  1  0.519838  0.320580  0.901984  1
  Tb  Tb6  1  0.020255  0.179998  0.598038  1
  Tb  Tb7  1  0.480084  0.679807  0.402416  1
  Tb  Tb8  1  0.979957  0.820171  0.097794  1
  Tb  Tb9  1  0.480067  0.679757  0.097543  1
  Tb  Tb10  1  0.979905  0.820197  0.402259  1
  Tb  Tb11  1  0.519914  0.320621  0.597985  1
  Tb  Tb12  1  0.020279  0.179911  0.901947  1
  Dy  Dy13  1  0.367137  0.836209  0.877871  1
  Dy  Dy14  1  0.867771  0.663335  0.622053  1
  Dy  Dy15  1  0.632583  0.163690  0.378276  1
  Dy  Dy16  1  0.698620  0.997900  0.749971  1
  Dy  Dy17  1  0.800984  0.497615  0.250058  1
  Dy  Dy18  1  0.301070  0.002269  0.250019  1
  Tm  Tm19  1  0.199258  0.502642  0.750014  1
  Sn  Sn20  1  0.292663  0.035168  0.041610  1
  Sn  Sn21  1  0.792321  0.464202  0.458360  1
  Sn  Sn22  1  0.707509  0.964356  0.542096  1
  Sn  Sn23  1  0.207637  0.535522  0.957160  1
  Sn  Sn24  1  0.707154  0.964390  0.957775  1
  Sn  Sn25  1  0.207240  0.535355  0.542826  1
  Sn  Sn26  1  0.292833  0.035407  0.458203  1
  Sn  Sn27  1  0.792414  0.464276  0.041740  1
  Sn  Sn28  1  0.564335  0.618288  0.749986  1
  Sn  Sn29  1  0.065536  0.880618  0.750001  1
  Sn  Sn30  1  0.434584  0.381392  0.250063  1
  Sn  Sn31  1  0.934551  0.118614  0.250077  1
  Sn  Sn32  1  0.328083  0.148225  0.750050  1
  Sn  Sn33  1  0.829232  0.353942  0.749946  1
  Sn  Sn34  1  0.671570  0.853701  0.250062  1
  Sn  Sn35  1  0.171889  0.646025  0.250010  1
