# generated using pymatgen
data_NaSr9(Mn2N7)2
_symmetry_space_group_name_H-M   'P 1'
_cell_length_a   6.31785815
_cell_length_b   8.90108020
_cell_length_c   9.06568066
_cell_angle_alpha   115.41543705
_cell_angle_beta   98.52630740
_cell_angle_gamma   90.07616037
_symmetry_Int_Tables_number   1
_chemical_formula_structural   NaSr9(Mn2N7)2
_chemical_formula_sum   'Na1 Sr9 Mn4 N14'
_cell_volume   454.18028920
_cell_formula_units_Z   1
loop_
 _symmetry_equiv_pos_site_id
 _symmetry_equiv_pos_as_xyz
  1  'x, y, z'
loop_
 _atom_site_type_symbol
 _atom_site_label
 _atom_site_symmetry_multiplicity
 _atom_site_fract_x
 _atom_site_fract_y
 _atom_site_fract_z
 _atom_site_occupancy
  Na  Na0  1  0.849089  0.595595  0.336968  1
  Sr  Sr1  1  0.273301  0.984529  0.577386  1
  Sr  Sr2  1  0.711141  0.412513  0.853175  1
  Sr  Sr3  1  0.282398  0.591470  0.160523  1
  Sr  Sr4  1  0.405694  0.790429  0.918549  1
  Sr  Sr5  1  0.602806  0.221008  0.091265  1
  Sr  Sr6  1  0.141023  0.409606  0.665370  1
  Sr  Sr7  1  0.885674  0.836558  0.757588  1
  Sr  Sr8  1  0.116202  0.159845  0.233101  1
  Sr  Sr9  1  0.724361  0.002850  0.418520  1
  Mn  Mn10  1  0.571997  0.364272  0.478938  1
  Mn  Mn11  1  0.426877  0.626720  0.522284  1
  Mn  Mn12  1  0.121747  0.216255  0.906816  1
  Mn  Mn13  1  0.883268  0.789107  0.090462  1
  N  N14  1  0.566737  0.558498  0.669447  1
  N  N15  1  0.425513  0.431584  0.333968  1
  N  N16  1  0.179969  0.687490  0.572900  1
  N  N17  1  0.813861  0.298032  0.424028  1
  N  N18  1  0.426306  0.207469  0.491587  1
  N  N19  1  0.568387  0.786329  0.511459  1
  N  N20  1  0.951405  0.142215  0.715428  1
  N  N21  1  0.060284  0.875085  0.276887  1
  N  N22  1  0.231420  0.052598  0.943859  1
  N  N23  1  0.776302  0.948427  0.044954  1
  N  N24  1  0.343075  0.331415  0.900192  1
  N  N25  1  0.982860  0.336616  0.063826  1
  N  N26  1  0.016936  0.657689  0.931947  1
  N  N27  1  0.661367  0.685796  0.108572  1
