# generated using pymatgen
data_Lu3Mg(Si3Pd)2
_symmetry_space_group_name_H-M   'P 1'
_cell_length_a   8.06254700
_cell_length_b   8.06254798
_cell_length_c   8.09666500
_cell_angle_alpha   90.00000000
_cell_angle_beta   90.00000000
_cell_angle_gamma   121.05932768
_symmetry_Int_Tables_number   1
_chemical_formula_structural   Lu3Mg(Si3Pd)2
_chemical_formula_sum   'Lu6 Mg2 Si12 Pd4'
_cell_volume   450.86426553
_cell_formula_units_Z   2
loop_
 _symmetry_equiv_pos_site_id
 _symmetry_equiv_pos_as_xyz
  1  'x, y, z'
loop_
 _atom_site_type_symbol
 _atom_site_label
 _atom_site_symmetry_multiplicity
 _atom_site_fract_x
 _atom_site_fract_y
 _atom_site_fract_z
 _atom_site_occupancy
  Lu  Lu0  1  0.499907  0.500093  0.750000  1
  Lu  Lu1  1  0.500034  0.499966  0.250000  1
  Lu  Lu2  1  0.999930  0.499961  0.250000  1
  Lu  Lu3  1  0.500039  0.000070  0.250000  1
  Lu  Lu4  1  0.999982  0.000018  0.750000  1
  Lu  Lu5  1  0.999996  0.000004  0.250000  1
  Mg  Mg6  1  0.000216  0.500109  0.750000  1
  Mg  Mg7  1  0.499891  0.999784  0.750000  1
  Si  Si8  1  0.835949  0.164051  0.004009  1
  Si  Si9  1  0.164024  0.835976  0.004048  1
  Si  Si10  1  0.332311  0.168042  0.004125  1
  Si  Si11  1  0.164024  0.835976  0.495952  1
  Si  Si12  1  0.667721  0.831976  0.004199  1
  Si  Si13  1  0.835949  0.164051  0.495991  1
  Si  Si14  1  0.831958  0.667689  0.004125  1
  Si  Si15  1  0.667721  0.831976  0.495801  1
  Si  Si16  1  0.168024  0.332279  0.004199  1
  Si  Si17  1  0.332311  0.168042  0.495875  1
  Si  Si18  1  0.168024  0.332279  0.495801  1
  Si  Si19  1  0.831958  0.667689  0.495875  1
  Pd  Pd20  1  0.670152  0.329848  0.974650  1
  Pd  Pd21  1  0.329863  0.670137  0.975137  1
  Pd  Pd22  1  0.329863  0.670137  0.524863  1
  Pd  Pd23  1  0.670152  0.329848  0.525350  1
