# generated using pymatgen
data_Ho6GaCuOs
_symmetry_space_group_name_H-M   'P 1'
_cell_length_a   8.38279933
_cell_length_b   8.38280002
_cell_length_c   8.38279984
_cell_angle_alpha   112.98313461
_cell_angle_beta   110.29901290
_cell_angle_gamma   105.22559545
_symmetry_Int_Tables_number   1
_chemical_formula_structural   Ho6GaCuOs
_chemical_formula_sum   'Ho12 Ga2 Cu2 Os2'
_cell_volume   451.34879197
_cell_formula_units_Z   2
loop_
 _symmetry_equiv_pos_site_id
 _symmetry_equiv_pos_as_xyz
  1  'x, y, z'
loop_
 _atom_site_type_symbol
 _atom_site_label
 _atom_site_symmetry_multiplicity
 _atom_site_fract_x
 _atom_site_fract_y
 _atom_site_fract_z
 _atom_site_occupancy
  Ho  Ho0  1  0.432991  0.241354  0.191636  1
  Ho  Ho1  1  0.567009  0.758646  0.808364  1
  Ho  Ho2  1  0.049718  0.241354  0.808364  1
  Ho  Ho3  1  0.950282  0.758646  0.191636  1
  Ho  Ho4  1  0.182446  0.272634  0.455079  1
  Ho  Ho5  1  0.817554  0.727366  0.544921  1
  Ho  Ho6  1  0.182446  0.727366  0.909811  1
  Ho  Ho7  1  0.817554  0.272634  0.090189  1
  Ho  Ho8  1  0.334125  0.643453  0.309330  1
  Ho  Ho9  1  0.665875  0.356547  0.690670  1
  Ho  Ho10  1  0.334125  0.024794  0.690670  1
  Ho  Ho11  1  0.665875  0.975206  0.309330  1
  Ga  Ga12  1  0.500000  0.500000  0.000000  1
  Ga  Ga13  1  0.000000  0.000000  0.000000  1
  Cu  Cu14  1  0.119712  0.619712  0.500000  1
  Cu  Cu15  1  0.880288  0.380288  0.500000  1
  Os  Os16  1  0.331695  0.000000  0.331695  1
  Os  Os17  1  0.668305  0.000000  0.668305  1
