# generated using pymatgen
data_Dy4Lu8Tc3Os
_symmetry_space_group_name_H-M   'P 1'
_cell_length_a   6.17997920
_cell_length_b   7.43492217
_cell_length_c   8.88133000
_cell_angle_alpha   90.00000000
_cell_angle_beta   90.00000000
_cell_angle_gamma   90.10126234
_symmetry_Int_Tables_number   1
_chemical_formula_structural   Dy4Lu8Tc3Os
_chemical_formula_sum   'Dy4 Lu8 Tc3 Os1'
_cell_volume   408.07573267
_cell_formula_units_Z   1
loop_
 _symmetry_equiv_pos_site_id
 _symmetry_equiv_pos_as_xyz
  1  'x, y, z'
loop_
 _atom_site_type_symbol
 _atom_site_label
 _atom_site_symmetry_multiplicity
 _atom_site_fract_x
 _atom_site_fract_y
 _atom_site_fract_z
 _atom_site_occupancy
  Dy  Dy0  1  0.878769  0.539532  0.250000  1
  Dy  Dy1  1  0.622564  0.037127  0.250000  1
  Dy  Dy2  1  0.125002  0.458881  0.750000  1
  Dy  Dy3  1  0.377869  0.962956  0.750000  1
  Lu  Lu4  1  0.343900  0.673605  0.061566  1
  Lu  Lu5  1  0.152436  0.175132  0.437082  1
  Lu  Lu6  1  0.655504  0.327997  0.562884  1
  Lu  Lu7  1  0.844956  0.823426  0.936514  1
  Lu  Lu8  1  0.655504  0.327997  0.937116  1
  Lu  Lu9  1  0.844956  0.823426  0.563486  1
  Lu  Lu10  1  0.343900  0.673605  0.438434  1
  Lu  Lu11  1  0.152436  0.175132  0.062918  1
  Tc  Tc12  1  0.048550  0.880980  0.250000  1
  Tc  Tc13  1  0.456012  0.381827  0.250000  1
  Tc  Tc14  1  0.951940  0.118552  0.750000  1
  Os  Os15  1  0.545701  0.619825  0.750000  1
