# generated using pymatgen
data_Tm12Si12PtAu3
_symmetry_space_group_name_H-M   'P 1'
_cell_length_a   4.21955000
_cell_length_b   10.74576131
_cell_length_c   12.22438602
_cell_angle_alpha   90.02534931
_cell_angle_beta   90.00000000
_cell_angle_gamma   90.00000000
_symmetry_Int_Tables_number   1
_chemical_formula_structural   Tm12Si12PtAu3
_chemical_formula_sum   'Tm12 Si12 Pt1 Au3'
_cell_volume   554.28144417
_cell_formula_units_Z   1
loop_
 _symmetry_equiv_pos_site_id
 _symmetry_equiv_pos_as_xyz
  1  'x, y, z'
loop_
 _atom_site_type_symbol
 _atom_site_label
 _atom_site_symmetry_multiplicity
 _atom_site_fract_x
 _atom_site_fract_y
 _atom_site_fract_z
 _atom_site_occupancy
  Tm  Tm0  1  0.250000  0.875603  0.020199  1
  Tm  Tm1  1  0.250000  0.625694  0.522015  1
  Tm  Tm2  1  0.750000  0.122395  0.978204  1
  Tm  Tm3  1  0.750000  0.374963  0.479829  1
  Tm  Tm4  1  0.250000  0.921813  0.601416  1
  Tm  Tm5  1  0.250000  0.578614  0.098978  1
  Tm  Tm6  1  0.750000  0.078394  0.399200  1
  Tm  Tm7  1  0.750000  0.421387  0.898200  1
  Tm  Tm8  1  0.250000  0.666247  0.801323  1
  Tm  Tm9  1  0.250000  0.837126  0.302035  1
  Tm  Tm10  1  0.750000  0.337963  0.197600  1
  Tm  Tm11  1  0.750000  0.156480  0.699372  1
  Si  Si12  1  0.250000  0.016082  0.825846  1
  Si  Si13  1  0.250000  0.475405  0.326506  1
  Si  Si14  1  0.750000  0.974889  0.174745  1
  Si  Si15  1  0.750000  0.526980  0.673221  1
  Si  Si16  1  0.250000  0.241920  0.846782  1
  Si  Si17  1  0.250000  0.253232  0.347925  1
  Si  Si18  1  0.750000  0.753204  0.151878  1
  Si  Si19  1  0.750000  0.751509  0.657264  1
  Si  Si20  1  0.250000  0.183280  0.538139  1
  Si  Si21  1  0.250000  0.316885  0.036140  1
  Si  Si22  1  0.750000  0.817909  0.464454  1
  Si  Si23  1  0.750000  0.691527  0.958174  1
  Pt  Pt24  1  0.750000  0.889062  0.820123  1
  Au  Au25  1  0.250000  0.387329  0.680846  1
  Au  Au26  1  0.250000  0.112039  0.179590  1
  Au  Au27  1  0.750000  0.612068  0.319997  1
