# generated using pymatgen
data_PrTmBi2O7
_symmetry_space_group_name_H-M   'P 1'
_cell_length_a   6.69194379
_cell_length_b   6.79925376
_cell_length_c   7.86028000
_cell_angle_alpha   106.57254322
_cell_angle_beta   89.75180675
_cell_angle_gamma   98.41258129
_symmetry_Int_Tables_number   1
_chemical_formula_structural   PrTmBi2O7
_chemical_formula_sum   'Pr2 Tm2 Bi4 O14'
_cell_volume   338.83553191
_cell_formula_units_Z   2
loop_
 _symmetry_equiv_pos_site_id
 _symmetry_equiv_pos_as_xyz
  1  'x, y, z'
loop_
 _atom_site_type_symbol
 _atom_site_label
 _atom_site_symmetry_multiplicity
 _atom_site_fract_x
 _atom_site_fract_y
 _atom_site_fract_z
 _atom_site_occupancy
  Pr  Pr0  1  0.260366  0.539967  0.883706  1
  Pr  Pr1  1  0.739634  0.460033  0.116294  1
  Tm  Tm2  1  0.460527  0.005957  0.253004  1
  Tm  Tm3  1  0.539473  0.994043  0.746996  1
  Bi  Bi4  1  0.000000  0.000000  0.500000  1
  Bi  Bi5  1  0.000000  0.000000  0.000000  1
  Bi  Bi6  1  0.722780  0.455476  0.610856  1
  Bi  Bi7  1  0.277220  0.544524  0.389144  1
  O  O8  1  0.445997  0.662542  0.175427  1
  O  O9  1  0.554003  0.337458  0.824573  1
  O  O10  1  0.304826  0.934472  0.947895  1
  O  O11  1  0.695174  0.065528  0.052105  1
  O  O12  1  0.302897  0.926442  0.516540  1
  O  O13  1  0.697103  0.073558  0.483460  1
  O  O14  1  0.533616  0.351323  0.345779  1
  O  O15  1  0.466384  0.648677  0.654221  1
  O  O16  1  0.929279  0.673439  0.954298  1
  O  O17  1  0.070721  0.326561  0.045702  1
  O  O18  1  0.083880  0.323699  0.619253  1
  O  O19  1  0.916120  0.676301  0.380747  1
  O  O20  1  0.873175  0.940906  0.735829  1
  O  O21  1  0.126825  0.059094  0.264171  1
