# generated using pymatgen
data_K2AsHO4
_symmetry_space_group_name_H-M   'P 1'
_cell_length_a   7.95404200
_cell_length_b   6.17148767
_cell_length_c   12.66362616
_cell_angle_alpha   61.96993221
_cell_angle_beta   90.00000000
_cell_angle_gamma   90.00000000
_symmetry_Int_Tables_number   1
_chemical_formula_structural   K2AsHO4
_chemical_formula_sum   'K8 As4 H4 O16'
_cell_volume   548.71836377
_cell_formula_units_Z   4
loop_
 _symmetry_equiv_pos_site_id
 _symmetry_equiv_pos_as_xyz
  1  'x, y, z'
loop_
 _atom_site_type_symbol
 _atom_site_label
 _atom_site_symmetry_multiplicity
 _atom_site_fract_x
 _atom_site_fract_y
 _atom_site_fract_z
 _atom_site_occupancy
  K  K0  1  0.500000  0.000000  0.500000  1
  K  K1  1  0.000000  0.000000  0.000000  1
  K  K2  1  0.000000  0.000000  0.500000  1
  K  K3  1  0.500000  0.000000  0.000000  1
  K  K4  1  0.736373  0.633375  0.872359  1
  K  K5  1  0.236373  0.366625  0.627641  1
  K  K6  1  0.263627  0.366625  0.127641  1
  K  K7  1  0.763627  0.633375  0.372359  1
  As  As8  1  0.754211  0.313844  0.692749  1
  As  As9  1  0.254211  0.686156  0.807251  1
  As  As10  1  0.245789  0.686156  0.307251  1
  As  As11  1  0.745789  0.313844  0.192749  1
  H  H12  1  0.013178  0.953542  0.765299  1
  H  H13  1  0.513178  0.046458  0.734701  1
  H  H14  1  0.986822  0.046458  0.234701  1
  H  H15  1  0.486822  0.953542  0.265299  1
  O  O16  1  0.747222  0.619705  0.597799  1
  O  O17  1  0.247222  0.380295  0.902201  1
  O  O18  1  0.252778  0.380295  0.402201  1
  O  O19  1  0.752778  0.619705  0.097799  1
  O  O20  1  0.748027  0.230416  0.841394  1
  O  O21  1  0.248027  0.769584  0.658606  1
  O  O22  1  0.251973  0.769584  0.158606  1
  O  O23  1  0.751973  0.230416  0.341394  1
  O  O24  1  0.917830  0.172880  0.659284  1
  O  O25  1  0.417830  0.827120  0.840716  1
  O  O26  1  0.082170  0.827120  0.340716  1
  O  O27  1  0.582170  0.172880  0.159284  1
  O  O28  1  0.934682  0.190556  0.160191  1
  O  O29  1  0.434682  0.809444  0.339809  1
  O  O30  1  0.065318  0.809444  0.839809  1
  O  O31  1  0.565318  0.190556  0.660191  1
