# generated using pymatgen
data_LiBe8Al2Re
_symmetry_space_group_name_H-M   'P 1'
_cell_length_a   4.39874900
_cell_length_b   4.39874892
_cell_length_c   7.18115500
_cell_angle_alpha   90.00000000
_cell_angle_beta   90.00000000
_cell_angle_gamma   120.00000811
_symmetry_Int_Tables_number   1
_chemical_formula_structural   LiBe8Al2Re
_chemical_formula_sum   'Li1 Be8 Al2 Re1'
_cell_volume   120.33258642
_cell_formula_units_Z   1
loop_
 _symmetry_equiv_pos_site_id
 _symmetry_equiv_pos_as_xyz
  1  'x, y, z'
loop_
 _atom_site_type_symbol
 _atom_site_label
 _atom_site_symmetry_multiplicity
 _atom_site_fract_x
 _atom_site_fract_y
 _atom_site_fract_z
 _atom_site_occupancy
  Li  Li0  1  0.333333  0.666667  0.075231  1
  Be  Be1  1  0.000000  0.000000  0.990085  1
  Be  Be2  1  0.000000  0.000000  0.496148  1
  Be  Be3  1  0.835040  0.670080  0.254486  1
  Be  Be4  1  0.168997  0.831003  0.744207  1
  Be  Be5  1  0.662005  0.831003  0.744207  1
  Be  Be6  1  0.329920  0.164960  0.254486  1
  Be  Be7  1  0.835040  0.164960  0.254486  1
  Be  Be8  1  0.168997  0.337995  0.744207  1
  Al  Al9  1  0.666667  0.333333  0.544128  1
  Al  Al10  1  0.666667  0.333333  0.946114  1
  Re  Re11  1  0.333333  0.666667  0.452218  1
