# generated using pymatgen
data_La6Pr4Zn3GaRu6
_symmetry_space_group_name_H-M   'P 1'
_cell_length_a   8.58507971
_cell_length_b   8.63971210
_cell_length_c   8.58507975
_cell_angle_alpha   109.60018353
_cell_angle_beta   109.34194257
_cell_angle_gamma   109.60019343
_symmetry_Int_Tables_number   1
_chemical_formula_structural   La6Pr4Zn3GaRu6
_chemical_formula_sum   'La6 Pr4 Zn3 Ga1 Ru6'
_cell_volume   489.40944380
_cell_formula_units_Z   1
loop_
 _symmetry_equiv_pos_site_id
 _symmetry_equiv_pos_as_xyz
  1  'x, y, z'
loop_
 _atom_site_type_symbol
 _atom_site_label
 _atom_site_symmetry_multiplicity
 _atom_site_fract_x
 _atom_site_fract_y
 _atom_site_fract_z
 _atom_site_occupancy
  La  La0  1  0.251110  0.687796  0.441092  1
  La  La1  1  0.748747  0.811139  0.059506  1
  La  La2  1  0.440494  0.251633  0.689241  1
  La  La3  1  0.689983  0.436687  0.248890  1
  La  La4  1  0.058908  0.746704  0.810017  1
  La  La5  1  0.810759  0.062392  0.751253  1
  Pr  Pr6  1  0.221641  0.221550  0.221227  1
  Pr  Pr7  1  0.499586  0.999908  0.278359  1
  Pr  Pr8  1  0.278773  0.500323  0.000414  1
  Pr  Pr9  1  0.000000  0.278247  0.500000  1
  Zn  Zn10  1  0.587948  0.587283  0.585558  1
  Zn  Zn11  1  0.497610  0.999335  0.912052  1
  Zn  Zn12  1  0.914442  0.501726  0.002390  1
  Ga  Ga13  1  0.000000  0.911819  0.500000  1
  Ru  Ru14  1  0.243493  0.119164  0.864830  1
  Ru  Ru15  1  0.748920  0.376267  0.625596  1
  Ru  Ru16  1  0.874403  0.250672  0.123324  1
  Ru  Ru17  1  0.121337  0.875669  0.256507  1
  Ru  Ru18  1  0.635170  0.754334  0.378663  1
  Ru  Ru19  1  0.376676  0.627348  0.751080  1
