# generated using pymatgen
data_TbY(Ni3P2)2
_symmetry_space_group_name_H-M   'P 1'
_cell_length_a   3.78717300
_cell_length_b   10.48612700
_cell_length_c   12.33007000
_cell_angle_alpha   89.99811143
_cell_angle_beta   90.00039184
_cell_angle_gamma   89.99991090
_symmetry_Int_Tables_number   1
_chemical_formula_structural   TbY(Ni3P2)2
_chemical_formula_sum   'Tb3 Y3 Ni18 P12'
_cell_volume   489.66132077
_cell_formula_units_Z   3
loop_
 _symmetry_equiv_pos_site_id
 _symmetry_equiv_pos_as_xyz
  1  'x, y, z'
loop_
 _atom_site_type_symbol
 _atom_site_label
 _atom_site_symmetry_multiplicity
 _atom_site_fract_x
 _atom_site_fract_y
 _atom_site_fract_z
 _atom_site_occupancy
  Tb  Tb0  1  0.752154  0.999963  0.478974  1
  Tb  Tb1  1  0.252152  0.500046  0.521201  1
  Tb  Tb2  1  0.751814  0.184021  0.205588  1
  Y  Y3  1  0.251833  0.684137  0.794365  1
  Y  Y4  1  0.251831  0.315913  0.794320  1
  Y  Y5  1  0.751831  0.815950  0.205536  1
  Ni  Ni6  1  0.751749  0.000005  0.016198  1
  Ni  Ni7  1  0.251752  0.500018  0.983768  1
  Ni  Ni8  1  0.252244  0.199169  0.571328  1
  Ni  Ni9  1  0.252239  0.800801  0.571281  1
  Ni  Ni10  1  0.752238  0.300826  0.428739  1
  Ni  Ni11  1  0.752244  0.699182  0.428699  1
  Ni  Ni12  1  0.251809  0.620336  0.288880  1
  Ni  Ni13  1  0.251794  0.379775  0.288965  1
  Ni  Ni14  1  0.751806  0.879758  0.711111  1
  Ni  Ni15  1  0.751810  0.120260  0.711139  1
  Ni  Ni16  1  0.251611  0.167162  0.004107  1
  Ni  Ni17  1  0.251603  0.832825  0.004149  1
  Ni  Ni18  1  0.751610  0.332903  0.995776  1
  Ni  Ni19  1  0.751604  0.667100  0.995785  1
  Ni  Ni20  1  0.250844  0.999955  0.841872  1
  Ni  Ni21  1  0.750834  0.499986  0.158194  1
  Ni  Ni22  1  0.252101  0.999982  0.300100  1
  Ni  Ni23  1  0.752082  0.500028  0.699862  1
  P  P24  1  0.252131  0.187241  0.385904  1
  P  P25  1  0.252125  0.812752  0.385736  1
  P  P26  1  0.752124  0.312805  0.614281  1
  P  P27  1  0.752129  0.687227  0.614270  1
  P  P28  1  0.251802  0.999838  0.123267  1
  P  P29  1  0.751797  0.500009  0.876606  1
  P  P30  1  0.251564  0.651609  0.107050  1
  P  P31  1  0.251553  0.348509  0.106969  1
  P  P32  1  0.751543  0.848316  0.892978  1
  P  P33  1  0.751556  0.151666  0.893040  1
  P  P34  1  0.251846  0.999994  0.656594  1
  P  P35  1  0.751843  0.499932  0.343367  1
