# generated using pymatgen
data_Tb2ThSn3Pt2Rh
_symmetry_space_group_name_H-M   'P 1'
_cell_length_a   7.52805800
_cell_length_b   7.52799994
_cell_length_c   4.11121800
_cell_angle_alpha   90.00000000
_cell_angle_beta   90.00000000
_cell_angle_gamma   120.00024636
_symmetry_Int_Tables_number   1
_chemical_formula_structural   Tb2ThSn3Pt2Rh
_chemical_formula_sum   'Tb2 Th1 Sn3 Pt2 Rh1'
_cell_volume   201.77280100
_cell_formula_units_Z   1
loop_
 _symmetry_equiv_pos_site_id
 _symmetry_equiv_pos_as_xyz
  1  'x, y, z'
loop_
 _atom_site_type_symbol
 _atom_site_label
 _atom_site_symmetry_multiplicity
 _atom_site_fract_x
 _atom_site_fract_y
 _atom_site_fract_z
 _atom_site_occupancy
  Tb  Tb0  1  0.000266  0.408284  0.500000  1
  Tb  Tb1  1  0.591983  0.591716  0.500000  1
  Th  Th2  1  0.411258  0.000000  0.500000  1
  Sn  Sn3  1  0.756903  0.000000  0.000000  1
  Sn  Sn4  1  0.990336  0.740170  0.000000  1
  Sn  Sn5  1  0.250166  0.259830  0.000000  1
  Pt  Pt6  1  0.333025  0.673610  0.000000  1
  Pt  Pt7  1  0.659416  0.326390  0.000000  1
  Rh  Rh8  1  0.006648  0.000000  0.500000  1
