# generated using pymatgen
data_YHo(In2Rh)2
_symmetry_space_group_name_H-M   'P 1'
_cell_length_a   5.51707222
_cell_length_b   5.51707155
_cell_length_c   8.23402600
_cell_angle_alpha   90.00000000
_cell_angle_beta   90.00000000
_cell_angle_gamma   135.01258488
_symmetry_Int_Tables_number   1
_chemical_formula_structural   YHo(In2Rh)2
_chemical_formula_sum   'Y1 Ho1 In4 Rh2'
_cell_volume   177.18179983
_cell_formula_units_Z   1
loop_
 _symmetry_equiv_pos_site_id
 _symmetry_equiv_pos_as_xyz
  1  'x, y, z'
loop_
 _atom_site_type_symbol
 _atom_site_label
 _atom_site_symmetry_multiplicity
 _atom_site_fract_x
 _atom_site_fract_y
 _atom_site_fract_z
 _atom_site_occupancy
  Y  Y0  1  0.932529  0.067471  0.750000  1
  Ho  Ho1  1  0.068117  0.931883  0.250000  1
  In  In2  1  0.643895  0.356105  0.548751  1
  In  In3  1  0.356170  0.643830  0.451093  1
  In  In4  1  0.643895  0.356105  0.951249  1
  In  In5  1  0.356170  0.643830  0.048907  1
  Rh  Rh6  1  0.222488  0.777512  0.750000  1
  Rh  Rh7  1  0.776738  0.223262  0.250000  1
