# generated using pymatgen
data_Ta8GeB4Mo2As
_symmetry_space_group_name_H-M   'P 1'
_cell_length_a   7.30390545
_cell_length_b   7.30390617
_cell_length_c   7.30390652
_cell_angle_alpha   129.72035308
_cell_angle_beta   129.72035461
_cell_angle_gamma   73.85421345
_symmetry_Int_Tables_number   1
_chemical_formula_structural   Ta8GeB4Mo2As
_chemical_formula_sum   'Ta8 Ge1 B4 Mo2 As1'
_cell_volume   224.86284675
_cell_formula_units_Z   1
loop_
 _symmetry_equiv_pos_site_id
 _symmetry_equiv_pos_as_xyz
  1  'x, y, z'
loop_
 _atom_site_type_symbol
 _atom_site_label
 _atom_site_symmetry_multiplicity
 _atom_site_fract_x
 _atom_site_fract_y
 _atom_site_fract_z
 _atom_site_occupancy
  Ta  Ta0  1  0.528143  0.697065  0.499973  1
  Ta  Ta1  1  0.197092  0.028170  0.500027  1
  Ta  Ta2  1  0.028170  0.528143  0.831077  1
  Ta  Ta3  1  0.697065  0.197092  0.168923  1
  Ta  Ta4  1  0.471830  0.302908  0.499973  1
  Ta  Ta5  1  0.802935  0.971857  0.500027  1
  Ta  Ta6  1  0.971857  0.471830  0.168923  1
  Ta  Ta7  1  0.302908  0.802935  0.831077  1
  Ge  Ge8  1  0.750000  0.750000  0.000000  1
  B  B9  1  0.878395  0.621605  0.500000  1
  B  B10  1  0.121605  0.378395  0.500000  1
  B  B11  1  0.378395  0.878395  0.256791  1
  B  B12  1  0.621605  0.121605  0.743209  1
  Mo  Mo13  1  0.500513  0.500513  0.000000  1
  Mo  Mo14  1  0.999487  0.999487  0.000000  1
  As  As15  1  0.250000  0.250000  0.000000  1
