# generated using pymatgen
data_Tm3BRh6Pb
_symmetry_space_group_name_H-M   'P 1'
_cell_length_a   5.79991200
_cell_length_b   5.79991139
_cell_length_c   13.94192500
_cell_angle_alpha   90.00000000
_cell_angle_beta   90.00000000
_cell_angle_gamma   119.99999210
_symmetry_Int_Tables_number   1
_chemical_formula_structural   Tm3BRh6Pb
_chemical_formula_sum   'Tm6 B2 Rh12 Pb2'
_cell_volume   406.15908394
_cell_formula_units_Z   2
loop_
 _symmetry_equiv_pos_site_id
 _symmetry_equiv_pos_as_xyz
  1  'x, y, z'
loop_
 _atom_site_type_symbol
 _atom_site_label
 _atom_site_symmetry_multiplicity
 _atom_site_fract_x
 _atom_site_fract_y
 _atom_site_fract_z
 _atom_site_occupancy
  Tm  Tm0  1  0.000000  0.000000  0.750000  1
  Tm  Tm1  1  0.000000  0.000000  0.250000  1
  Tm  Tm2  1  0.333333  0.666667  0.414199  1
  Tm  Tm3  1  0.666667  0.333333  0.914199  1
  Tm  Tm4  1  0.666667  0.333333  0.585801  1
  Tm  Tm5  1  0.333333  0.666667  0.085801  1
  B  B6  1  0.000000  0.000000  0.500000  1
  B  B7  1  0.000000  0.000000  0.000000  1
  Rh  Rh8  1  0.342991  0.171496  0.414535  1
  Rh  Rh9  1  0.828504  0.171496  0.414535  1
  Rh  Rh10  1  0.828504  0.657009  0.414535  1
  Rh  Rh11  1  0.171496  0.342991  0.914535  1
  Rh  Rh12  1  0.657009  0.828504  0.585465  1
  Rh  Rh13  1  0.657009  0.828504  0.914535  1
  Rh  Rh14  1  0.342991  0.171496  0.085465  1
  Rh  Rh15  1  0.171496  0.342991  0.585465  1
  Rh  Rh16  1  0.171496  0.828504  0.585465  1
  Rh  Rh17  1  0.828504  0.171496  0.085465  1
  Rh  Rh18  1  0.828504  0.657009  0.085465  1
  Rh  Rh19  1  0.171496  0.828504  0.914535  1
  Pb  Pb20  1  0.333333  0.666667  0.750000  1
  Pb  Pb21  1  0.666667  0.333333  0.250000  1
