# generated using pymatgen
data_Nd4Al18Ir3Pd2Pt
_symmetry_space_group_name_H-M   'P 1'
_cell_length_a   7.65148409
_cell_length_b   7.65148418
_cell_length_c   9.58224101
_cell_angle_alpha   90.00275411
_cell_angle_beta   90.00275796
_cell_angle_gamma   119.41805425
_symmetry_Int_Tables_number   1
_chemical_formula_structural   Nd4Al18Ir3Pd2Pt
_chemical_formula_sum   'Nd4 Al18 Ir3 Pd2 Pt1'
_cell_volume   488.65918361
_cell_formula_units_Z   1
loop_
 _symmetry_equiv_pos_site_id
 _symmetry_equiv_pos_as_xyz
  1  'x, y, z'
loop_
 _atom_site_type_symbol
 _atom_site_label
 _atom_site_symmetry_multiplicity
 _atom_site_fract_x
 _atom_site_fract_y
 _atom_site_fract_z
 _atom_site_occupancy
  Nd  Nd0  1  0.995011  0.671853  0.250284  1
  Nd  Nd1  1  0.004595  0.327754  0.749724  1
  Nd  Nd2  1  0.672246  0.995405  0.250276  1
  Nd  Nd3  1  0.328147  0.004989  0.749716  1
  Al  Al4  1  0.134634  0.133969  0.250251  1
  Al  Al5  1  0.866031  0.865366  0.749749  1
  Al  Al6  1  0.005837  0.339546  0.075555  1
  Al  Al7  1  0.000652  0.663951  0.924571  1
  Al  Al8  1  0.997722  0.660073  0.573815  1
  Al  Al9  1  0.339927  0.002278  0.426185  1
  Al  Al10  1  0.002378  0.339703  0.425931  1
  Al  Al11  1  0.660297  0.997622  0.574069  1
  Al  Al12  1  0.660454  0.994163  0.924445  1
  Al  Al13  1  0.336049  0.999348  0.075429  1
  Al  Al14  1  0.337403  0.337441  0.550090  1
  Al  Al15  1  0.662559  0.662597  0.449910  1
  Al  Al16  1  0.662296  0.665523  0.052100  1
  Al  Al17  1  0.334477  0.337704  0.947900  1
  Al  Al18  1  0.340211  0.548669  0.250244  1
  Al  Al19  1  0.660217  0.453109  0.747202  1
  Al  Al20  1  0.546891  0.339783  0.252798  1
  Al  Al21  1  0.451331  0.659789  0.749756  1
  Ir  Ir22  1  0.328783  0.671217  0.000000  1
  Ir  Ir23  1  0.328909  0.671091  0.500000  1
  Ir  Ir24  1  0.671408  0.328592  0.500000  1
  Pd  Pd25  1  0.999874  0.000126  0.000000  1
  Pd  Pd26  1  0.000089  0.999911  0.500000  1
  Pt  Pt27  1  0.671571  0.328429  0.000000  1
