# generated using pymatgen
data_YbCeSc3Si7Pt9
_symmetry_space_group_name_H-M   'P 1'
_cell_length_a   10.08042800
_cell_length_b   10.08042737
_cell_length_c   3.97777900
_cell_angle_alpha   90.00000000
_cell_angle_beta   90.00000000
_cell_angle_gamma   120.00000207
_symmetry_Int_Tables_number   1
_chemical_formula_structural   YbCeSc3Si7Pt9
_chemical_formula_sum   'Yb1 Ce1 Sc3 Si7 Pt9'
_cell_volume   350.04928110
_cell_formula_units_Z   1
loop_
 _symmetry_equiv_pos_site_id
 _symmetry_equiv_pos_as_xyz
  1  'x, y, z'
loop_
 _atom_site_type_symbol
 _atom_site_label
 _atom_site_symmetry_multiplicity
 _atom_site_fract_x
 _atom_site_fract_y
 _atom_site_fract_z
 _atom_site_occupancy
  Yb  Yb0  1  0.000000  0.000000  0.000000  1
  Ce  Ce1  1  0.333333  0.666667  0.500000  1
  Sc  Sc2  1  0.894197  0.457165  0.500000  1
  Sc  Sc3  1  0.562967  0.105803  0.500000  1
  Sc  Sc4  1  0.542835  0.437033  0.500000  1
  Si  Si5  1  0.243133  0.192230  0.500000  1
  Si  Si6  1  0.807770  0.050903  0.500000  1
  Si  Si7  1  0.949097  0.756867  0.500000  1
  Si  Si8  1  0.560937  0.647345  0.000000  1
  Si  Si9  1  0.352655  0.913592  0.000000  1
  Si  Si10  1  0.086408  0.439063  0.000000  1
  Si  Si11  1  0.666667  0.333333  0.000000  1
  Pt  Pt12  1  0.218446  0.935577  0.500000  1
  Pt  Pt13  1  0.064423  0.282870  0.500000  1
  Pt  Pt14  1  0.717130  0.781554  0.500000  1
  Pt  Pt15  1  0.314471  0.413511  0.000000  1
  Pt  Pt16  1  0.586489  0.900960  0.000000  1
  Pt  Pt17  1  0.099040  0.685529  0.000000  1
  Pt  Pt18  1  0.385490  0.174380  0.000000  1
  Pt  Pt19  1  0.825620  0.211111  0.000000  1
  Pt  Pt20  1  0.788889  0.614510  0.000000  1
