# generated using pymatgen
data_Ta3Si3MoW2
_symmetry_space_group_name_H-M   'P 1'
_cell_length_a   6.96204723
_cell_length_b   6.96689797
_cell_length_c   3.32768600
_cell_angle_alpha   90.00000000
_cell_angle_beta   90.00000000
_cell_angle_gamma   120.02306164
_symmetry_Int_Tables_number   1
_chemical_formula_structural   Ta3Si3MoW2
_chemical_formula_sum   'Ta3 Si3 Mo1 W2'
_cell_volume   139.74890580
_cell_formula_units_Z   1
loop_
 _symmetry_equiv_pos_site_id
 _symmetry_equiv_pos_as_xyz
  1  'x, y, z'
loop_
 _atom_site_type_symbol
 _atom_site_label
 _atom_site_symmetry_multiplicity
 _atom_site_fract_x
 _atom_site_fract_y
 _atom_site_fract_z
 _atom_site_occupancy
  Ta  Ta0  1  0.403053  0.399984  0.500000  1
  Ta  Ta1  1  0.596947  0.996931  0.500000  1
  Ta  Ta2  1  0.000000  0.601314  0.500000  1
  Si  Si3  1  0.667663  0.332347  0.000000  1
  Si  Si4  1  0.332337  0.664685  0.000000  1
  Si  Si5  1  0.000000  0.004329  0.500000  1
  Mo  Mo6  1  0.000000  0.260330  0.000000  1
  W  W7  1  0.741285  0.740681  0.000000  1
  W  W8  1  0.258715  0.999397  0.000000  1
