# generated using pymatgen
data_La3ThCd3Au10
_symmetry_space_group_name_H-M   'P 1'
_cell_length_a   8.88058400
_cell_length_b   8.88058523
_cell_length_c   10.52544300
_cell_angle_alpha   90.00000000
_cell_angle_beta   90.00000000
_cell_angle_gamma   107.90476883
_symmetry_Int_Tables_number   1
_chemical_formula_structural   La3ThCd3Au10
_chemical_formula_sum   'La6 Th2 Cd6 Au20'
_cell_volume   789.88469628
_cell_formula_units_Z   2
loop_
 _symmetry_equiv_pos_site_id
 _symmetry_equiv_pos_as_xyz
  1  'x, y, z'
loop_
 _atom_site_type_symbol
 _atom_site_label
 _atom_site_symmetry_multiplicity
 _atom_site_fract_x
 _atom_site_fract_y
 _atom_site_fract_z
 _atom_site_occupancy
  La  La0  1  0.798263  0.801126  0.292925  1
  La  La1  1  0.298263  0.301126  0.207075  1
  La  La2  1  0.796664  0.203324  0.499987  1
  La  La3  1  0.296664  0.703324  0.000013  1
  La  La4  1  0.698933  0.701713  0.792933  1
  La  La5  1  0.198933  0.201713  0.707067  1
  Th  Th6  1  0.701976  0.297987  0.999985  1
  Th  Th7  1  0.201976  0.797987  0.500015  1
  Cd  Cd8  1  0.514827  0.015031  0.250821  1
  Cd  Cd9  1  0.984980  0.485160  0.749359  1
  Cd  Cd10  1  0.003405  0.996572  0.000003  1
  Cd  Cd11  1  0.014827  0.515031  0.249179  1
  Cd  Cd12  1  0.484980  0.985160  0.750641  1
  Cd  Cd13  1  0.503405  0.496572  0.499997  1
  Au  Au14  1  0.157216  0.434228  0.480408  1
  Au  Au15  1  0.903134  0.902945  0.592385  1
  Au  Au16  1  0.565757  0.842823  0.519492  1
  Au  Au17  1  0.883398  0.165314  0.206964  1
  Au  Au18  1  0.383398  0.665314  0.293036  1
  Au  Au19  1  0.662043  0.380328  0.285886  1
  Au  Au20  1  0.403134  0.402945  0.907615  1
  Au  Au21  1  0.928240  0.650239  0.014726  1
  Au  Au22  1  0.334875  0.616767  0.707006  1
  Au  Au23  1  0.349719  0.071804  0.985187  1
  Au  Au24  1  0.597061  0.596853  0.092404  1
  Au  Au25  1  0.657216  0.934228  0.019592  1
  Au  Au26  1  0.097061  0.096853  0.407596  1
  Au  Au27  1  0.619511  0.337785  0.714073  1
  Au  Au28  1  0.119511  0.837785  0.785927  1
  Au  Au29  1  0.065757  0.342823  0.980508  1
  Au  Au30  1  0.849719  0.571804  0.514813  1
  Au  Au31  1  0.162043  0.880328  0.214114  1
  Au  Au32  1  0.428240  0.150239  0.485274  1
  Au  Au33  1  0.834875  0.116767  0.792994  1
