# generated using pymatgen
data_TbErRuC2
_symmetry_space_group_name_H-M   'P 1'
_cell_length_a   5.09743300
_cell_length_b   6.46876700
_cell_length_c   9.73915500
_cell_angle_alpha   90.00000000
_cell_angle_beta   90.00000000
_cell_angle_gamma   90.00000000
_symmetry_Int_Tables_number   1
_chemical_formula_structural   TbErRuC2
_chemical_formula_sum   'Tb4 Er4 Ru4 C8'
_cell_volume   321.13993297
_cell_formula_units_Z   4
loop_
 _symmetry_equiv_pos_site_id
 _symmetry_equiv_pos_as_xyz
  1  'x, y, z'
loop_
 _atom_site_type_symbol
 _atom_site_label
 _atom_site_symmetry_multiplicity
 _atom_site_fract_x
 _atom_site_fract_y
 _atom_site_fract_z
 _atom_site_occupancy
  Tb  Tb0  1  0.750000  0.472190  0.785258  1
  Tb  Tb1  1  0.250000  0.027810  0.285258  1
  Tb  Tb2  1  0.750000  0.972190  0.714742  1
  Tb  Tb3  1  0.250000  0.527810  0.214742  1
  Er  Er4  1  0.750000  0.824980  0.055425  1
  Er  Er5  1  0.250000  0.675020  0.555425  1
  Er  Er6  1  0.750000  0.324980  0.444575  1
  Er  Er7  1  0.250000  0.175020  0.944575  1
  Ru  Ru8  1  0.750000  0.279692  0.134532  1
  Ru  Ru9  1  0.250000  0.220308  0.634532  1
  Ru  Ru10  1  0.750000  0.779692  0.365468  1
  Ru  Ru11  1  0.250000  0.720308  0.865468  1
  C  C12  1  0.750000  0.170532  0.947047  1
  C  C13  1  0.250000  0.829468  0.052953  1
  C  C14  1  0.750000  0.670532  0.552953  1
  C  C15  1  0.250000  0.329468  0.447047  1
  C  C16  1  0.750000  0.044994  0.257912  1
  C  C17  1  0.250000  0.455006  0.757912  1
  C  C18  1  0.750000  0.544994  0.242088  1
  C  C19  1  0.250000  0.955006  0.742088  1
