# generated using pymatgen
data_Hf3Al2ZnNi3
_symmetry_space_group_name_H-M   'P 1'
_cell_length_a   6.92954773
_cell_length_b   6.92954845
_cell_length_c   3.35294600
_cell_angle_alpha   90.00000000
_cell_angle_beta   90.00000000
_cell_angle_gamma   119.62470869
_symmetry_Int_Tables_number   1
_chemical_formula_structural   Hf3Al2ZnNi3
_chemical_formula_sum   'Hf3 Al2 Zn1 Ni3'
_cell_volume   139.95776235
_cell_formula_units_Z   1
loop_
 _symmetry_equiv_pos_site_id
 _symmetry_equiv_pos_as_xyz
  1  'x, y, z'
loop_
 _atom_site_type_symbol
 _atom_site_label
 _atom_site_symmetry_multiplicity
 _atom_site_fract_x
 _atom_site_fract_y
 _atom_site_fract_z
 _atom_site_occupancy
  Hf  Hf0  1  0.412681  0.412681  0.500000  1
  Hf  Hf1  1  0.596326  0.995176  0.500000  1
  Hf  Hf2  1  0.995176  0.596326  0.500000  1
  Al  Al3  1  0.255740  0.002839  0.000000  1
  Al  Al4  1  0.002839  0.255740  0.000000  1
  Zn  Zn5  1  0.739367  0.739367  0.000000  1
  Ni  Ni6  1  0.666071  0.326524  0.000000  1
  Ni  Ni7  1  0.326524  0.666071  0.000000  1
  Ni  Ni8  1  0.005275  0.005275  0.500000  1
