# generated using pymatgen
data_Ta16AlFe3Te16
_symmetry_space_group_name_H-M   'P 1'
_cell_length_a   4.86773100
_cell_length_b   10.98313155
_cell_length_c   19.22922000
_cell_angle_alpha   89.95308281
_cell_angle_beta   90.00000000
_cell_angle_gamma   90.00000000
_symmetry_Int_Tables_number   1
_chemical_formula_structural   Ta16AlFe3Te16
_chemical_formula_sum   'Ta16 Al1 Fe3 Te16'
_cell_volume   1028.05009688
_cell_formula_units_Z   1
loop_
 _symmetry_equiv_pos_site_id
 _symmetry_equiv_pos_as_xyz
  1  'x, y, z'
loop_
 _atom_site_type_symbol
 _atom_site_label
 _atom_site_symmetry_multiplicity
 _atom_site_fract_x
 _atom_site_fract_y
 _atom_site_fract_z
 _atom_site_occupancy
  Ta  Ta0  1  0.499250  0.563662  0.384237  1
  Ta  Ta1  1  0.499250  0.436338  0.615763  1
  Ta  Ta2  1  0.500086  0.062829  0.113520  1
  Ta  Ta3  1  0.500086  0.937171  0.886480  1
  Ta  Ta4  1  0.498703  0.703155  0.536256  1
  Ta  Ta5  1  0.498703  0.296845  0.463744  1
  Ta  Ta6  1  0.500061  0.199469  0.964121  1
  Ta  Ta7  1  0.500061  0.800531  0.035879  1
  Ta  Ta8  1  0.001150  0.688662  0.443606  1
  Ta  Ta9  1  0.001150  0.311338  0.556394  1
  Ta  Ta10  1  0.999850  0.185589  0.055183  1
  Ta  Ta11  1  0.999850  0.814411  0.944817  1
  Ta  Ta12  1  0.000963  0.401672  0.392495  1
  Ta  Ta13  1  0.000963  0.598328  0.607505  1
  Ta  Ta14  1  0.999772  0.903474  0.105656  1
  Ta  Ta15  1  0.999772  0.096526  0.894344  1
  Al  Al16  1  0.250000  0.500000  0.500000  1
  Fe  Fe17  1  0.749900  0.000000  0.000000  1
  Fe  Fe18  1  0.750022  0.500000  0.500000  1
  Fe  Fe19  1  0.250572  0.000000  0.000000  1
  Te  Te20  1  0.993572  0.846121  0.561996  1
  Te  Te21  1  0.993572  0.153879  0.438004  1
  Te  Te22  1  0.999955  0.345039  0.937780  1
  Te  Te23  1  0.999955  0.654961  0.062220  1
  Te  Te24  1  0.506275  0.332365  0.316604  1
  Te  Te25  1  0.506275  0.667635  0.683396  1
  Te  Te26  1  0.499773  0.833240  0.182914  1
  Te  Te27  1  0.499773  0.166760  0.817086  1
  Te  Te28  1  0.506373  0.821798  0.403913  1
  Te  Te29  1  0.506373  0.178202  0.596087  1
  Te  Te30  1  0.499890  0.321093  0.095243  1
  Te  Te31  1  0.499890  0.678907  0.904757  1
  Te  Te32  1  0.993961  0.608379  0.302331  1
  Te  Te33  1  0.993961  0.391621  0.697669  1
  Te  Te34  1  0.000117  0.108311  0.196802  1
  Te  Te35  1  0.000117  0.891689  0.803198  1
