# generated using pymatgen
data_Dy2PuO6
_symmetry_space_group_name_H-M   'P 1'
_cell_length_a   9.91345842
_cell_length_b   9.91345905
_cell_length_c   5.48100223
_cell_angle_alpha   78.66780216
_cell_angle_beta   78.66780842
_cell_angle_gamma   67.69237580
_symmetry_Int_Tables_number   1
_chemical_formula_structural   Dy2PuO6
_chemical_formula_sum   'Dy8 Pu4 O24'
_cell_volume   484.19306448
_cell_formula_units_Z   4
loop_
 _symmetry_equiv_pos_site_id
 _symmetry_equiv_pos_as_xyz
  1  'x, y, z'
loop_
 _atom_site_type_symbol
 _atom_site_label
 _atom_site_symmetry_multiplicity
 _atom_site_fract_x
 _atom_site_fract_y
 _atom_site_fract_z
 _atom_site_occupancy
  Dy  Dy0  1  0.780986  0.543055  0.598410  1
  Dy  Dy1  1  0.456945  0.219014  0.901590  1
  Dy  Dy2  1  0.219014  0.456945  0.401590  1
  Dy  Dy3  1  0.543055  0.780986  0.098410  1
  Dy  Dy4  1  0.883586  0.116414  0.750000  1
  Dy  Dy5  1  0.116414  0.883586  0.250000  1
  Dy  Dy6  1  0.390099  0.609901  0.750000  1
  Dy  Dy7  1  0.609901  0.390099  0.250000  1
  Pu  Pu8  1  0.991526  0.684225  0.896122  1
  Pu  Pu9  1  0.315775  0.008474  0.603878  1
  Pu  Pu10  1  0.008474  0.315775  0.103878  1
  Pu  Pu11  1  0.684225  0.991526  0.396122  1
  O  O12  1  0.415248  0.409757  0.088713  1
  O  O13  1  0.590243  0.584752  0.411287  1
  O  O14  1  0.584752  0.590243  0.911287  1
  O  O15  1  0.409757  0.415248  0.588713  1
  O  O16  1  0.171467  0.640092  0.042519  1
  O  O17  1  0.359908  0.828533  0.457481  1
  O  O18  1  0.828533  0.359908  0.957481  1
  O  O19  1  0.640092  0.171467  0.542519  1
  O  O20  1  0.151047  0.682652  0.546617  1
  O  O21  1  0.317348  0.848953  0.953383  1
  O  O22  1  0.848953  0.317348  0.453383  1
  O  O23  1  0.682652  0.151047  0.046617  1
  O  O24  1  0.725680  0.798038  0.306059  1
  O  O25  1  0.201962  0.274320  0.193941  1
  O  O26  1  0.274320  0.201962  0.693941  1
  O  O27  1  0.798038  0.725680  0.806059  1
  O  O28  1  0.887141  0.949590  0.502300  1
  O  O29  1  0.050410  0.112859  0.997700  1
  O  O30  1  0.112859  0.050410  0.497700  1
  O  O31  1  0.949590  0.887141  0.002300  1
  O  O32  1  0.524611  0.962093  0.737899  1
  O  O33  1  0.037907  0.475389  0.762101  1
  O  O34  1  0.475389  0.037907  0.262101  1
  O  O35  1  0.962093  0.524611  0.237899  1
