# generated using pymatgen
data_La4Zn51
_symmetry_space_group_name_H-M   'P 1'
_cell_length_a   8.60652200
_cell_length_b   8.60652169
_cell_length_c   14.80378300
_cell_angle_alpha   73.10093745
_cell_angle_beta   90.00000000
_cell_angle_gamma   120.00000119
_symmetry_Int_Tables_number   1
_chemical_formula_structural   La4Zn51
_chemical_formula_sum   'La4 Zn51'
_cell_volume   894.54567714
_cell_formula_units_Z   1
loop_
 _symmetry_equiv_pos_site_id
 _symmetry_equiv_pos_as_xyz
  1  'x, y, z'
loop_
 _atom_site_type_symbol
 _atom_site_label
 _atom_site_symmetry_multiplicity
 _atom_site_fract_x
 _atom_site_fract_y
 _atom_site_fract_z
 _atom_site_occupancy
  La  La0  1  0.875075  0.750150  0.374775  1
  La  La1  1  0.374564  0.749129  0.876307  1
  La  La2  1  0.624925  0.249850  0.125225  1
  La  La3  1  0.125436  0.250871  0.623693  1
  Zn  Zn4  1  0.338102  0.442674  0.103461  1
  Zn  Zn5  1  0.843846  0.443112  0.598698  1
  Zn  Zn6  1  0.161898  0.557326  0.396539  1
  Zn  Zn7  1  0.656154  0.556888  0.901302  1
  Zn  Zn8  1  0.985440  0.206395  0.221027  1
  Zn  Zn9  1  0.478875  0.198238  0.720799  1
  Zn  Zn10  1  0.514560  0.793606  0.278973  1
  Zn  Zn11  1  0.021125  0.801762  0.779201  1
  Zn  Zn12  1  0.708914  0.057523  0.348861  1
  Zn  Zn13  1  0.208383  0.058494  0.850293  1
  Zn  Zn14  1  0.791086  0.942477  0.151139  1
  Zn  Zn15  1  0.291617  0.941506  0.649707  1
  Zn  Zn16  1  0.669126  0.698950  0.030011  1
  Zn  Zn17  1  0.170644  0.700073  0.528509  1
  Zn  Zn18  1  0.830874  0.301050  0.469989  1
  Zn  Zn19  1  0.329356  0.299927  0.971491  1
  Zn  Zn20  1  0.046135  0.208033  0.396539  1
  Zn  Zn21  1  0.541810  0.197964  0.901302  1
  Zn  Zn22  1  0.453865  0.791967  0.103461  1
  Zn  Zn23  1  0.958190  0.802036  0.598698  1
  Zn  Zn24  1  0.927422  0.441982  0.278973  1
  Zn  Zn25  1  0.419036  0.440161  0.779201  1
  Zn  Zn26  1  0.572578  0.558018  0.221027  1
  Zn  Zn27  1  0.080964  0.559839  0.720799  1
  Zn  Zn28  1  0.906383  0.697469  0.151139  1
  Zn  Zn29  1  0.408788  0.700404  0.649707  1
  Zn  Zn30  1  0.593617  0.302531  0.348861  1
  Zn  Zn31  1  0.091212  0.299596  0.850293  1
  Zn  Zn32  1  0.228961  0.059834  0.469989  1
  Zn  Zn33  1  0.728584  0.057940  0.971491  1
  Zn  Zn34  1  0.271039  0.940166  0.030011  1
  Zn  Zn35  1  0.771416  0.942060  0.528509  1
  Zn  Zn36  1  0.220954  0.793532  0.221027  1
  Zn  Zn37  1  0.719363  0.800326  0.720799  1
  Zn  Zn38  1  0.279046  0.206468  0.278973  1
  Zn  Zn39  1  0.780637  0.199674  0.779201  1
  Zn  Zn40  1  0.104572  0.558437  0.103461  1
  Zn  Zn41  1  0.599265  0.557456  0.598698  1
  Zn  Zn42  1  0.395428  0.441563  0.396539  1
  Zn  Zn43  1  0.900735  0.442544  0.901302  1
  Zn  Zn44  1  0.029824  0.300863  0.030011  1
  Zn  Zn45  1  0.529429  0.300846  0.528509  1
  Zn  Zn46  1  0.470176  0.699137  0.469989  1
  Zn  Zn47  1  0.970571  0.699154  0.971491  1
  Zn  Zn48  1  0.348609  0.942226  0.348861  1
  Zn  Zn49  1  0.850111  0.941323  0.850293  1
  Zn  Zn50  1  0.151391  0.057774  0.151139  1
  Zn  Zn51  1  0.649889  0.058677  0.649707  1
  Zn  Zn52  1  0.750000  0.500000  0.750000  1
  Zn  Zn53  1  0.999745  0.999490  0.000764  1
  Zn  Zn54  1  0.500255  0.000510  0.499236  1
