# generated using pymatgen
data_Ho3Ni2SnRhPb2
_symmetry_space_group_name_H-M   'P 1'
_cell_length_a   7.58810433
_cell_length_b   7.57115581
_cell_length_c   3.74426300
_cell_angle_alpha   90.00000000
_cell_angle_beta   90.00000000
_cell_angle_gamma   119.69590961
_symmetry_Int_Tables_number   1
_chemical_formula_structural   Ho3Ni2SnRhPb2
_chemical_formula_sum   'Ho3 Ni2 Sn1 Rh1 Pb2'
_cell_volume   186.85945962
_cell_formula_units_Z   1
loop_
 _symmetry_equiv_pos_site_id
 _symmetry_equiv_pos_as_xyz
  1  'x, y, z'
loop_
 _atom_site_type_symbol
 _atom_site_label
 _atom_site_symmetry_multiplicity
 _atom_site_fract_x
 _atom_site_fract_y
 _atom_site_fract_z
 _atom_site_occupancy
  Ho  Ho0  1  0.401314  0.400965  0.500000  1
  Ho  Ho1  1  0.605440  0.011118  0.500000  1
  Ho  Ho2  1  0.995716  0.591755  0.500000  1
  Ni  Ni3  1  0.000818  0.011324  0.500000  1
  Ni  Ni4  1  0.323889  0.653884  0.000000  1
  Sn  Sn5  1  0.007080  0.263708  0.000000  1
  Rh  Rh6  1  0.673038  0.331503  0.000000  1
  Pb  Pb7  1  0.734486  0.742841  0.000000  1
  Pb  Pb8  1  0.258219  0.992901  0.000000  1
