# generated using pymatgen
data_Dy4Tm5LuRu4
_symmetry_space_group_name_H-M   'P 1'
_cell_length_a   6.28799921
_cell_length_b   7.24504966
_cell_length_c   8.39415379
_cell_angle_alpha   96.87742558
_cell_angle_beta   111.99626354
_cell_angle_gamma   89.99999611
_symmetry_Int_Tables_number   1
_chemical_formula_structural   Dy4Tm5LuRu4
_chemical_formula_sum   'Dy4 Tm5 Lu1 Ru4'
_cell_volume   351.60558784
_cell_formula_units_Z   1
loop_
 _symmetry_equiv_pos_site_id
 _symmetry_equiv_pos_as_xyz
  1  'x, y, z'
loop_
 _atom_site_type_symbol
 _atom_site_label
 _atom_site_symmetry_multiplicity
 _atom_site_fract_x
 _atom_site_fract_y
 _atom_site_fract_z
 _atom_site_occupancy
  Dy  Dy0  1  0.522871  0.082979  0.812585  1
  Dy  Dy1  1  0.477589  0.916262  0.187499  1
  Dy  Dy2  1  0.710285  0.417021  0.187415  1
  Dy  Dy3  1  0.290090  0.583738  0.812501  1
  Tm  Tm4  1  0.296504  0.314364  0.433990  1
  Tm  Tm5  1  0.703322  0.685856  0.566434  1
  Tm  Tm6  1  0.862515  0.185636  0.566010  1
  Tm  Tm7  1  0.136886  0.814144  0.433566  1
  Tm  Tm8  1  0.079818  0.250000  0.000000  1
  Lu  Lu9  1  0.921266  0.750000  0.000000  1
  Ru  Ru10  1  0.320900  0.576167  0.221028  1
  Ru  Ru11  1  0.678756  0.424672  0.779431  1
  Ru  Ru12  1  0.099874  0.923833  0.778972  1
  Ru  Ru13  1  0.899324  0.075328  0.220569  1
