# generated using pymatgen
data_Tm11LuFe3Pb2
_symmetry_space_group_name_H-M   'P 1'
_cell_length_a   8.28689897
_cell_length_b   8.29194193
_cell_length_c   8.28690038
_cell_angle_alpha   108.51809495
_cell_angle_beta   108.47032585
_cell_angle_gamma   111.41785752
_symmetry_Int_Tables_number   1
_chemical_formula_structural   Tm11LuFe3Pb2
_chemical_formula_sum   'Tm11 Lu1 Fe3 Pb2'
_cell_volume   438.09969821
_cell_formula_units_Z   1
loop_
 _symmetry_equiv_pos_site_id
 _symmetry_equiv_pos_as_xyz
  1  'x, y, z'
loop_
 _atom_site_type_symbol
 _atom_site_label
 _atom_site_symmetry_multiplicity
 _atom_site_fract_x
 _atom_site_fract_y
 _atom_site_fract_z
 _atom_site_occupancy
  Tm  Tm0  1  0.807720  0.574084  0.766364  1
  Tm  Tm1  1  0.192344  0.958803  0.766458  1
  Tm  Tm2  1  0.958972  0.192517  0.766887  1
  Tm  Tm3  1  0.807879  0.041485  0.233607  1
  Tm  Tm4  1  0.041346  0.807585  0.233587  1
  Tm  Tm5  1  0.425630  0.192517  0.233547  1
  Tm  Tm6  1  0.573999  0.807585  0.766238  1
  Tm  Tm7  1  0.308421  0.308511  0.616768  1
  Tm  Tm8  1  0.691203  0.691394  0.382995  1
  Tm  Tm9  1  0.691741  0.308511  0.000090  1
  Tm  Tm10  1  0.308400  0.691394  0.000191  1
  Lu  Lu11  1  0.192204  0.425406  0.233202  1
  Fe  Fe12  1  0.384487  0.384665  0.000178  1
  Fe  Fe13  1  0.615257  0.615249  0.999992  1
  Fe  Fe14  1  0.000161  0.000345  0.000185  1
  Pb  Pb15  1  0.000240  0.499944  0.499704  1
  Pb  Pb16  1  0.499997  0.000005  0.500007  1
