# generated using pymatgen
data_LaTb2ThS6
_symmetry_space_group_name_H-M   'P 1'
_cell_length_a   3.98206500
_cell_length_b   10.52295318
_cell_length_c   10.83804200
_cell_angle_alpha   89.98942612
_cell_angle_beta   90.00000000
_cell_angle_gamma   90.00000000
_symmetry_Int_Tables_number   1
_chemical_formula_structural   LaTb2ThS6
_chemical_formula_sum   'La2 Tb4 Th2 S12'
_cell_volume   454.14737173
_cell_formula_units_Z   2
loop_
 _symmetry_equiv_pos_site_id
 _symmetry_equiv_pos_as_xyz
  1  'x, y, z'
loop_
 _atom_site_type_symbol
 _atom_site_label
 _atom_site_symmetry_multiplicity
 _atom_site_fract_x
 _atom_site_fract_y
 _atom_site_fract_z
 _atom_site_occupancy
  La  La0  1  0.250000  0.993868  0.806807  1
  La  La1  1  0.750000  0.006132  0.193193  1
  Tb  Tb2  1  0.250000  0.184877  0.490201  1
  Tb  Tb3  1  0.750000  0.815123  0.509799  1
  Tb  Tb4  1  0.750000  0.686851  0.012203  1
  Tb  Tb5  1  0.250000  0.313149  0.987797  1
  Th  Th6  1  0.750000  0.503706  0.695760  1
  Th  Th7  1  0.250000  0.496294  0.304240  1
  S  S8  1  0.250000  0.305154  0.724848  1
  S  S9  1  0.750000  0.694846  0.275152  1
  S  S10  1  0.750000  0.785998  0.766205  1
  S  S11  1  0.250000  0.214002  0.233795  1
  S  S12  1  0.250000  0.944763  0.383241  1
  S  S13  1  0.750000  0.055237  0.616759  1
  S  S14  1  0.750000  0.445828  0.115772  1
  S  S15  1  0.250000  0.554172  0.884228  1
  S  S16  1  0.250000  0.865671  0.047468  1
  S  S17  1  0.750000  0.134329  0.952532  1
  S  S18  1  0.750000  0.371694  0.456791  1
  S  S19  1  0.250000  0.628306  0.543209  1
