# generated using pymatgen
data_Dy5ScTi4(Co2Si5)4
_symmetry_space_group_name_H-M   'P 1'
_cell_length_a   12.06865600
_cell_length_b   12.06865600
_cell_length_c   3.95804500
_cell_angle_alpha   90.00000000
_cell_angle_beta   90.00000000
_cell_angle_gamma   90.00000000
_symmetry_Int_Tables_number   1
_chemical_formula_structural   Dy5ScTi4(Co2Si5)4
_chemical_formula_sum   'Dy5 Sc1 Ti4 Co8 Si20'
_cell_volume   576.49898172
_cell_formula_units_Z   1
loop_
 _symmetry_equiv_pos_site_id
 _symmetry_equiv_pos_as_xyz
  1  'x, y, z'
loop_
 _atom_site_type_symbol
 _atom_site_label
 _atom_site_symmetry_multiplicity
 _atom_site_fract_x
 _atom_site_fract_y
 _atom_site_fract_z
 _atom_site_occupancy
  Dy  Dy0  1  0.000000  0.000000  0.000000  1
  Dy  Dy1  1  0.884987  0.386499  0.500000  1
  Dy  Dy2  1  0.386499  0.115013  0.500000  1
  Dy  Dy3  1  0.613501  0.884987  0.500000  1
  Dy  Dy4  1  0.115013  0.613501  0.500000  1
  Sc  Sc5  1  0.500000  0.500000  0.000000  1
  Ti  Ti6  1  0.672939  0.175733  0.500000  1
  Ti  Ti7  1  0.175733  0.327061  0.500000  1
  Ti  Ti8  1  0.824267  0.672939  0.500000  1
  Ti  Ti9  1  0.327061  0.824267  0.500000  1
  Co  Co10  1  0.522824  0.256230  0.000000  1
  Co  Co11  1  0.256230  0.477176  0.000000  1
  Co  Co12  1  0.743770  0.522824  0.000000  1
  Co  Co13  1  0.477176  0.743770  0.000000  1
  Co  Co14  1  0.976937  0.752909  0.000000  1
  Co  Co15  1  0.023063  0.247091  0.000000  1
  Co  Co16  1  0.752909  0.023063  0.000000  1
  Co  Co17  1  0.247091  0.976937  0.000000  1
  Si  Si18  1  0.570615  0.072023  0.000000  1
  Si  Si19  1  0.072023  0.429385  0.000000  1
  Si  Si20  1  0.927977  0.570615  0.000000  1
  Si  Si21  1  0.429385  0.927977  0.000000  1
  Si  Si22  1  0.195841  0.162131  0.000000  1
  Si  Si23  1  0.162131  0.804159  0.000000  1
  Si  Si24  1  0.837869  0.195841  0.000000  1
  Si  Si25  1  0.804159  0.837869  0.000000  1
  Si  Si26  1  0.306181  0.660182  0.000000  1
  Si  Si27  1  0.693819  0.339818  0.000000  1
  Si  Si28  1  0.660182  0.693819  0.000000  1
  Si  Si29  1  0.339818  0.306181  0.000000  1
  Si  Si30  1  0.015174  0.168408  0.500000  1
  Si  Si31  1  0.168408  0.984826  0.500000  1
  Si  Si32  1  0.831592  0.015174  0.500000  1
  Si  Si33  1  0.984826  0.831592  0.500000  1
  Si  Si34  1  0.485582  0.661959  0.500000  1
  Si  Si35  1  0.514418  0.338041  0.500000  1
  Si  Si36  1  0.661959  0.514418  0.500000  1
  Si  Si37  1  0.338041  0.485582  0.500000  1
