# generated using pymatgen
data_Eu2HfZr(NiAs2)2
_symmetry_space_group_name_H-M   'P 1'
_cell_length_a   4.11438200
_cell_length_b   4.11438208
_cell_length_c   13.89459000
_cell_angle_alpha   90.00000000
_cell_angle_beta   90.00000000
_cell_angle_gamma   119.99998329
_symmetry_Int_Tables_number   1
_chemical_formula_structural   Eu2HfZr(NiAs2)2
_chemical_formula_sum   'Eu2 Hf1 Zr1 Ni2 As4'
_cell_volume   203.69748731
_cell_formula_units_Z   1
loop_
 _symmetry_equiv_pos_site_id
 _symmetry_equiv_pos_as_xyz
  1  'x, y, z'
loop_
 _atom_site_type_symbol
 _atom_site_label
 _atom_site_symmetry_multiplicity
 _atom_site_fract_x
 _atom_site_fract_y
 _atom_site_fract_z
 _atom_site_occupancy
  Eu  Eu0  1  0.666667  0.333333  0.390233  1
  Eu  Eu1  1  0.333333  0.666667  0.889615  1
  Hf  Hf2  1  0.333333  0.666667  0.623989  1
  Zr  Zr3  1  0.666667  0.333333  0.123228  1
  Ni  Ni4  1  0.000000  0.000000  0.706672  1
  Ni  Ni5  1  0.000000  0.000000  0.208886  1
  As  As6  1  0.333333  0.666667  0.253500  1
  As  As7  1  0.000000  0.000000  0.024789  1
  As  As8  1  0.000000  0.000000  0.526382  1
  As  As9  1  0.666667  0.333333  0.752710  1
