# generated using pymatgen
data_Zr2Ti2SiAs
_symmetry_space_group_name_H-M   'P 1'
_cell_length_a   7.95098841
_cell_length_b   7.95138836
_cell_length_c   7.95065748
_cell_angle_alpha   127.91318800
_cell_angle_beta   123.03777804
_cell_angle_gamma   80.80629149
_symmetry_Int_Tables_number   1
_chemical_formula_structural   Zr2Ti2SiAs
_chemical_formula_sum   'Zr6 Ti6 Si3 As3'
_cell_volume   320.56312469
_cell_formula_units_Z   3
loop_
 _symmetry_equiv_pos_site_id
 _symmetry_equiv_pos_as_xyz
  1  'x, y, z'
loop_
 _atom_site_type_symbol
 _atom_site_label
 _atom_site_symmetry_multiplicity
 _atom_site_fract_x
 _atom_site_fract_y
 _atom_site_fract_z
 _atom_site_occupancy
  Zr  Zr0  1  0.452102  0.658440  0.702931  1
  Zr  Zr1  1  0.545678  0.255018  0.206175  1
  Zr  Zr2  1  0.747107  0.844987  0.594127  1
  Zr  Zr3  1  0.250864  0.845052  0.097819  1
  Zr  Zr4  1  0.048869  0.254964  0.709286  1
  Zr  Zr5  1  0.955466  0.658380  0.206307  1
  Ti  Ti6  1  0.499012  0.496061  0.997042  1
  Ti  Ti7  1  0.999892  0.494634  0.494785  1
  Ti  Ti8  1  0.122094  0.256242  0.133723  1
  Ti  Ti9  1  0.879175  0.012525  0.133887  1
  Ti  Ti10  1  0.378322  0.008395  0.629651  1
  Ti  Ti11  1  0.621504  0.253877  0.632952  1
  Si  Si12  1  0.250662  0.253414  0.503501  1
  Si  Si13  1  0.749522  0.253012  0.002850  1
  Si  Si14  1  0.333370  0.586707  0.253205  1
  As  As15  1  0.666802  0.920584  0.253683  1
  As  As16  1  0.166012  0.919741  0.753634  1
  As  As17  1  0.833545  0.587567  0.754043  1
