# generated using pymatgen
data_Ba5(LiCd)3
_symmetry_space_group_name_H-M   'P 1'
_cell_length_a   17.98076806
_cell_length_b   17.98076805
_cell_length_c   5.49938200
_cell_angle_alpha   90.00000000
_cell_angle_beta   90.00000000
_cell_angle_gamma   166.39378368
_symmetry_Int_Tables_number   1
_chemical_formula_structural   Ba5(LiCd)3
_chemical_formula_sum   'Ba5 Li3 Cd3'
_cell_volume   418.26883051
_cell_formula_units_Z   1
loop_
 _symmetry_equiv_pos_site_id
 _symmetry_equiv_pos_as_xyz
  1  'x, y, z'
loop_
 _atom_site_type_symbol
 _atom_site_label
 _atom_site_symmetry_multiplicity
 _atom_site_fract_x
 _atom_site_fract_y
 _atom_site_fract_z
 _atom_site_occupancy
  Ba  Ba0  1  0.998133  0.001867  0.000000  1
  Ba  Ba1  1  0.615452  0.384546  0.000000  1
  Ba  Ba2  1  0.384338  0.615660  0.000000  1
  Ba  Ba3  1  0.804565  0.195433  0.500001  1
  Ba  Ba4  1  0.193800  0.806198  0.500001  1
  Li  Li5  1  0.724791  0.275207  0.000000  1
  Li  Li6  1  0.912358  0.087641  0.500001  1
  Li  Li7  1  0.539649  0.460349  0.500001  1
  Cd  Cd8  1  0.276811  0.723187  0.000000  1
  Cd  Cd9  1  0.460762  0.539236  0.500001  1
  Cd  Cd10  1  0.089334  0.910665  0.500001  1
