# generated using pymatgen
data_Tb6YbSm(B6Ru)4
_symmetry_space_group_name_H-M   'P 1'
_cell_length_a   3.68797900
_cell_length_b   9.18120563
_cell_length_c   11.56729977
_cell_angle_alpha   89.90447482
_cell_angle_beta   90.00000000
_cell_angle_gamma   90.00000000
_symmetry_Int_Tables_number   1
_chemical_formula_structural   Tb6YbSm(B6Ru)4
_chemical_formula_sum   'Tb6 Yb1 Sm1 B24 Ru4'
_cell_volume   391.66930796
_cell_formula_units_Z   1
loop_
 _symmetry_equiv_pos_site_id
 _symmetry_equiv_pos_as_xyz
  1  'x, y, z'
loop_
 _atom_site_type_symbol
 _atom_site_label
 _atom_site_symmetry_multiplicity
 _atom_site_fract_x
 _atom_site_fract_y
 _atom_site_fract_z
 _atom_site_occupancy
  Tb  Tb0  1  0.000000  0.822583  0.085113  1
  Tb  Tb1  1  0.000000  0.176944  0.913674  1
  Tb  Tb2  1  0.000000  0.941262  0.371489  1
  Tb  Tb3  1  0.000000  0.056057  0.629632  1
  Tb  Tb4  1  0.000000  0.443603  0.128010  1
  Tb  Tb5  1  0.000000  0.557638  0.870095  1
  Yb  Yb6  1  0.000000  0.676558  0.586357  1
  Sm  Sm7  1  0.000000  0.324585  0.415028  1
  B  B8  1  0.500000  0.555564  0.432433  1
  B  B9  1  0.500000  0.446568  0.568804  1
  B  B10  1  0.500000  0.053887  0.067481  1
  B  B11  1  0.500000  0.946425  0.932902  1
  B  B12  1  0.500000  0.747289  0.419040  1
  B  B13  1  0.500000  0.252518  0.582487  1
  B  B14  1  0.500000  0.247378  0.080374  1
  B  B15  1  0.500000  0.753200  0.918927  1
  B  B16  1  0.500000  0.789436  0.266021  1
  B  B17  1  0.500000  0.209567  0.734262  1
  B  B18  1  0.500000  0.288814  0.232648  1
  B  B19  1  0.500000  0.711104  0.766349  1
  B  B20  1  0.500000  0.631898  0.184874  1
  B  B21  1  0.500000  0.368345  0.813996  1
  B  B22  1  0.500000  0.130364  0.313794  1
  B  B23  1  0.500000  0.868466  0.686258  1
  B  B24  1  0.500000  0.983591  0.212164  1
  B  B25  1  0.500000  0.015688  0.788431  1
  B  B26  1  0.500000  0.485665  0.287204  1
  B  B27  1  0.500000  0.515999  0.712100  1
  B  B28  1  0.500000  0.608856  0.029524  1
  B  B29  1  0.500000  0.391371  0.969565  1
  B  B30  1  0.500000  0.104354  0.471097  1
  B  B31  1  0.500000  0.894613  0.529406  1
  Ru  Ru32  1  0.000000  0.638466  0.319917  1
  Ru  Ru33  1  0.000000  0.361031  0.679905  1
  Ru  Ru34  1  0.000000  0.136813  0.178266  1
  Ru  Ru35  1  0.000000  0.863500  0.822375  1
