# generated using pymatgen
data_Hf6BeBr12
_symmetry_space_group_name_H-M   'P 1'
_cell_length_a   8.64008095
_cell_length_b   8.64008170
_cell_length_c   8.64008232
_cell_angle_alpha   106.87446973
_cell_angle_beta   106.87446986
_cell_angle_gamma   106.87447373
_symmetry_Int_Tables_number   1
_chemical_formula_structural   Hf6BeBr12
_chemical_formula_sum   'Hf6 Be1 Br12'
_cell_volume   538.98332968
_cell_formula_units_Z   1
loop_
 _symmetry_equiv_pos_site_id
 _symmetry_equiv_pos_as_xyz
  1  'x, y, z'
loop_
 _atom_site_type_symbol
 _atom_site_label
 _atom_site_symmetry_multiplicity
 _atom_site_fract_x
 _atom_site_fract_y
 _atom_site_fract_z
 _atom_site_occupancy
  Hf  Hf0  1  0.969811  0.708988  0.902881  1
  Hf  Hf1  1  0.291012  0.097119  0.030189  1
  Hf  Hf2  1  0.097119  0.030189  0.291012  1
  Hf  Hf3  1  0.902881  0.969811  0.708988  1
  Hf  Hf4  1  0.708988  0.902881  0.969811  1
  Hf  Hf5  1  0.030189  0.291012  0.097119  1
  Be  Be6  1  0.000000  0.000000  0.000000  1
  Br  Br7  1  0.923266  0.312373  0.779625  1
  Br  Br8  1  0.687627  0.220375  0.076734  1
  Br  Br9  1  0.442196  0.141023  0.365952  1
  Br  Br10  1  0.858977  0.634048  0.557804  1
  Br  Br11  1  0.220375  0.076734  0.687627  1
  Br  Br12  1  0.634048  0.557804  0.858977  1
  Br  Br13  1  0.365952  0.442196  0.141023  1
  Br  Br14  1  0.779625  0.923266  0.312373  1
  Br  Br15  1  0.141023  0.365952  0.442196  1
  Br  Br16  1  0.557804  0.858977  0.634048  1
  Br  Br17  1  0.312373  0.779625  0.923266  1
  Br  Br18  1  0.076734  0.687627  0.220375  1
