# generated using pymatgen
data_Li3Cd(InPd3)2
_symmetry_space_group_name_H-M   'P 1'
_cell_length_a   4.27817600
_cell_length_b   7.05296000
_cell_length_c   12.77730900
_cell_angle_alpha   89.99969767
_cell_angle_beta   90.00029596
_cell_angle_gamma   90.00059521
_symmetry_Int_Tables_number   1
_chemical_formula_structural   Li3Cd(InPd3)2
_chemical_formula_sum   'Li6 Cd2 In4 Pd12'
_cell_volume   385.54001997
_cell_formula_units_Z   2
loop_
 _symmetry_equiv_pos_site_id
 _symmetry_equiv_pos_as_xyz
  1  'x, y, z'
loop_
 _atom_site_type_symbol
 _atom_site_label
 _atom_site_symmetry_multiplicity
 _atom_site_fract_x
 _atom_site_fract_y
 _atom_site_fract_z
 _atom_site_occupancy
  Li  Li0  1  0.000001  0.499996  0.003002  1
  Li  Li1  1  0.500001  0.000002  0.163686  1
  Li  Li2  1  0.999998  0.500001  0.329623  1
  Li  Li3  1  0.500001  0.999999  0.499168  1
  Li  Li4  1  0.000003  0.500002  0.667490  1
  Li  Li5  1  0.500001  0.000001  0.837059  1
  Cd  Cd6  1  0.000002  0.000000  0.999835  1
  Cd  Cd7  1  0.499999  0.500001  0.166844  1
  In  In8  1  0.999998  0.000000  0.332429  1
  In  In9  1  0.500000  0.500000  0.499351  1
  In  In10  1  0.000000  0.999999  0.667321  1
  In  In11  1  0.500001  0.499999  0.834171  1
  Pd  Pd12  1  0.500004  0.253100  0.998670  1
  Pd  Pd13  1  0.499999  0.746905  0.998669  1
  Pd  Pd14  1  0.999992  0.246931  0.168006  1
  Pd  Pd15  1  0.000001  0.753067  0.168006  1
  Pd  Pd16  1  0.499999  0.247080  0.334804  1
  Pd  Pd17  1  0.499994  0.752922  0.334805  1
  Pd  Pd18  1  0.000001  0.249702  0.500306  1
  Pd  Pd19  1  0.999998  0.750298  0.500305  1
  Pd  Pd20  1  0.500001  0.250266  0.666368  1
  Pd  Pd21  1  0.499998  0.749729  0.666367  1
  Pd  Pd22  1  0.000001  0.252918  0.831856  1
  Pd  Pd23  1  0.000005  0.747080  0.831858  1
