# generated using pymatgen
data_Ho4Hf3ScRh4
_symmetry_space_group_name_H-M   'P 1'
_cell_length_a   4.56397800
_cell_length_b   6.96484616
_cell_length_c   8.30057802
_cell_angle_alpha   90.17050804
_cell_angle_beta   90.00000000
_cell_angle_gamma   90.00000000
_symmetry_Int_Tables_number   1
_chemical_formula_structural   Ho4Hf3ScRh4
_chemical_formula_sum   'Ho4 Hf3 Sc1 Rh4'
_cell_volume   263.85266368
_cell_formula_units_Z   1
loop_
 _symmetry_equiv_pos_site_id
 _symmetry_equiv_pos_as_xyz
  1  'x, y, z'
loop_
 _atom_site_type_symbol
 _atom_site_label
 _atom_site_symmetry_multiplicity
 _atom_site_fract_x
 _atom_site_fract_y
 _atom_site_fract_z
 _atom_site_occupancy
  Ho  Ho0  1  0.250000  0.985543  0.323991  1
  Ho  Ho1  1  0.250000  0.483216  0.174472  1
  Ho  Ho2  1  0.750000  0.018862  0.679806  1
  Ho  Ho3  1  0.750000  0.513201  0.821753  1
  Hf  Hf4  1  0.250000  0.364410  0.573789  1
  Hf  Hf5  1  0.250000  0.856685  0.927334  1
  Hf  Hf6  1  0.750000  0.644704  0.424286  1
  Sc  Sc7  1  0.750000  0.137735  0.076328  1
  Rh  Rh8  1  0.250000  0.232470  0.901656  1
  Rh  Rh9  1  0.250000  0.737354  0.589599  1
  Rh  Rh10  1  0.750000  0.756108  0.089100  1
  Rh  Rh11  1  0.750000  0.269714  0.417885  1
