# generated using pymatgen
data_Dy2Co4NiP6Rh5
_symmetry_space_group_name_H-M   'P 1'
_cell_length_a   3.77830500
_cell_length_b   10.58883300
_cell_length_c   12.16174200
_cell_angle_alpha   90.00000000
_cell_angle_beta   90.00000000
_cell_angle_gamma   90.00000000
_symmetry_Int_Tables_number   1
_chemical_formula_structural   Dy2Co4NiP6Rh5
_chemical_formula_sum   'Dy4 Co8 Ni2 P12 Rh10'
_cell_volume   486.56503618
_cell_formula_units_Z   2
loop_
 _symmetry_equiv_pos_site_id
 _symmetry_equiv_pos_as_xyz
  1  'x, y, z'
loop_
 _atom_site_type_symbol
 _atom_site_label
 _atom_site_symmetry_multiplicity
 _atom_site_fract_x
 _atom_site_fract_y
 _atom_site_fract_z
 _atom_site_occupancy
  Dy  Dy0  1  0.250000  0.586200  0.710902  1
  Dy  Dy1  1  0.250000  0.913800  0.210902  1
  Dy  Dy2  1  0.750000  0.420768  0.292000  1
  Dy  Dy3  1  0.750000  0.079232  0.792000  1
  Co  Co4  1  0.250000  0.879640  0.697911  1
  Co  Co5  1  0.250000  0.620360  0.197911  1
  Co  Co6  1  0.750000  0.113560  0.302563  1
  Co  Co7  1  0.750000  0.386440  0.802563  1
  Co  Co8  1  0.250000  0.463558  0.931261  1
  Co  Co9  1  0.250000  0.036442  0.431261  1
  Co  Co10  1  0.750000  0.537295  0.066756  1
  Co  Co11  1  0.750000  0.962705  0.566756  1
  Ni  Ni12  1  0.750000  0.773762  0.819817  1
  Ni  Ni13  1  0.750000  0.726238  0.319817  1
  P  P14  1  0.250000  0.432065  0.110904  1
  P  P15  1  0.250000  0.067935  0.610904  1
  P  P16  1  0.750000  0.574778  0.888771  1
  P  P17  1  0.750000  0.925222  0.388771  1
  P  P18  1  0.250000  0.273068  0.871175  1
  P  P19  1  0.250000  0.226932  0.371175  1
  P  P20  1  0.750000  0.725281  0.135215  1
  P  P21  1  0.750000  0.774719  0.635215  1
  P  P22  1  0.250000  0.606339  0.380432  1
  P  P23  1  0.250000  0.893661  0.880432  1
  P  P24  1  0.750000  0.402371  0.617442  1
  P  P25  1  0.750000  0.097629  0.117442  1
  Rh  Rh26  1  0.250000  0.710453  0.987844  1
  Rh  Rh27  1  0.250000  0.789547  0.487844  1
  Rh  Rh28  1  0.750000  0.283642  0.007669  1
  Rh  Rh29  1  0.750000  0.216358  0.507669  1
  Rh  Rh30  1  0.250000  0.411657  0.480550  1
  Rh  Rh31  1  0.250000  0.088343  0.980550  1
  Rh  Rh32  1  0.750000  0.596410  0.518419  1
  Rh  Rh33  1  0.750000  0.903590  0.018419  1
  Rh  Rh34  1  0.250000  0.226278  0.180368  1
  Rh  Rh35  1  0.250000  0.273722  0.680368  1
