# generated using pymatgen
data_Tb4Ga18Ir3RuPt2
_symmetry_space_group_name_H-M   'P 1'
_cell_length_a   7.63095856
_cell_length_b   7.63095908
_cell_length_c   9.51828059
_cell_angle_alpha   90.03320264
_cell_angle_beta   90.03320167
_cell_angle_gamma   119.93209142
_symmetry_Int_Tables_number   1
_chemical_formula_structural   Tb4Ga18Ir3RuPt2
_chemical_formula_sum   'Tb4 Ga18 Ir3 Ru1 Pt2'
_cell_volume   480.33456636
_cell_formula_units_Z   1
loop_
 _symmetry_equiv_pos_site_id
 _symmetry_equiv_pos_as_xyz
  1  'x, y, z'
loop_
 _atom_site_type_symbol
 _atom_site_label
 _atom_site_symmetry_multiplicity
 _atom_site_fract_x
 _atom_site_fract_y
 _atom_site_fract_z
 _atom_site_occupancy
  Tb  Tb0  1  0.996264  0.669941  0.249710  1
  Tb  Tb1  1  0.003253  0.329847  0.750072  1
  Tb  Tb2  1  0.670153  0.996747  0.249928  1
  Tb  Tb3  1  0.330059  0.003736  0.750290  1
  Ga  Ga4  1  0.132556  0.133122  0.249959  1
  Ga  Ga5  1  0.866878  0.867444  0.750041  1
  Ga  Ga6  1  0.996684  0.337767  0.080150  1
  Ga  Ga7  1  0.998984  0.660054  0.919905  1
  Ga  Ga8  1  0.001026  0.662464  0.581353  1
  Ga  Ga9  1  0.337536  0.998974  0.418647  1
  Ga  Ga10  1  0.998962  0.337964  0.418888  1
  Ga  Ga11  1  0.662036  0.001038  0.581112  1
  Ga  Ga12  1  0.662233  0.003316  0.919850  1
  Ga  Ga13  1  0.339946  0.001016  0.080095  1
  Ga  Ga14  1  0.336363  0.336551  0.567249  1
  Ga  Ga15  1  0.663449  0.663637  0.432751  1
  Ga  Ga16  1  0.663591  0.661172  0.065806  1
  Ga  Ga17  1  0.338828  0.336409  0.934194  1
  Ga  Ga18  1  0.336749  0.546394  0.249762  1
  Ga  Ga19  1  0.662832  0.451683  0.751792  1
  Ga  Ga20  1  0.548317  0.337168  0.248208  1
  Ga  Ga21  1  0.453606  0.663251  0.750238  1
  Ir  Ir22  1  0.328546  0.671454  0.000000  1
  Ir  Ir23  1  0.328650  0.671350  0.500000  1
  Ir  Ir24  1  0.671049  0.328951  0.500000  1
  Ru  Ru25  1  0.671506  0.328494  0.000000  1
  Pt  Pt26  1  0.999996  0.000004  0.000000  1
  Pt  Pt27  1  0.999951  0.000049  0.500000  1
