# generated using pymatgen
data_YEr5CrCo17P12
_symmetry_space_group_name_H-M   'P 1'
_cell_length_a   3.67798500
_cell_length_b   10.50011800
_cell_length_c   12.15740500
_cell_angle_alpha   90.00000000
_cell_angle_beta   90.00000000
_cell_angle_gamma   90.00000000
_symmetry_Int_Tables_number   1
_chemical_formula_structural   YEr5CrCo17P12
_chemical_formula_sum   'Y1 Er5 Cr1 Co17 P12'
_cell_volume   469.51018524
_cell_formula_units_Z   1
loop_
 _symmetry_equiv_pos_site_id
 _symmetry_equiv_pos_as_xyz
  1  'x, y, z'
loop_
 _atom_site_type_symbol
 _atom_site_label
 _atom_site_symmetry_multiplicity
 _atom_site_fract_x
 _atom_site_fract_y
 _atom_site_fract_z
 _atom_site_occupancy
  Y  Y0  1  0.250000  0.750000  0.522628  1
  Er  Er1  1  0.750000  0.250000  0.476895  1
  Er  Er2  1  0.250000  0.932144  0.793919  1
  Er  Er3  1  0.250000  0.567856  0.793919  1
  Er  Er4  1  0.750000  0.068166  0.204410  1
  Er  Er5  1  0.750000  0.431834  0.204410  1
  Cr  Cr6  1  0.250000  0.250000  0.842258  1
  Co  Co7  1  0.750000  0.750000  0.160304  1
  Co  Co8  1  0.250000  0.250000  0.297050  1
  Co  Co9  1  0.750000  0.750000  0.704365  1
  Co  Co10  1  0.750000  0.250000  0.011847  1
  Co  Co11  1  0.250000  0.750000  0.985845  1
  Co  Co12  1  0.250000  0.417114  0.006861  1
  Co  Co13  1  0.250000  0.082886  0.006861  1
  Co  Co14  1  0.750000  0.583322  0.994220  1
  Co  Co15  1  0.750000  0.916678  0.994220  1
  Co  Co16  1  0.250000  0.452728  0.569407  1
  Co  Co17  1  0.250000  0.047272  0.569407  1
  Co  Co18  1  0.750000  0.545876  0.430900  1
  Co  Co19  1  0.750000  0.954124  0.430900  1
  Co  Co20  1  0.250000  0.871417  0.291059  1
  Co  Co21  1  0.250000  0.628583  0.291059  1
  Co  Co22  1  0.750000  0.129487  0.709198  1
  Co  Co23  1  0.750000  0.370513  0.709198  1
  P  P24  1  0.250000  0.250000  0.118151  1
  P  P25  1  0.750000  0.750000  0.882629  1
  P  P26  1  0.250000  0.250000  0.653013  1
  P  P27  1  0.750000  0.750000  0.343856  1
  P  P28  1  0.250000  0.437963  0.383332  1
  P  P29  1  0.250000  0.062037  0.383332  1
  P  P30  1  0.750000  0.561104  0.616561  1
  P  P31  1  0.750000  0.938896  0.616561  1
  P  P32  1  0.250000  0.901463  0.108209  1
  P  P33  1  0.250000  0.598537  0.108209  1
  P  P34  1  0.750000  0.095670  0.892507  1
  P  P35  1  0.750000  0.404330  0.892507  1
