# generated using pymatgen
data_Cs12Ta(In2As3)3
_symmetry_space_group_name_H-M   'P 1'
_cell_length_a   9.75523026
_cell_length_b   9.80225893
_cell_length_c   25.68865300
_cell_angle_alpha   86.84386435
_cell_angle_beta   87.15268421
_cell_angle_gamma   63.56418490
_symmetry_Int_Tables_number   1
_chemical_formula_structural   Cs12Ta(In2As3)3
_chemical_formula_sum   'Cs24 Ta2 In12 As18'
_cell_volume   2195.36697991
_cell_formula_units_Z   2
loop_
 _symmetry_equiv_pos_site_id
 _symmetry_equiv_pos_as_xyz
  1  'x, y, z'
loop_
 _atom_site_type_symbol
 _atom_site_label
 _atom_site_symmetry_multiplicity
 _atom_site_fract_x
 _atom_site_fract_y
 _atom_site_fract_z
 _atom_site_occupancy
  Cs  Cs0  1  0.060477  0.947164  0.307289  1
  Cs  Cs1  1  0.851998  0.391780  0.258924  1
  Cs  Cs2  1  0.664702  0.441973  0.432417  1
  Cs  Cs3  1  0.464674  0.883464  0.383857  1
  Cs  Cs4  1  0.379759  0.788958  0.179075  1
  Cs  Cs5  1  0.200887  0.038665  0.533592  1
  Cs  Cs6  1  0.175773  0.236381  0.132443  1
  Cs  Cs7  1  0.712505  0.867520  0.250996  1
  Cs  Cs8  1  0.475310  0.685863  0.813427  1
  Cs  Cs9  1  0.939523  0.052836  0.692711  1
  Cs  Cs10  1  0.757710  0.304224  0.064760  1
  Cs  Cs11  1  0.287495  0.132480  0.749004  1
  Cs  Cs12  1  0.335298  0.558027  0.567583  1
  Cs  Cs13  1  0.535326  0.116536  0.616143  1
  Cs  Cs14  1  0.463122  0.234874  0.983580  1
  Cs  Cs15  1  0.148002  0.608220  0.741076  1
  Cs  Cs16  1  0.620241  0.211042  0.820925  1
  Cs  Cs17  1  0.000000  0.500000  0.500000  1
  Cs  Cs18  1  0.242290  0.695776  0.935240  1
  Cs  Cs19  1  0.536878  0.765126  0.016420  1
  Cs  Cs20  1  0.799113  0.961335  0.466408  1
  Cs  Cs21  1  0.524690  0.314137  0.186573  1
  Cs  Cs22  1  0.000000  0.500000  0.000000  1
  Cs  Cs23  1  0.824227  0.763619  0.867557  1
  Ta  Ta24  1  0.758088  0.442715  0.612245  1
  Ta  Ta25  1  0.241912  0.557285  0.387755  1
  In  In26  1  0.476226  0.766385  0.665543  1
  In  In27  1  0.175222  0.503213  0.266539  1
  In  In28  1  0.921448  0.119165  0.940910  1
  In  In29  1  0.703799  0.939068  0.104797  1
  In  In30  1  0.523774  0.233615  0.334457  1
  In  In31  1  0.078552  0.880835  0.059090  1
  In  In32  1  0.129121  0.271861  0.375822  1
  In  In33  1  0.870879  0.728139  0.624178  1
  In  In34  1  0.054305  0.657928  0.158673  1
  In  In35  1  0.824778  0.496787  0.733461  1
  In  In36  1  0.945695  0.342072  0.841327  1
  In  In37  1  0.296201  0.060932  0.895203  1
  As  As38  1  0.157745  0.085697  0.003841  1
  As  As39  1  0.790389  0.245031  0.554016  1
  As  As40  1  0.587638  0.444215  0.690367  1
  As  As41  1  0.209611  0.754969  0.445984  1
  As  As42  1  0.365432  0.295086  0.433149  1
  As  As43  1  0.298997  0.180645  0.276831  1
  As  As44  1  0.018594  0.400664  0.643882  1
  As  As45  1  0.716895  0.418216  0.917661  1
  As  As46  1  0.634568  0.704914  0.566851  1
  As  As47  1  0.196037  0.378074  0.864140  1
  As  As48  1  0.049021  0.024431  0.841353  1
  As  As49  1  0.701003  0.819355  0.723169  1
  As  As50  1  0.283105  0.581784  0.082339  1
  As  As51  1  0.842255  0.914303  0.996159  1
  As  As52  1  0.412362  0.555785  0.309633  1
  As  As53  1  0.950979  0.975569  0.158647  1
  As  As54  1  0.981406  0.599336  0.356119  1
  As  As55  1  0.803963  0.621926  0.135860  1
