# generated using pymatgen
data_Dy3Tm5Se12
_symmetry_space_group_name_H-M   'P 1'
_cell_length_a   7.04870439
_cell_length_b   7.03657004
_cell_length_c   12.82134773
_cell_angle_alpha   100.69408334
_cell_angle_beta   100.73030942
_cell_angle_gamma   108.86890895
_symmetry_Int_Tables_number   1
_chemical_formula_structural   Dy3Tm5Se12
_chemical_formula_sum   'Dy3 Tm5 Se12'
_cell_volume   570.19319989
_cell_formula_units_Z   1
loop_
 _symmetry_equiv_pos_site_id
 _symmetry_equiv_pos_as_xyz
  1  'x, y, z'
loop_
 _atom_site_type_symbol
 _atom_site_label
 _atom_site_symmetry_multiplicity
 _atom_site_fract_x
 _atom_site_fract_y
 _atom_site_fract_z
 _atom_site_occupancy
  Dy  Dy0  1  0.121853  0.871897  0.743701  1
  Dy  Dy1  1  0.627807  0.377840  0.755693  1
  Dy  Dy2  1  0.709387  0.959365  0.918797  1
  Tm  Tm3  1  0.291683  0.041712  0.083385  1
  Tm  Tm4  1  0.372634  0.622615  0.245205  1
  Tm  Tm5  1  0.877883  0.127868  0.255812  1
  Tm  Tm6  1  0.458459  0.208477  0.416945  1
  Tm  Tm7  1  0.540826  0.790818  0.581634  1
  Se  Se8  1  0.041689  0.284345  0.089818  1
  Se  Se9  1  0.547978  0.805495  0.089704  1
  Se  Se10  1  0.616527  0.366136  0.250019  1
  Se  Se11  1  0.133656  0.883669  0.249941  1
  Se  Se12  1  0.217768  0.460644  0.411503  1
  Se  Se13  1  0.693663  0.950980  0.411627  1
  Se  Se14  1  0.305515  0.047399  0.585603  1
  Se  Se15  1  0.780360  0.538321  0.585693  1
  Se  Se16  1  0.866482  0.116674  0.748453  1
  Se  Se17  1  0.381807  0.631888  0.748363  1
  Se  Se18  1  0.449725  0.196699  0.914107  1
  Se  Se19  1  0.964307  0.717165  0.914004  1
