# generated using pymatgen
data_LuSc3Zn2(B2Ir5)2
_symmetry_space_group_name_H-M   'P 1'
_cell_length_a   9.47740002
_cell_length_b   9.47740002
_cell_length_c   3.06246800
_cell_angle_alpha   90.00000000
_cell_angle_beta   90.00000000
_cell_angle_gamma   89.52616315
_symmetry_Int_Tables_number   1
_chemical_formula_structural   LuSc3Zn2(B2Ir5)2
_chemical_formula_sum   'Lu1 Sc3 Zn2 B4 Ir10'
_cell_volume   275.06487225
_cell_formula_units_Z   1
loop_
 _symmetry_equiv_pos_site_id
 _symmetry_equiv_pos_as_xyz
  1  'x, y, z'
loop_
 _atom_site_type_symbol
 _atom_site_label
 _atom_site_symmetry_multiplicity
 _atom_site_fract_x
 _atom_site_fract_y
 _atom_site_fract_z
 _atom_site_occupancy
  Lu  Lu0  1  0.677193  0.177193  0.000000  1
  Sc  Sc1  1  0.177135  0.323820  0.000000  1
  Sc  Sc2  1  0.823820  0.677135  0.000000  1
  Sc  Sc3  1  0.321860  0.821860  0.000000  1
  Zn  Zn4  1  0.998776  0.000161  0.000000  1
  Zn  Zn5  1  0.500161  0.498776  0.000000  1
  B  B6  1  0.371688  0.125401  0.000000  1
  B  B7  1  0.876078  0.376078  0.000000  1
  B  B8  1  0.127292  0.627291  0.000000  1
  B  B9  1  0.625400  0.871688  0.000000  1
  Ir  Ir10  1  0.496677  0.996677  0.500001  1
  Ir  Ir11  1  0.216143  0.069143  0.500001  1
  Ir  Ir12  1  0.936278  0.220345  0.500001  1
  Ir  Ir13  1  0.426481  0.282485  0.500001  1
  Ir  Ir14  1  0.720344  0.436277  0.500001  1
  Ir  Ir15  1  0.001315  0.501315  0.500001  1
  Ir  Ir16  1  0.282812  0.568917  0.500001  1
  Ir  Ir17  1  0.569143  0.716142  0.500001  1
  Ir  Ir18  1  0.068917  0.782812  0.500001  1
  Ir  Ir19  1  0.782485  0.926482  0.500001  1
