# generated using pymatgen
data_Tb6Al24Re3Pt5
_symmetry_space_group_name_H-M   'P 1'
_cell_length_a   8.88098300
_cell_length_b   8.92408362
_cell_length_c   9.57980265
_cell_angle_alpha   90.30513489
_cell_angle_beta   90.00000000
_cell_angle_gamma   119.84036682
_symmetry_Int_Tables_number   1
_chemical_formula_structural   Tb6Al24Re3Pt5
_chemical_formula_sum   'Tb6 Al24 Re3 Pt5'
_cell_volume   658.56709253
_cell_formula_units_Z   1
loop_
 _symmetry_equiv_pos_site_id
 _symmetry_equiv_pos_as_xyz
  1  'x, y, z'
loop_
 _atom_site_type_symbol
 _atom_site_label
 _atom_site_symmetry_multiplicity
 _atom_site_fract_x
 _atom_site_fract_y
 _atom_site_fract_z
 _atom_site_occupancy
  Tb  Tb0  1  0.382083  0.187543  0.248466  1
  Tb  Tb1  1  0.805460  0.187543  0.248466  1
  Tb  Tb2  1  0.809920  0.619840  0.248894  1
  Tb  Tb3  1  0.617917  0.812457  0.751534  1
  Tb  Tb4  1  0.194540  0.812457  0.751534  1
  Tb  Tb5  1  0.190080  0.380160  0.751106  1
  Al  Al6  1  0.435955  0.871910  0.247645  1
  Al  Al7  1  0.127186  0.564437  0.250530  1
  Al  Al8  1  0.437251  0.564437  0.250530  1
  Al  Al9  1  0.564045  0.128090  0.752355  1
  Al  Al10  1  0.872814  0.435563  0.749470  1
  Al  Al11  1  0.562749  0.435563  0.749470  1
  Al  Al12  1  0.161147  0.836462  0.421110  1
  Al  Al13  1  0.161561  0.323122  0.423072  1
  Al  Al14  1  0.675313  0.836462  0.421110  1
  Al  Al15  1  0.838853  0.163538  0.578890  1
  Al  Al16  1  0.838439  0.676878  0.576928  1
  Al  Al17  1  0.324687  0.163538  0.578890  1
  Al  Al18  1  0.832093  0.158011  0.923952  1
  Al  Al19  1  0.837556  0.675111  0.924040  1
  Al  Al20  1  0.325919  0.158011  0.923952  1
  Al  Al21  1  0.167907  0.841989  0.076048  1
  Al  Al22  1  0.162444  0.324889  0.075960  1
  Al  Al23  1  0.674081  0.841989  0.076048  1
  Al  Al24  1  0.333069  0.666139  0.532381  1
  Al  Al25  1  0.666931  0.333861  0.467619  1
  Al  Al26  1  0.664577  0.329154  0.030139  1
  Al  Al27  1  0.335423  0.670846  0.969861  1
  Al  Al28  1  0.998769  0.997537  0.249707  1
  Al  Al29  1  0.001231  0.002463  0.750293  1
  Re  Re30  1  0.000000  0.000000  0.500000  1
  Re  Re31  1  0.000000  0.000000  0.000000  1
  Re  Re32  1  0.500000  0.000000  0.000000  1
  Pt  Pt33  1  0.500000  0.000000  0.500000  1
  Pt  Pt34  1  0.000000  0.500000  0.500000  1
  Pt  Pt35  1  0.500000  0.500000  0.500000  1
  Pt  Pt36  1  0.000000  0.500000  0.000000  1
  Pt  Pt37  1  0.500000  0.500000  0.000000  1
