# generated using pymatgen
data_Y6Ni17As12Rh
_symmetry_space_group_name_H-M   'P 1'
_cell_length_a   3.89044000
_cell_length_b   10.86848400
_cell_length_c   12.78988900
_cell_angle_alpha   90.00000000
_cell_angle_beta   90.00000000
_cell_angle_gamma   90.00000000
_symmetry_Int_Tables_number   1
_chemical_formula_structural   Y6Ni17As12Rh
_chemical_formula_sum   'Y6 Ni17 As12 Rh1'
_cell_volume   540.79724135
_cell_formula_units_Z   1
loop_
 _symmetry_equiv_pos_site_id
 _symmetry_equiv_pos_as_xyz
  1  'x, y, z'
loop_
 _atom_site_type_symbol
 _atom_site_label
 _atom_site_symmetry_multiplicity
 _atom_site_fract_x
 _atom_site_fract_y
 _atom_site_fract_z
 _atom_site_occupancy
  Y  Y0  1  0.000000  0.500000  0.524922  1
  Y  Y1  1  0.500000  0.000000  0.477728  1
  Y  Y2  1  0.500000  0.816561  0.207153  1
  Y  Y3  1  0.500000  0.183439  0.207153  1
  Y  Y4  1  0.000000  0.684454  0.792702  1
  Y  Y5  1  0.000000  0.315546  0.792702  1
  Ni  Ni6  1  0.000000  0.000000  0.842907  1
  Ni  Ni7  1  0.500000  0.500000  0.698964  1
  Ni  Ni8  1  0.000000  0.000000  0.301751  1
  Ni  Ni9  1  0.000000  0.500000  0.981272  1
  Ni  Ni10  1  0.500000  0.000000  0.019004  1
  Ni  Ni11  1  0.500000  0.330677  0.993418  1
  Ni  Ni12  1  0.500000  0.669323  0.993418  1
  Ni  Ni13  1  0.000000  0.164871  0.002748  1
  Ni  Ni14  1  0.000000  0.835129  0.002748  1
  Ni  Ni15  1  0.500000  0.302755  0.426996  1
  Ni  Ni16  1  0.500000  0.697245  0.426996  1
  Ni  Ni17  1  0.000000  0.196496  0.573494  1
  Ni  Ni18  1  0.000000  0.803504  0.573494  1
  Ni  Ni19  1  0.500000  0.879697  0.707747  1
  Ni  Ni20  1  0.500000  0.120303  0.707747  1
  Ni  Ni21  1  0.000000  0.621112  0.292258  1
  Ni  Ni22  1  0.000000  0.378888  0.292258  1
  As  As23  1  0.500000  0.500000  0.875781  1
  As  As24  1  0.000000  0.000000  0.125041  1
  As  As25  1  0.500000  0.500000  0.350032  1
  As  As26  1  0.000000  0.000000  0.655067  1
  As  As27  1  0.500000  0.313780  0.613716  1
  As  As28  1  0.500000  0.686220  0.613716  1
  As  As29  1  0.000000  0.185529  0.386894  1
  As  As30  1  0.000000  0.814471  0.386894  1
  As  As31  1  0.500000  0.849269  0.890195  1
  As  As32  1  0.500000  0.150731  0.890195  1
  As  As33  1  0.000000  0.653919  0.107675  1
  As  As34  1  0.000000  0.346081  0.107675  1
  Rh  Rh35  1  0.500000  0.500000  0.157536  1
