# generated using pymatgen
data_PrSeO4F
_symmetry_space_group_name_H-M   'P 1'
_cell_length_a   6.93178000
_cell_length_b   7.50141700
_cell_length_c   8.85718600
_cell_angle_alpha   90.00000000
_cell_angle_beta   90.00000000
_cell_angle_gamma   90.00000000
_symmetry_Int_Tables_number   1
_chemical_formula_structural   PrSeO4F
_chemical_formula_sum   'Pr4 Se4 O16 F4'
_cell_volume   460.55748401
_cell_formula_units_Z   4
loop_
 _symmetry_equiv_pos_site_id
 _symmetry_equiv_pos_as_xyz
  1  'x, y, z'
loop_
 _atom_site_type_symbol
 _atom_site_label
 _atom_site_symmetry_multiplicity
 _atom_site_fract_x
 _atom_site_fract_y
 _atom_site_fract_z
 _atom_site_occupancy
  Pr  Pr0  1  0.650784  0.750000  0.450375  1
  Pr  Pr1  1  0.150784  0.250000  0.049625  1
  Pr  Pr2  1  0.349216  0.250000  0.549625  1
  Pr  Pr3  1  0.849216  0.750000  0.950375  1
  Se  Se4  1  0.186807  0.750000  0.591681  1
  Se  Se5  1  0.686807  0.250000  0.908319  1
  Se  Se6  1  0.813193  0.250000  0.408319  1
  Se  Se7  1  0.313193  0.750000  0.091681  1
  O  O8  1  0.005833  0.750000  0.469814  1
  O  O9  1  0.505833  0.250000  0.030186  1
  O  O10  1  0.994167  0.250000  0.530186  1
  O  O11  1  0.494167  0.750000  0.969814  1
  O  O12  1  0.381769  0.750000  0.269575  1
  O  O13  1  0.881769  0.250000  0.230425  1
  O  O14  1  0.618231  0.250000  0.730425  1
  O  O15  1  0.118231  0.750000  0.769575  1
  O  O16  1  0.337695  0.922872  0.558954  1
  O  O17  1  0.837695  0.077128  0.941046  1
  O  O18  1  0.662305  0.422872  0.441046  1
  O  O19  1  0.162305  0.577128  0.058954  1
  O  O20  1  0.837695  0.422872  0.941046  1
  O  O21  1  0.337695  0.577128  0.558954  1
  O  O22  1  0.162305  0.922872  0.058954  1
  O  O23  1  0.662305  0.077128  0.441046  1
  F  F24  1  0.711284  0.750000  0.708751  1
  F  F25  1  0.211284  0.250000  0.791249  1
  F  F26  1  0.288716  0.250000  0.291249  1
  F  F27  1  0.788716  0.750000  0.208751  1
