# generated using pymatgen
data_Sm2Dy3Bi3O14
_symmetry_space_group_name_H-M   'P 1'
_cell_length_a   6.62260029
_cell_length_b   6.66526899
_cell_length_c   7.79979049
_cell_angle_alpha   106.75719247
_cell_angle_beta   89.66952052
_cell_angle_gamma   98.66681011
_symmetry_Int_Tables_number   1
_chemical_formula_structural   Sm2Dy3Bi3O14
_chemical_formula_sum   'Sm2 Dy3 Bi3 O14'
_cell_volume   325.65069308
_cell_formula_units_Z   1
loop_
 _symmetry_equiv_pos_site_id
 _symmetry_equiv_pos_as_xyz
  1  'x, y, z'
loop_
 _atom_site_type_symbol
 _atom_site_label
 _atom_site_symmetry_multiplicity
 _atom_site_fract_x
 _atom_site_fract_y
 _atom_site_fract_z
 _atom_site_occupancy
  Sm  Sm0  1  0.738688  0.459509  0.112825  1
  Sm  Sm1  1  0.746385  0.482359  0.619905  1
  Dy  Dy2  1  0.459377  0.006937  0.253824  1
  Dy  Dy3  1  0.536453  0.999062  0.750256  1
  Dy  Dy4  1  0.271828  0.535284  0.882601  1
  Bi  Bi5  1  0.995053  0.001179  0.501403  1
  Bi  Bi6  1  0.000963  0.996149  0.996791  1
  Bi  Bi7  1  0.282262  0.534665  0.389192  1
  O  O8  1  0.446492  0.654078  0.166793  1
  O  O9  1  0.550422  0.351333  0.834439  1
  O  O10  1  0.303071  0.920949  0.951797  1
  O  O11  1  0.698744  0.071552  0.049844  1
  O  O12  1  0.298043  0.932125  0.516078  1
  O  O13  1  0.698332  0.081997  0.491032  1
  O  O14  1  0.545707  0.359920  0.343829  1
  O  O15  1  0.456526  0.643435  0.658808  1
  O  O16  1  0.931014  0.662016  0.946627  1
  O  O17  1  0.072758  0.323043  0.025363  1
  O  O18  1  0.071841  0.338090  0.630276  1
  O  O19  1  0.906768  0.667405  0.383307  1
  O  O20  1  0.870627  0.904034  0.726544  1
  O  O21  1  0.118646  0.074881  0.268467  1
