# generated using pymatgen
data_Cs4NpBiCl12
_symmetry_space_group_name_H-M   'P 1'
_cell_length_a   13.43003974
_cell_length_b   13.43003923
_cell_length_c   13.43003923
_cell_angle_alpha   131.73469979
_cell_angle_beta   131.73470038
_cell_angle_gamma   70.64836552
_symmetry_Int_Tables_number   1
_chemical_formula_structural   Cs4NpBiCl12
_chemical_formula_sum   'Cs8 Np2 Bi2 Cl24'
_cell_volume   1321.46178599
_cell_formula_units_Z   2
loop_
 _symmetry_equiv_pos_site_id
 _symmetry_equiv_pos_as_xyz
  1  'x, y, z'
loop_
 _atom_site_type_symbol
 _atom_site_label
 _atom_site_symmetry_multiplicity
 _atom_site_fract_x
 _atom_site_fract_y
 _atom_site_fract_z
 _atom_site_occupancy
  Cs  Cs0  1  0.375000  0.842659  0.967659  1
  Cs  Cs1  1  0.592659  0.625000  0.467659  1
  Cs  Cs2  1  0.875000  0.842659  0.467659  1
  Cs  Cs3  1  0.592659  0.125000  0.967659  1
  Cs  Cs4  1  0.875000  0.407341  0.032341  1
  Cs  Cs5  1  0.157341  0.125000  0.532341  1
  Cs  Cs6  1  0.375000  0.407341  0.532341  1
  Cs  Cs7  1  0.157341  0.625000  0.032341  1
  Np  Np8  1  0.000000  0.000000  0.000000  1
  Np  Np9  1  0.750000  0.250000  0.500000  1
  Bi  Bi10  1  0.500000  0.500000  0.000000  1
  Bi  Bi11  1  0.250000  0.750000  0.500000  1
  Cl  Cl12  1  0.744372  0.495829  0.248543  1
  Cl  Cl13  1  0.504171  0.255628  0.751457  1
  Cl  Cl14  1  0.375764  0.375764  0.000000  1
  Cl  Cl15  1  0.125764  0.625764  0.500000  1
  Cl  Cl16  1  0.374236  0.874236  0.500000  1
  Cl  Cl17  1  0.624236  0.624236  0.000000  1
  Cl  Cl18  1  0.114763  0.114763  0.000000  1
  Cl  Cl19  1  0.864763  0.364763  0.500000  1
  Cl  Cl20  1  0.635237  0.135237  0.500000  1
  Cl  Cl21  1  0.885237  0.885237  0.000000  1
  Cl  Cl22  1  0.231977  0.000557  0.231421  1
  Cl  Cl23  1  0.750557  0.019136  0.268579  1
  Cl  Cl24  1  0.504171  0.752713  0.248543  1
  Cl  Cl25  1  0.518023  0.249443  0.268579  1
  Cl  Cl26  1  0.980864  0.249443  0.731421  1
  Cl  Cl27  1  0.999443  0.230864  0.231421  1
  Cl  Cl28  1  0.999443  0.768023  0.768579  1
  Cl  Cl29  1  0.769136  0.000557  0.768579  1
  Cl  Cl30  1  0.750557  0.481977  0.731421  1
  Cl  Cl31  1  0.245829  0.497287  0.251457  1
  Cl  Cl32  1  0.245829  0.994372  0.748543  1
  Cl  Cl33  1  0.005628  0.754171  0.251457  1
  Cl  Cl34  1  0.502713  0.754171  0.748543  1
  Cl  Cl35  1  0.247287  0.495829  0.751457  1
