# generated using pymatgen
data_YHo2UN4
_symmetry_space_group_name_H-M   'P 1'
_cell_length_a   6.90514197
_cell_length_b   9.12227739
_cell_length_c   5.96111952
_cell_angle_alpha   29.22897096
_cell_angle_beta   54.60700035
_cell_angle_gamma   40.80362109
_symmetry_Int_Tables_number   1
_chemical_formula_structural   YHo2UN4
_chemical_formula_sum   'Y1 Ho2 U1 N4'
_cell_volume   115.85278192
_cell_formula_units_Z   1
loop_
 _symmetry_equiv_pos_site_id
 _symmetry_equiv_pos_as_xyz
  1  'x, y, z'
loop_
 _atom_site_type_symbol
 _atom_site_label
 _atom_site_symmetry_multiplicity
 _atom_site_fract_x
 _atom_site_fract_y
 _atom_site_fract_z
 _atom_site_occupancy
  Y  Y0  1  0.250000  0.500000  0.000000  1
  Ho  Ho1  1  0.750000  0.500000  0.000000  1
  Ho  Ho2  1  0.500000  0.000000  0.000000  1
  U  U3  1  0.000000  0.000000  0.000000  1
  N  N4  1  0.501171  0.500000  0.497659  1
  N  N5  1  0.232674  0.000000  0.534652  1
  N  N6  1  0.998829  0.500000  0.502341  1
  N  N7  1  0.767326  0.000000  0.465348  1
