# generated using pymatgen
data_Pr2GdGaSi
_symmetry_space_group_name_H-M   'P 1'
_cell_length_a   7.90007500
_cell_length_b   7.90007429
_cell_length_c   4.38255500
_cell_angle_alpha   90.00000000
_cell_angle_beta   90.00000000
_cell_angle_gamma   88.36044337
_symmetry_Int_Tables_number   1
_chemical_formula_structural   Pr2GdGaSi
_chemical_formula_sum   'Pr4 Gd2 Ga2 Si2'
_cell_volume   273.40844707
_cell_formula_units_Z   2
loop_
 _symmetry_equiv_pos_site_id
 _symmetry_equiv_pos_as_xyz
  1  'x, y, z'
loop_
 _atom_site_type_symbol
 _atom_site_label
 _atom_site_symmetry_multiplicity
 _atom_site_fract_x
 _atom_site_fract_y
 _atom_site_fract_z
 _atom_site_occupancy
  Pr  Pr0  1  0.671467  0.171467  0.500000  1
  Pr  Pr1  1  0.328533  0.828533  0.500000  1
  Pr  Pr2  1  0.185074  0.314926  0.500000  1
  Pr  Pr3  1  0.814926  0.685074  0.500000  1
  Gd  Gd4  1  0.500000  0.500000  0.000000  1
  Gd  Gd5  1  0.000000  0.000000  0.000000  1
  Ga  Ga6  1  0.117528  0.617528  0.000000  1
  Ga  Ga7  1  0.882472  0.382472  0.000000  1
  Si  Si8  1  0.611135  0.888865  0.000000  1
  Si  Si9  1  0.388865  0.111135  0.000000  1
