# generated using pymatgen
data_Ho3Mg3RuRh2
_symmetry_space_group_name_H-M   'P 1'
_cell_length_a   7.22450900
_cell_length_b   7.22450847
_cell_length_c   4.08014100
_cell_angle_alpha   90.00000000
_cell_angle_beta   90.00000000
_cell_angle_gamma   119.99999785
_symmetry_Int_Tables_number   1
_chemical_formula_structural   Ho3Mg3RuRh2
_chemical_formula_sum   'Ho3 Mg3 Ru1 Rh2'
_cell_volume   184.42613022
_cell_formula_units_Z   1
loop_
 _symmetry_equiv_pos_site_id
 _symmetry_equiv_pos_as_xyz
  1  'x, y, z'
loop_
 _atom_site_type_symbol
 _atom_site_label
 _atom_site_symmetry_multiplicity
 _atom_site_fract_x
 _atom_site_fract_y
 _atom_site_fract_z
 _atom_site_occupancy
  Ho  Ho0  1  0.584807  0.993651  0.000000  1
  Ho  Ho1  1  0.006349  0.591157  0.000000  1
  Ho  Ho2  1  0.408843  0.415193  0.000000  1
  Mg  Mg3  1  0.245910  0.001783  0.500000  1
  Mg  Mg4  1  0.998217  0.244127  0.500000  1
  Mg  Mg5  1  0.755873  0.754090  0.500000  1
  Ru  Ru6  1  0.333333  0.666667  0.500000  1
  Rh  Rh7  1  0.666667  0.333333  0.500000  1
  Rh  Rh8  1  0.000000  0.000000  0.000000  1
