# generated using pymatgen
data_La8MgCuPd23
_symmetry_space_group_name_H-M   'P 1'
_cell_length_a   8.51788600
_cell_length_b   8.56466800
_cell_length_c   8.56466800
_cell_angle_alpha   90.00000000
_cell_angle_beta   90.00000000
_cell_angle_gamma   90.00000000
_symmetry_Int_Tables_number   1
_chemical_formula_structural   La8MgCuPd23
_chemical_formula_sum   'La8 Mg1 Cu1 Pd23'
_cell_volume   624.81707396
_cell_formula_units_Z   1
loop_
 _symmetry_equiv_pos_site_id
 _symmetry_equiv_pos_as_xyz
  1  'x, y, z'
loop_
 _atom_site_type_symbol
 _atom_site_label
 _atom_site_symmetry_multiplicity
 _atom_site_fract_x
 _atom_site_fract_y
 _atom_site_fract_z
 _atom_site_occupancy
  La  La0  1  0.248122  0.252084  0.252084  1
  La  La1  1  0.747215  0.748562  0.748562  1
  La  La2  1  0.747215  0.748562  0.251438  1
  La  La3  1  0.747215  0.251438  0.748562  1
  La  La4  1  0.248122  0.252084  0.747916  1
  La  La5  1  0.248122  0.747916  0.252084  1
  La  La6  1  0.248122  0.747916  0.747916  1
  La  La7  1  0.747215  0.251438  0.251438  1
  Mg  Mg8  1  0.021601  0.000000  0.000000  1
  Cu  Cu9  1  0.352153  0.000000  0.000000  1
  Pd  Pd10  1  0.262475  0.500000  0.000000  1
  Pd  Pd11  1  0.730569  0.500000  0.000000  1
  Pd  Pd12  1  0.998150  0.265235  0.500000  1
  Pd  Pd13  1  0.497333  0.264287  0.000000  1
  Pd  Pd14  1  0.998150  0.734765  0.500000  1
  Pd  Pd15  1  0.497333  0.735713  0.000000  1
  Pd  Pd16  1  0.497333  0.000000  0.264287  1
  Pd  Pd17  1  0.262475  0.000000  0.500000  1
  Pd  Pd18  1  0.497333  0.000000  0.735713  1
  Pd  Pd19  1  0.730569  0.000000  0.500000  1
  Pd  Pd20  1  0.998150  0.500000  0.265235  1
  Pd  Pd21  1  0.998150  0.500000  0.734765  1
  Pd  Pd22  1  0.253661  0.500000  0.500000  1
  Pd  Pd23  1  0.742372  0.500000  0.500000  1
  Pd  Pd24  1  0.497210  0.254518  0.500000  1
  Pd  Pd25  1  0.497210  0.745482  0.500000  1
  Pd  Pd26  1  0.497210  0.500000  0.254518  1
  Pd  Pd27  1  0.497210  0.500000  0.745482  1
  Pd  Pd28  1  0.705504  0.000000  0.000000  1
  Pd  Pd29  1  0.996624  0.306756  0.000000  1
  Pd  Pd30  1  0.996624  0.693244  0.000000  1
  Pd  Pd31  1  0.996624  0.000000  0.306756  1
  Pd  Pd32  1  0.996624  0.000000  0.693244  1
