# generated using pymatgen
data_SmGd3(B4W)4
_symmetry_space_group_name_H-M   'P 1'
_cell_length_a   6.06785735
_cell_length_b   11.73542767
_cell_length_c   3.65342600
_cell_angle_alpha   90.00000000
_cell_angle_beta   90.00000000
_cell_angle_gamma   90.03884499
_symmetry_Int_Tables_number   1
_chemical_formula_structural   SmGd3(B4W)4
_chemical_formula_sum   'Sm1 Gd3 B16 W4'
_cell_volume   260.15639075
_cell_formula_units_Z   1
loop_
 _symmetry_equiv_pos_site_id
 _symmetry_equiv_pos_as_xyz
  1  'x, y, z'
loop_
 _atom_site_type_symbol
 _atom_site_label
 _atom_site_symmetry_multiplicity
 _atom_site_fract_x
 _atom_site_fract_y
 _atom_site_fract_z
 _atom_site_occupancy
  Sm  Sm0  1  0.126384  0.150129  0.000000  1
  Gd  Gd1  1  0.873520  0.849977  0.000000  1
  Gd  Gd2  1  0.626472  0.350211  0.000000  1
  Gd  Gd3  1  0.373572  0.649927  0.000000  1
  B  B4  1  0.477053  0.192651  0.499998  1
  B  B5  1  0.523876  0.807190  0.499998  1
  B  B6  1  0.975291  0.308170  0.499998  1
  B  B7  1  0.023805  0.692646  0.499998  1
  B  B8  1  0.286263  0.314713  0.499998  1
  B  B9  1  0.714206  0.685990  0.499998  1
  B  B10  1  0.784464  0.186271  0.499998  1
  B  B11  1  0.214177  0.813758  0.499998  1
  B  B12  1  0.365636  0.468114  0.499998  1
  B  B13  1  0.634512  0.532276  0.499998  1
  B  B14  1  0.864956  0.031498  0.499998  1
  B  B15  1  0.134677  0.967149  0.499998  1
  B  B16  1  0.387709  0.046347  0.499998  1
  B  B17  1  0.613716  0.952533  0.499998  1
  B  B18  1  0.886286  0.453234  0.499998  1
  B  B19  1  0.113402  0.547201  0.499998  1
  W  W20  1  0.130176  0.416257  0.000000  1
  W  W21  1  0.869705  0.584467  0.000000  1
  W  W22  1  0.630104  0.083999  0.000000  1
  W  W23  1  0.370040  0.915292  0.000000  1
