# generated using pymatgen
data_BaNaTaS4
_symmetry_space_group_name_H-M   'P 1'
_cell_length_a   9.63965100
_cell_length_b   6.78373149
_cell_length_c   12.63023472
_cell_angle_alpha   69.45360393
_cell_angle_beta   90.00000000
_cell_angle_gamma   90.00000000
_symmetry_Int_Tables_number   1
_chemical_formula_structural   BaNaTaS4
_chemical_formula_sum   'Ba4 Na4 Ta4 S16'
_cell_volume   773.38787515
_cell_formula_units_Z   4
loop_
 _symmetry_equiv_pos_site_id
 _symmetry_equiv_pos_as_xyz
  1  'x, y, z'
loop_
 _atom_site_type_symbol
 _atom_site_label
 _atom_site_symmetry_multiplicity
 _atom_site_fract_x
 _atom_site_fract_y
 _atom_site_fract_z
 _atom_site_occupancy
  Ba  Ba0  1  0.882842  0.385494  0.343487  1
  Ba  Ba1  1  0.617158  0.385494  0.843487  1
  Ba  Ba2  1  0.117158  0.614506  0.656513  1
  Ba  Ba3  1  0.382842  0.614506  0.156513  1
  Na  Na4  1  0.115915  0.229842  0.025832  1
  Na  Na5  1  0.384085  0.229842  0.525832  1
  Na  Na6  1  0.884085  0.770158  0.974168  1
  Na  Na7  1  0.615915  0.770158  0.474168  1
  Ta  Ta8  1  0.620538  0.116918  0.185127  1
  Ta  Ta9  1  0.879462  0.116918  0.685127  1
  Ta  Ta10  1  0.379462  0.883082  0.814873  1
  Ta  Ta11  1  0.120538  0.883082  0.314873  1
  S  S12  1  0.801059  0.324010  0.090066  1
  S  S13  1  0.698941  0.324010  0.590066  1
  S  S14  1  0.198941  0.675990  0.909934  1
  S  S15  1  0.301059  0.675990  0.409934  1
  S  S16  1  0.931199  0.812434  0.429145  1
  S  S17  1  0.568801  0.812434  0.929145  1
  S  S18  1  0.068801  0.187566  0.570855  1
  S  S19  1  0.431199  0.187566  0.070855  1
  S  S20  1  0.570566  0.208029  0.339632  1
  S  S21  1  0.929434  0.208029  0.839632  1
  S  S22  1  0.429434  0.791971  0.660368  1
  S  S23  1  0.070566  0.791971  0.160368  1
  S  S24  1  0.164070  0.234234  0.261189  1
  S  S25  1  0.335930  0.234234  0.761189  1
  S  S26  1  0.835930  0.765766  0.738811  1
  S  S27  1  0.664070  0.765766  0.238811  1
