# generated using pymatgen
data_NdY(NiIr)2
_symmetry_space_group_name_H-M   'P 1'
_cell_length_a   5.43342022
_cell_length_b   5.27530863
_cell_length_c   5.27530834
_cell_angle_alpha   58.67840227
_cell_angle_beta   59.00348308
_cell_angle_gamma   59.00347536
_symmetry_Int_Tables_number   1
_chemical_formula_structural   NdY(NiIr)2
_chemical_formula_sum   'Nd1 Y1 Ni2 Ir2'
_cell_volume   104.22017827
_cell_formula_units_Z   1
loop_
 _symmetry_equiv_pos_site_id
 _symmetry_equiv_pos_as_xyz
  1  'x, y, z'
loop_
 _atom_site_type_symbol
 _atom_site_label
 _atom_site_symmetry_multiplicity
 _atom_site_fract_x
 _atom_site_fract_y
 _atom_site_fract_z
 _atom_site_occupancy
  Nd  Nd0  1  0.747929  0.752071  0.752071  1
  Y  Y1  1  0.001843  0.998157  0.998157  1
  Ni  Ni2  1  0.374626  0.875663  0.375084  1
  Ni  Ni3  1  0.374626  0.375084  0.875663  1
  Ir  Ir4  1  0.876420  0.374512  0.374512  1
  Ir  Ir5  1  0.374554  0.374512  0.374512  1
