# generated using pymatgen
data_Cr9Re3P4
_symmetry_space_group_name_H-M   'P 1'
_cell_length_a   4.53473733
_cell_length_b   6.94012520
_cell_length_c   6.97049715
_cell_angle_alpha   95.74491068
_cell_angle_beta   109.11580818
_cell_angle_gamma   70.97883145
_symmetry_Int_Tables_number   1
_chemical_formula_structural   Cr9Re3P4
_chemical_formula_sum   'Cr9 Re3 P4'
_cell_volume   195.95341151
_cell_formula_units_Z   1
loop_
 _symmetry_equiv_pos_site_id
 _symmetry_equiv_pos_as_xyz
  1  'x, y, z'
loop_
 _atom_site_type_symbol
 _atom_site_label
 _atom_site_symmetry_multiplicity
 _atom_site_fract_x
 _atom_site_fract_y
 _atom_site_fract_z
 _atom_site_occupancy
  Cr  Cr0  1  0.363408  0.613285  0.335467  1
  Cr  Cr1  1  0.029220  0.324148  0.393887  1
  Cr  Cr2  1  0.987065  0.936783  0.392698  1
  Cr  Cr3  1  0.543885  0.056425  0.610320  1
  Cr  Cr4  1  0.965695  0.672703  0.611535  1
  Cr  Cr5  1  0.640490  0.394566  0.672505  1
  Cr  Cr6  1  0.123268  0.031926  0.810047  1
  Cr  Cr7  1  0.396534  0.614843  0.940460  1
  Cr  Cr8  1  0.840814  0.813391  0.965438  1
  Re  Re9  1  0.687764  0.178260  0.025686  1
  Re  Re10  1  0.075289  0.396505  0.054598  1
  Re  Re11  1  0.339951  0.966417  0.179674  1
  P  P12  1  0.792650  0.656984  0.251177  1
  P  P13  1  0.559656  0.246427  0.351765  1
  P  P14  1  0.453559  0.757343  0.663128  1
  P  P15  1  0.200753  0.339994  0.741614  1
