# generated using pymatgen
data_Nb12Ga9Fe(CuN2)2
_symmetry_space_group_name_H-M   'P 1'
_cell_length_a   8.30335427
_cell_length_b   8.28161902
_cell_length_c   8.28162309
_cell_angle_alpha   59.58265130
_cell_angle_beta   59.59981822
_cell_angle_gamma   59.59982489
_symmetry_Int_Tables_number   1
_chemical_formula_structural   Nb12Ga9Fe(CuN2)2
_chemical_formula_sum   'Nb12 Ga9 Fe1 Cu2 N4'
_cell_volume   398.97331532
_cell_formula_units_Z   1
loop_
 _symmetry_equiv_pos_site_id
 _symmetry_equiv_pos_as_xyz
  1  'x, y, z'
loop_
 _atom_site_type_symbol
 _atom_site_label
 _atom_site_symmetry_multiplicity
 _atom_site_fract_x
 _atom_site_fract_y
 _atom_site_fract_z
 _atom_site_occupancy
  Nb  Nb0  1  0.813090  0.810720  0.187464  1
  Nb  Nb1  1  0.189238  0.195540  0.808111  1
  Nb  Nb2  1  0.813090  0.187464  0.810721  1
  Nb  Nb3  1  0.189239  0.808110  0.195541  1
  Nb  Nb4  1  0.187642  0.808937  0.808937  1
  Nb  Nb5  1  0.812858  0.189193  0.189193  1
  Nb  Nb6  1  0.436910  0.439280  0.062536  1
  Nb  Nb7  1  0.060762  0.054460  0.441889  1
  Nb  Nb8  1  0.436910  0.062536  0.439279  1
  Nb  Nb9  1  0.060761  0.441890  0.054459  1
  Nb  Nb10  1  0.062358  0.441063  0.441063  1
  Nb  Nb11  1  0.437142  0.060807  0.060807  1
  Ga  Ga12  1  0.125000  0.625000  0.625000  1
  Ga  Ga13  1  0.761631  0.414375  0.414372  1
  Ga  Ga14  1  0.428182  0.757349  0.409786  1
  Ga  Ga15  1  0.428180  0.409788  0.757350  1
  Ga  Ga16  1  0.425555  0.407667  0.407663  1
  Ga  Ga17  1  0.488369  0.835625  0.835628  1
  Ga  Ga18  1  0.821818  0.492651  0.840214  1
  Ga  Ga19  1  0.821820  0.840212  0.492650  1
  Ga  Ga20  1  0.824445  0.842333  0.842337  1
  Fe  Fe21  1  0.625000  0.625000  0.625000  1
  Cu  Cu22  1  0.625000  0.125000  0.625000  1
  Cu  Cu23  1  0.625000  0.625000  0.125000  1
  N  N24  1  0.625000  0.125000  0.125000  1
  N  N25  1  0.125000  0.625000  0.125000  1
  N  N26  1  0.125000  0.125000  0.625000  1
  N  N27  1  0.125000  0.125000  0.125000  1
