# generated using pymatgen
data_Dy3Nb2Sn(B2Ru5)2
_symmetry_space_group_name_H-M   'P 1'
_cell_length_a   9.62502447
_cell_length_b   9.68179678
_cell_length_c   3.11999600
_cell_angle_alpha   90.00000000
_cell_angle_beta   90.00000000
_cell_angle_gamma   90.61029566
_symmetry_Int_Tables_number   1
_chemical_formula_structural   Dy3Nb2Sn(B2Ru5)2
_chemical_formula_sum   'Dy3 Nb2 Sn1 B4 Ru10'
_cell_volume   290.72823030
_cell_formula_units_Z   1
loop_
 _symmetry_equiv_pos_site_id
 _symmetry_equiv_pos_as_xyz
  1  'x, y, z'
loop_
 _atom_site_type_symbol
 _atom_site_label
 _atom_site_symmetry_multiplicity
 _atom_site_fract_x
 _atom_site_fract_y
 _atom_site_fract_z
 _atom_site_occupancy
  Dy  Dy0  1  0.822832  0.673607  0.000000  1
  Dy  Dy1  1  0.176113  0.326282  0.000000  1
  Dy  Dy2  1  0.324032  0.826256  0.000000  1
  Nb  Nb3  1  0.680099  0.169310  0.000000  1
  Nb  Nb4  1  0.004251  0.998550  0.000000  1
  Sn  Sn5  1  0.498151  0.505895  0.000000  1
  B  B6  1  0.624056  0.883838  0.000000  1
  B  B7  1  0.381578  0.124501  0.000000  1
  B  B8  1  0.116232  0.620006  0.000000  1
  B  B9  1  0.876292  0.375287  0.000000  1
  Ru  Ru10  1  0.572179  0.728940  0.500000  1
  Ru  Ru11  1  0.444233  0.276210  0.500000  1
  Ru  Ru12  1  0.066204  0.780244  0.500000  1
  Ru  Ru13  1  0.917759  0.212568  0.500000  1
  Ru  Ru14  1  0.273796  0.574026  0.500000  1
  Ru  Ru15  1  0.714382  0.406788  0.500000  1
  Ru  Ru16  1  0.222463  0.071764  0.500000  1
  Ru  Ru17  1  0.781409  0.941117  0.500000  1
  Ru  Ru18  1  0.509775  0.009197  0.500000  1
  Ru  Ru19  1  0.994162  0.495613  0.500000  1
