# generated using pymatgen
data_TbDy11InCo4Ir
_symmetry_space_group_name_H-M   'P 1'
_cell_length_a   8.30835114
_cell_length_b   8.30625170
_cell_length_c   8.30625856
_cell_angle_alpha   111.19438076
_cell_angle_beta   110.55907727
_cell_angle_gamma   106.68641398
_symmetry_Int_Tables_number   1
_chemical_formula_structural   TbDy11InCo4Ir
_chemical_formula_sum   'Tb1 Dy11 In1 Co4 Ir1'
_cell_volume   440.53269183
_cell_formula_units_Z   1
loop_
 _symmetry_equiv_pos_site_id
 _symmetry_equiv_pos_as_xyz
  1  'x, y, z'
loop_
 _atom_site_type_symbol
 _atom_site_label
 _atom_site_symmetry_multiplicity
 _atom_site_fract_x
 _atom_site_fract_y
 _atom_site_fract_z
 _atom_site_occupancy
  Tb  Tb0  1  0.410206  0.216510  0.193696  1
  Dy  Dy1  1  0.589916  0.783716  0.806200  1
  Dy  Dy2  1  0.022266  0.216232  0.806034  1
  Dy  Dy3  1  0.977287  0.783626  0.193662  1
  Dy  Dy4  1  0.182643  0.286739  0.469565  1
  Dy  Dy5  1  0.817540  0.713644  0.530919  1
  Dy  Dy6  1  0.182643  0.713078  0.895904  1
  Dy  Dy7  1  0.817541  0.286621  0.103896  1
  Dy  Dy8  1  0.316035  0.622843  0.306459  1
  Dy  Dy9  1  0.684063  0.377489  0.693907  1
  Dy  Dy10  1  0.316035  0.009576  0.693192  1
  Dy  Dy11  1  0.684063  0.990156  0.306574  1
  In  In12  1  0.499985  0.500138  0.999847  1
  Co  Co13  1  0.377486  0.999853  0.377634  1
  Co  Co14  1  0.622786  0.000062  0.622724  1
  Co  Co15  1  0.111609  0.611606  0.500003  1
  Co  Co16  1  0.888793  0.388523  0.500269  1
  Ir  Ir17  1  0.999104  0.999589  0.999515  1
