# generated using pymatgen
data_Y4Hf3RhF28
_symmetry_space_group_name_H-M   'P 1'
_cell_length_a   5.67697078
_cell_length_b   9.02105197
_cell_length_c   12.10705363
_cell_angle_alpha   62.55271257
_cell_angle_beta   90.20983786
_cell_angle_gamma   89.94192499
_symmetry_Int_Tables_number   1
_chemical_formula_structural   Y4Hf3RhF28
_chemical_formula_sum   'Y4 Hf3 Rh1 F28'
_cell_volume   550.22975229
_cell_formula_units_Z   1
loop_
 _symmetry_equiv_pos_site_id
 _symmetry_equiv_pos_as_xyz
  1  'x, y, z'
loop_
 _atom_site_type_symbol
 _atom_site_label
 _atom_site_symmetry_multiplicity
 _atom_site_fract_x
 _atom_site_fract_y
 _atom_site_fract_z
 _atom_site_occupancy
  Y  Y0  1  0.260807  0.813873  0.269251  1
  Y  Y1  1  0.742157  0.184660  0.733476  1
  Y  Y2  1  0.757508  0.185646  0.233605  1
  Y  Y3  1  0.239756  0.813863  0.760487  1
  Hf  Hf4  1  0.756957  0.726624  0.043580  1
  Hf  Hf5  1  0.244252  0.274490  0.954579  1
  Hf  Hf6  1  0.255763  0.274595  0.456076  1
  Rh  Rh7  1  0.740780  0.727019  0.544710  1
  F  F8  1  0.933385  0.707231  0.420142  1
  F  F9  1  0.040376  0.289901  0.580581  1
  F  F10  1  0.460248  0.291200  0.079536  1
  F  F11  1  0.537924  0.710630  0.919809  1
  F  F12  1  0.486021  0.732225  0.147943  1
  F  F13  1  0.517799  0.269410  0.852058  1
  F  F14  1  0.980372  0.266511  0.354771  1
  F  F15  1  0.026679  0.728044  0.637821  1
  F  F16  1  0.966845  0.747051  0.171488  1
  F  F17  1  0.037671  0.252736  0.827099  1
  F  F18  1  0.464166  0.253829  0.328459  1
  F  F19  1  0.552141  0.743113  0.673678  1
  F  F20  1  0.773982  0.477111  0.140011  1
  F  F21  1  0.225966  0.523495  0.858161  1
  F  F22  1  0.266566  0.524200  0.360702  1
  F  F23  1  0.730285  0.486374  0.640450  1
  F  F24  1  0.952054  0.277794  0.048365  1
  F  F25  1  0.046965  0.722972  0.948997  1
  F  F26  1  0.447283  0.720770  0.457077  1
  F  F27  1  0.549847  0.281959  0.547203  1
  F  F28  1  0.744293  0.967373  0.453502  1
  F  F29  1  0.262753  0.026019  0.554548  1
  F  F30  1  0.242862  0.026289  0.058039  1
  F  F31  1  0.758732  0.975665  0.942748  1
  F  F32  1  0.578255  0.971409  0.235097  1
  F  F33  1  0.421185  0.027987  0.764572  1
  F  F34  1  0.076213  0.026291  0.270854  1
  F  F35  1  0.921153  0.971635  0.730524  1
