# generated using pymatgen
data_La6Ho4TlIn5Br2
_symmetry_space_group_name_H-M   'P 1'
_cell_length_a   9.60291900
_cell_length_b   9.60814289
_cell_length_c   6.82516100
_cell_angle_alpha   90.00000000
_cell_angle_beta   90.00000000
_cell_angle_gamma   119.98201981
_symmetry_Int_Tables_number   1
_chemical_formula_structural   La6Ho4TlIn5Br2
_chemical_formula_sum   'La6 Ho4 Tl1 In5 Br2'
_cell_volume   545.46251195
_cell_formula_units_Z   1
loop_
 _symmetry_equiv_pos_site_id
 _symmetry_equiv_pos_as_xyz
  1  'x, y, z'
loop_
 _atom_site_type_symbol
 _atom_site_label
 _atom_site_symmetry_multiplicity
 _atom_site_fract_x
 _atom_site_fract_y
 _atom_site_fract_z
 _atom_site_occupancy
  La  La0  1  0.730966  0.730952  0.250000  1
  La  La1  1  0.999505  0.730577  0.750000  1
  La  La2  1  0.730896  0.000000  0.750000  1
  La  La3  1  0.268928  0.269423  0.750000  1
  La  La4  1  0.000014  0.269048  0.250000  1
  La  La5  1  0.268935  0.000000  0.250000  1
  Ho  Ho6  1  0.333357  0.666151  0.499476  1
  Ho  Ho7  1  0.667207  0.333849  0.499476  1
  Ho  Ho8  1  0.333357  0.666151  0.000524  1
  Ho  Ho9  1  0.667207  0.333849  0.000524  1
  Tl  Tl10  1  0.393935  0.000000  0.750000  1
  In  In11  1  0.000005  0.605698  0.250000  1
  In  In12  1  0.606144  0.000000  0.250000  1
  In  In13  1  0.000038  0.394891  0.750000  1
  In  In14  1  0.394307  0.394302  0.250000  1
  In  In15  1  0.605147  0.605109  0.750000  1
  Br  Br16  1  0.000025  0.000000  0.500025  1
  Br  Br17  1  0.000025  0.000000  0.999975  1
