# generated using pymatgen
data_Ti24P5S3
_symmetry_space_group_name_H-M   'P 1'
_cell_length_a   9.90659286
_cell_length_b   9.91476628
_cell_length_c   4.97533744
_cell_angle_alpha   89.87243417
_cell_angle_beta   89.95587239
_cell_angle_gamma   89.98196112
_symmetry_Int_Tables_number   1
_chemical_formula_structural   Ti24P5S3
_chemical_formula_sum   'Ti24 P5 S3'
_cell_volume   488.68398939
_cell_formula_units_Z   1
loop_
 _symmetry_equiv_pos_site_id
 _symmetry_equiv_pos_as_xyz
  1  'x, y, z'
loop_
 _atom_site_type_symbol
 _atom_site_label
 _atom_site_symmetry_multiplicity
 _atom_site_fract_x
 _atom_site_fract_y
 _atom_site_fract_z
 _atom_site_occupancy
  Ti  Ti0  1  0.971230  0.862408  0.281902  1
  Ti  Ti1  1  0.361013  0.527365  0.780375  1
  Ti  Ti2  1  0.638420  0.469838  0.781597  1
  Ti  Ti3  1  0.028937  0.137903  0.281690  1
  Ti  Ti4  1  0.528758  0.639816  0.219746  1
  Ti  Ti5  1  0.139334  0.971758  0.719973  1
  Ti  Ti6  1  0.860701  0.029267  0.719364  1
  Ti  Ti7  1  0.471416  0.360239  0.219734  1
  Ti  Ti8  1  0.819881  0.283564  0.013427  1
  Ti  Ti9  1  0.783730  0.680431  0.513252  1
  Ti  Ti10  1  0.216256  0.318913  0.512259  1
  Ti  Ti11  1  0.180994  0.716706  0.011885  1
  Ti  Ti12  1  0.680115  0.215552  0.484898  1
  Ti  Ti13  1  0.716165  0.820885  0.986961  1
  Ti  Ti14  1  0.284585  0.179935  0.985614  1
  Ti  Ti15  1  0.318630  0.784541  0.486903  1
  Ti  Ti16  1  0.915601  0.392079  0.536891  1
  Ti  Ti17  1  0.892643  0.584210  0.036522  1
  Ti  Ti18  1  0.107162  0.415451  0.037373  1
  Ti  Ti19  1  0.084082  0.607595  0.537687  1
  Ti  Ti20  1  0.584610  0.107248  0.963084  1
  Ti  Ti21  1  0.607208  0.916208  0.463925  1
  Ti  Ti22  1  0.392771  0.084707  0.462688  1
  Ti  Ti23  1  0.415689  0.893891  0.962290  1
  P  P24  1  0.540588  0.707346  0.713659  1
  P  P25  1  0.040664  0.206541  0.786907  1
  P  P26  1  0.706679  0.459263  0.286867  1
  P  P27  1  0.293225  0.540907  0.286828  1
  P  P28  1  0.959456  0.793662  0.786728  1
  S  S29  1  0.459509  0.291246  0.712708  1
  S  S30  1  0.791607  0.040726  0.213047  1
  S  S31  1  0.208342  0.959800  0.213213  1
