# generated using pymatgen
data_LiNd2Lu4Rh17
_symmetry_space_group_name_H-M   'P 1'
_cell_length_a   5.27634700
_cell_length_b   5.27634765
_cell_length_c   17.34557500
_cell_angle_alpha   90.00000000
_cell_angle_beta   90.00000000
_cell_angle_gamma   120.00000221
_symmetry_Int_Tables_number   1
_chemical_formula_structural   LiNd2Lu4Rh17
_chemical_formula_sum   'Li1 Nd2 Lu4 Rh17'
_cell_volume   418.20197067
_cell_formula_units_Z   1
loop_
 _symmetry_equiv_pos_site_id
 _symmetry_equiv_pos_as_xyz
  1  'x, y, z'
loop_
 _atom_site_type_symbol
 _atom_site_label
 _atom_site_symmetry_multiplicity
 _atom_site_fract_x
 _atom_site_fract_y
 _atom_site_fract_z
 _atom_site_occupancy
  Li  Li0  1  0.000000  0.000000  0.250000  1
  Nd  Nd1  1  0.333333  0.666667  0.750000  1
  Nd  Nd2  1  0.666667  0.333333  0.250000  1
  Lu  Lu3  1  0.333333  0.666667  0.538805  1
  Lu  Lu4  1  0.666667  0.333333  0.040259  1
  Lu  Lu5  1  0.666667  0.333333  0.459741  1
  Lu  Lu6  1  0.333333  0.666667  0.961195  1
  Rh  Rh7  1  0.167984  0.335968  0.123859  1
  Rh  Rh8  1  0.832724  0.665448  0.623645  1
  Rh  Rh9  1  0.664032  0.832016  0.123859  1
  Rh  Rh10  1  0.167984  0.832016  0.123859  1
  Rh  Rh11  1  0.832724  0.167276  0.623645  1
  Rh  Rh12  1  0.334552  0.167276  0.623645  1
  Rh  Rh13  1  0.832724  0.665448  0.876355  1
  Rh  Rh14  1  0.832724  0.167276  0.876355  1
  Rh  Rh15  1  0.334552  0.167276  0.876355  1
  Rh  Rh16  1  0.664032  0.832016  0.376141  1
  Rh  Rh17  1  0.167984  0.832016  0.376141  1
  Rh  Rh18  1  0.167984  0.335968  0.376141  1
  Rh  Rh19  1  0.000000  0.000000  0.750000  1
  Rh  Rh20  1  0.333333  0.666667  0.250000  1
  Rh  Rh21  1  0.666667  0.333333  0.750000  1
  Rh  Rh22  1  0.000000  0.000000  0.001517  1
  Rh  Rh23  1  0.000000  0.000000  0.498483  1
