# generated using pymatgen
data_YbNp3(Si5Os3)2
_symmetry_space_group_name_H-M   'P 1'
_cell_length_a   8.14087225
_cell_length_b   8.09751777
_cell_length_c   5.74687631
_cell_angle_alpha   70.30082263
_cell_angle_beta   70.59894221
_cell_angle_gamma   93.27986312
_symmetry_Int_Tables_number   1
_chemical_formula_structural   YbNp3(Si5Os3)2
_chemical_formula_sum   'Yb1 Np3 Si10 Os6'
_cell_volume   330.25279028
_cell_formula_units_Z   1
loop_
 _symmetry_equiv_pos_site_id
 _symmetry_equiv_pos_as_xyz
  1  'x, y, z'
loop_
 _atom_site_type_symbol
 _atom_site_label
 _atom_site_symmetry_multiplicity
 _atom_site_fract_x
 _atom_site_fract_y
 _atom_site_fract_z
 _atom_site_occupancy
  Yb  Yb0  1  0.865867  0.600881  0.758753  1
  Np  Np1  1  0.408101  0.124469  0.742499  1
  Np  Np2  1  0.128316  0.408186  0.242048  1
  Np  Np3  1  0.597024  0.866699  0.262205  1
  Si  Si4  1  0.071861  0.261833  0.835032  1
  Si  Si5  1  0.736750  0.937132  0.666669  1
  Si  Si6  1  0.934336  0.737445  0.165864  1
  Si  Si7  1  0.261456  0.067364  0.334189  1
  Si  Si8  1  0.200013  0.793340  0.750284  1
  Si  Si9  1  0.794637  0.203615  0.255092  1
  Si  Si10  1  0.516474  0.484808  0.745627  1
  Si  Si11  1  0.485507  0.512925  0.249661  1
  Si  Si12  1  0.773939  0.222072  0.746932  1
  Si  Si13  1  0.221814  0.774447  0.252016  1
  Os  Os14  1  0.256709  0.542127  0.635944  1
  Os  Os15  1  0.454243  0.748151  0.860716  1
  Os  Os16  1  0.745340  0.457065  0.365387  1
  Os  Os17  1  0.543963  0.250067  0.137369  1
  Os  Os18  1  0.002313  0.004098  0.747529  1
  Os  Os19  1  0.001339  0.003275  0.246184  1
