# generated using pymatgen
data_Gd2Tm5Lu(WO6)4
_symmetry_space_group_name_H-M   'P 1'
_cell_length_a   5.36744109
_cell_length_b   7.66895289
_cell_length_c   11.40768090
_cell_angle_alpha   75.31334940
_cell_angle_beta   90.00731892
_cell_angle_gamma   90.02136292
_symmetry_Int_Tables_number   1
_chemical_formula_structural   Gd2Tm5Lu(WO6)4
_chemical_formula_sum   'Gd2 Tm5 Lu1 W4 O24'
_cell_volume   454.22803276
_cell_formula_units_Z   1
loop_
 _symmetry_equiv_pos_site_id
 _symmetry_equiv_pos_as_xyz
  1  'x, y, z'
loop_
 _atom_site_type_symbol
 _atom_site_label
 _atom_site_symmetry_multiplicity
 _atom_site_fract_x
 _atom_site_fract_y
 _atom_site_fract_z
 _atom_site_occupancy
  Gd  Gd0  1  0.314878  0.500376  0.749687  1
  Gd  Gd1  1  0.685283  0.500084  0.250040  1
  Tm  Tm2  1  0.257271  0.999740  0.749604  1
  Tm  Tm3  1  0.184032  0.795825  0.078032  1
  Tm  Tm4  1  0.183841  0.203798  0.422171  1
  Tm  Tm5  1  0.742811  0.999785  0.250322  1
  Tm  Tm6  1  0.815894  0.204133  0.922071  1
  Lu  Lu7  1  0.815906  0.795460  0.578401  1
  W  W8  1  0.744696  0.726601  0.884380  1
  W  W9  1  0.255758  0.726783  0.385067  1
  W  W10  1  0.744480  0.273666  0.615317  1
  W  W11  1  0.255549  0.273474  0.115352  1
  O  O12  1  0.539190  0.154128  0.069497  1
  O  O13  1  0.042819  0.057871  0.104140  1
  O  O14  1  0.017641  0.717434  0.768543  1
  O  O15  1  0.460372  0.154603  0.569502  1
  O  O16  1  0.353152  0.490225  0.386465  1
  O  O17  1  0.955491  0.056415  0.603986  1
  O  O18  1  0.544150  0.796274  0.724445  1
  O  O19  1  0.457415  0.796167  0.225713  1
  O  O20  1  0.144733  0.638850  0.548149  1
  O  O21  1  0.042665  0.941838  0.396252  1
  O  O22  1  0.460794  0.845663  0.930083  1
  O  O23  1  0.457282  0.203983  0.274636  1
  O  O24  1  0.853109  0.362041  0.452068  1
  O  O25  1  0.646420  0.489998  0.886164  1
  O  O26  1  0.353526  0.510113  0.113827  1
  O  O27  1  0.957345  0.942032  0.895849  1
  O  O28  1  0.540773  0.844908  0.431662  1
  O  O29  1  0.981859  0.282786  0.230733  1
  O  O30  1  0.542593  0.204278  0.774501  1
  O  O31  1  0.852994  0.637898  0.047854  1
  O  O32  1  0.018270  0.282452  0.730481  1
  O  O33  1  0.147028  0.362243  0.951939  1
  O  O34  1  0.982252  0.717230  0.269342  1
  O  O35  1  0.647727  0.510846  0.613726  1
