# generated using pymatgen
data_Ac4SiI6
_symmetry_space_group_name_H-M   'P 1'
_cell_length_a   4.63362900
_cell_length_b   15.21271600
_cell_length_c   16.02336700
_cell_angle_alpha   90.00000000
_cell_angle_beta   90.00000000
_cell_angle_gamma   90.00000000
_symmetry_Int_Tables_number   1
_chemical_formula_structural   Ac4SiI6
_chemical_formula_sum   'Ac8 Si2 I12'
_cell_volume   1129.48845417
_cell_formula_units_Z   2
loop_
 _symmetry_equiv_pos_site_id
 _symmetry_equiv_pos_as_xyz
  1  'x, y, z'
loop_
 _atom_site_type_symbol
 _atom_site_label
 _atom_site_symmetry_multiplicity
 _atom_site_fract_x
 _atom_site_fract_y
 _atom_site_fract_z
 _atom_site_occupancy
  Ac  Ac0  1  0.500000  0.116407  0.344164  1
  Ac  Ac1  1  0.500000  0.883593  0.655836  1
  Ac  Ac2  1  0.500000  0.616407  0.155836  1
  Ac  Ac3  1  0.500000  0.383593  0.844164  1
  Ac  Ac4  1  0.000000  0.113550  0.575866  1
  Ac  Ac5  1  0.000000  0.886450  0.424134  1
  Ac  Ac6  1  0.000000  0.613550  0.924134  1
  Ac  Ac7  1  0.000000  0.386450  0.075866  1
  Si  Si8  1  0.500000  0.000000  0.500000  1
  Si  Si9  1  0.500000  0.500000  0.000000  1
  I  I10  1  0.500000  0.245101  0.162797  1
  I  I11  1  0.500000  0.754899  0.837203  1
  I  I12  1  0.500000  0.745101  0.337203  1
  I  I13  1  0.500000  0.254899  0.662797  1
  I  I14  1  0.000000  0.258533  0.413191  1
  I  I15  1  0.000000  0.741467  0.586809  1
  I  I16  1  0.000000  0.758533  0.086809  1
  I  I17  1  0.000000  0.241467  0.913191  1
  I  I18  1  0.000000  0.999700  0.240454  1
  I  I19  1  0.000000  0.000300  0.759546  1
  I  I20  1  0.000000  0.499700  0.259546  1
  I  I21  1  0.000000  0.500300  0.740454  1
