# generated using pymatgen
data_Pr20Co3SiSn8
_symmetry_space_group_name_H-M   'P 1'
_cell_length_a   8.19562131
_cell_length_b   9.32091500
_cell_length_c   12.68208131
_cell_angle_alpha   90.00000000
_cell_angle_beta   89.97139992
_cell_angle_gamma   90.00000000
_symmetry_Int_Tables_number   1
_chemical_formula_structural   Pr20Co3SiSn8
_chemical_formula_sum   'Pr20 Co3 Si1 Sn8'
_cell_volume   968.79281690
_cell_formula_units_Z   1
loop_
 _symmetry_equiv_pos_site_id
 _symmetry_equiv_pos_as_xyz
  1  'x, y, z'
loop_
 _atom_site_type_symbol
 _atom_site_label
 _atom_site_symmetry_multiplicity
 _atom_site_fract_x
 _atom_site_fract_y
 _atom_site_fract_z
 _atom_site_occupancy
  Pr  Pr0  1  0.841346  0.750000  0.792289  1
  Pr  Pr1  1  0.153153  0.250000  0.207188  1
  Pr  Pr2  1  0.342463  0.250000  0.709320  1
  Pr  Pr3  1  0.671823  0.750000  0.283137  1
  Pr  Pr4  1  0.359716  0.750000  0.710069  1
  Pr  Pr5  1  0.632053  0.250000  0.302214  1
  Pr  Pr6  1  0.874020  0.250000  0.804592  1
  Pr  Pr7  1  0.138254  0.750000  0.202840  1
  Pr  Pr8  1  0.958090  0.750000  0.503485  1
  Pr  Pr9  1  0.048804  0.250000  0.499707  1
  Pr  Pr10  1  0.450439  0.250000  0.997634  1
  Pr  Pr11  1  0.536272  0.750000  0.001183  1
  Pr  Pr12  1  0.680481  0.042995  0.564086  1
  Pr  Pr13  1  0.320485  0.980199  0.430255  1
  Pr  Pr14  1  0.179851  0.967687  0.931379  1
  Pr  Pr15  1  0.320485  0.519801  0.430255  1
  Pr  Pr16  1  0.824591  0.020728  0.063540  1
  Pr  Pr17  1  0.680481  0.457005  0.564086  1
  Pr  Pr18  1  0.824591  0.479272  0.063540  1
  Pr  Pr19  1  0.179851  0.532313  0.931379  1
  Co  Co20  1  0.421947  0.250000  0.488803  1
  Co  Co21  1  0.073533  0.250000  0.990047  1
  Co  Co22  1  0.920741  0.750000  0.015926  1
  Si  Si23  1  0.558190  0.750000  0.512575  1
  Sn  Sn24  1  0.569721  0.493073  0.825808  1
  Sn  Sn25  1  0.436221  0.503662  0.173063  1
  Sn  Sn26  1  0.066625  0.504983  0.671289  1
  Sn  Sn27  1  0.436221  0.996338  0.173063  1
  Sn  Sn28  1  0.931603  0.494457  0.330075  1
  Sn  Sn29  1  0.569721  0.006927  0.825808  1
  Sn  Sn30  1  0.931603  0.005543  0.330075  1
  Sn  Sn31  1  0.066625  0.995017  0.671289  1
