# generated using pymatgen
data_LaNd7(InSi2)4
_symmetry_space_group_name_H-M   'P 1'
_cell_length_a   4.36806500
_cell_length_b   7.57584089
_cell_length_c   14.74123669
_cell_angle_alpha   89.77335774
_cell_angle_beta   90.00000000
_cell_angle_gamma   90.00000000
_symmetry_Int_Tables_number   1
_chemical_formula_structural   LaNd7(InSi2)4
_chemical_formula_sum   'La1 Nd7 In4 Si8'
_cell_volume   487.80973041
_cell_formula_units_Z   1
loop_
 _symmetry_equiv_pos_site_id
 _symmetry_equiv_pos_as_xyz
  1  'x, y, z'
loop_
 _atom_site_type_symbol
 _atom_site_label
 _atom_site_symmetry_multiplicity
 _atom_site_fract_x
 _atom_site_fract_y
 _atom_site_fract_z
 _atom_site_occupancy
  La  La0  1  0.500000  0.886679  0.782979  1
  Nd  Nd1  1  0.500000  0.753115  0.036375  1
  Nd  Nd2  1  0.500000  0.248068  0.964884  1
  Nd  Nd3  1  0.500000  0.252334  0.464248  1
  Nd  Nd4  1  0.500000  0.746348  0.534979  1
  Nd  Nd5  1  0.500000  0.613026  0.283408  1
  Nd  Nd6  1  0.500000  0.387084  0.716220  1
  Nd  Nd7  1  0.500000  0.113010  0.216773  1
  In  In8  1  0.000000  0.937538  0.377260  1
  In  In9  1  0.000000  0.064863  0.621343  1
  In  In10  1  0.000000  0.437134  0.122916  1
  In  In11  1  0.000000  0.559930  0.877881  1
  Si  Si12  1  0.000000  0.553780  0.423400  1
  Si  Si13  1  0.000000  0.444363  0.575787  1
  Si  Si14  1  0.000000  0.055241  0.076919  1
  Si  Si15  1  0.000000  0.947685  0.924947  1
  Si  Si16  1  0.000000  0.818396  0.184711  1
  Si  Si17  1  0.000000  0.184041  0.816314  1
  Si  Si18  1  0.000000  0.318754  0.315300  1
  Si  Si19  1  0.000000  0.678608  0.683355  1
