# generated using pymatgen
data_Zr4CoRe4Os3
_symmetry_space_group_name_H-M   'P 1'
_cell_length_a   5.17782343
_cell_length_b   5.17632886
_cell_length_c   8.70146800
_cell_angle_alpha   90.00000000
_cell_angle_beta   90.00000000
_cell_angle_gamma   60.84390273
_symmetry_Int_Tables_number   1
_chemical_formula_structural   Zr4CoRe4Os3
_chemical_formula_sum   'Zr4 Co1 Re4 Os3'
_cell_volume   203.66805534
_cell_formula_units_Z   1
loop_
 _symmetry_equiv_pos_site_id
 _symmetry_equiv_pos_as_xyz
  1  'x, y, z'
loop_
 _atom_site_type_symbol
 _atom_site_label
 _atom_site_symmetry_multiplicity
 _atom_site_fract_x
 _atom_site_fract_y
 _atom_site_fract_z
 _atom_site_occupancy
  Zr  Zr0  1  0.331952  0.333614  0.565935  1
  Zr  Zr1  1  0.661701  0.668204  0.439834  1
  Zr  Zr2  1  0.661701  0.668204  0.060166  1
  Zr  Zr3  1  0.331952  0.333614  0.934065  1
  Co  Co4  1  0.344935  0.838621  0.750000  1
  Re  Re5  1  0.831541  0.830900  0.750000  1
  Re  Re6  1  0.169360  0.657601  0.250000  1
  Re  Re7  1  0.658980  0.169245  0.250000  1
  Re  Re8  1  0.168565  0.172024  0.250000  1
  Os  Os9  1  0.004080  0.989122  0.507254  1
  Os  Os10  1  0.004080  0.989122  0.992746  1
  Os  Os11  1  0.831152  0.349728  0.750000  1
