# generated using pymatgen
data_Nd4Ho11Er(CdIr)4
_symmetry_space_group_name_H-M   'P 1'
_cell_length_a   9.68027670
_cell_length_b   9.68199940
_cell_length_c   9.68199801
_cell_angle_alpha   59.90032858
_cell_angle_beta   59.90536618
_cell_angle_gamma   59.90537116
_symmetry_Int_Tables_number   1
_chemical_formula_structural   Nd4Ho11Er(CdIr)4
_chemical_formula_sum   'Nd4 Ho11 Er1 Cd4 Ir4'
_cell_volume   640.25483547
_cell_formula_units_Z   1
loop_
 _symmetry_equiv_pos_site_id
 _symmetry_equiv_pos_as_xyz
  1  'x, y, z'
loop_
 _atom_site_type_symbol
 _atom_site_label
 _atom_site_symmetry_multiplicity
 _atom_site_fract_x
 _atom_site_fract_y
 _atom_site_fract_z
 _atom_site_occupancy
  Nd  Nd0  1  0.561987  0.938094  0.561954  1
  Nd  Nd1  1  0.937901  0.562065  0.937829  1
  Nd  Nd2  1  0.561987  0.561954  0.938094  1
  Nd  Nd3  1  0.937901  0.937829  0.562065  1
  Ho  Ho4  1  0.347193  0.349692  0.955998  1
  Ho  Ho5  1  0.347193  0.955998  0.349692  1
  Ho  Ho6  1  0.955986  0.347155  0.347155  1
  Ho  Ho7  1  0.812931  0.187019  0.187019  1
  Ho  Ho8  1  0.186935  0.813113  0.813113  1
  Ho  Ho9  1  0.188947  0.811024  0.188885  1
  Ho  Ho10  1  0.811211  0.188804  0.811231  1
  Ho  Ho11  1  0.188947  0.188885  0.811024  1
  Ho  Ho12  1  0.811211  0.811231  0.188804  1
  Ho  Ho13  1  0.944921  0.555106  0.555106  1
  Ho  Ho14  1  0.555287  0.944628  0.944628  1
  Er  Er15  1  0.349453  0.347000  0.347000  1
  Cd  Cd16  1  0.582574  0.578758  0.578758  1
  Cd  Cd17  1  0.578488  0.582547  0.260066  1
  Cd  Cd18  1  0.578488  0.260066  0.582547  1
  Cd  Cd19  1  0.259979  0.578568  0.578568  1
  Ir  Ir20  1  0.145309  0.139488  0.139488  1
  Ir  Ir21  1  0.139883  0.145683  0.575367  1
  Ir  Ir22  1  0.139883  0.575367  0.145683  1
  Ir  Ir23  1  0.575402  0.139925  0.139925  1
