# generated using pymatgen
data_Dy5(Tl2Ir)2
_symmetry_space_group_name_H-M   'P 1'
_cell_length_a   3.66625200
_cell_length_b   8.11767500
_cell_length_c   18.47281600
_cell_angle_alpha   90.00000000
_cell_angle_beta   90.00000000
_cell_angle_gamma   90.00000000
_symmetry_Int_Tables_number   1
_chemical_formula_structural   Dy5(Tl2Ir)2
_chemical_formula_sum   'Dy10 Tl8 Ir4'
_cell_volume   549.77764573
_cell_formula_units_Z   2
loop_
 _symmetry_equiv_pos_site_id
 _symmetry_equiv_pos_as_xyz
  1  'x, y, z'
loop_
 _atom_site_type_symbol
 _atom_site_label
 _atom_site_symmetry_multiplicity
 _atom_site_fract_x
 _atom_site_fract_y
 _atom_site_fract_z
 _atom_site_occupancy
  Dy  Dy0  1  0.000000  0.109885  0.407580  1
  Dy  Dy1  1  0.000000  0.890115  0.592420  1
  Dy  Dy2  1  0.000000  0.390115  0.907580  1
  Dy  Dy3  1  0.000000  0.609885  0.092420  1
  Dy  Dy4  1  0.000000  0.243243  0.220358  1
  Dy  Dy5  1  0.000000  0.756757  0.779642  1
  Dy  Dy6  1  0.000000  0.256757  0.720358  1
  Dy  Dy7  1  0.000000  0.743243  0.279642  1
  Dy  Dy8  1  0.000000  0.000000  0.000000  1
  Dy  Dy9  1  0.000000  0.500000  0.500000  1
  Tl  Tl10  1  0.500000  0.422438  0.352696  1
  Tl  Tl11  1  0.500000  0.577562  0.647304  1
  Tl  Tl12  1  0.500000  0.077562  0.852696  1
  Tl  Tl13  1  0.500000  0.922438  0.147304  1
  Tl  Tl14  1  0.500000  0.292568  0.062888  1
  Tl  Tl15  1  0.500000  0.707432  0.937112  1
  Tl  Tl16  1  0.500000  0.207432  0.562888  1
  Tl  Tl17  1  0.500000  0.792568  0.437112  1
  Ir  Ir18  1  0.500000  0.020091  0.302052  1
  Ir  Ir19  1  0.500000  0.979909  0.697948  1
  Ir  Ir20  1  0.500000  0.479909  0.802052  1
  Ir  Ir21  1  0.500000  0.520091  0.197948  1
