# generated using pymatgen
data_Tm4Ga4PtRh3
_symmetry_space_group_name_H-M   'P 1'
_cell_length_a   4.31578700
_cell_length_b   6.76909311
_cell_length_c   7.72684779
_cell_angle_alpha   90.12691210
_cell_angle_beta   90.00000000
_cell_angle_gamma   90.00000000
_symmetry_Int_Tables_number   1
_chemical_formula_structural   Tm4Ga4PtRh3
_chemical_formula_sum   'Tm4 Ga4 Pt1 Rh3'
_cell_volume   225.73129966
_cell_formula_units_Z   1
loop_
 _symmetry_equiv_pos_site_id
 _symmetry_equiv_pos_as_xyz
  1  'x, y, z'
loop_
 _atom_site_type_symbol
 _atom_site_label
 _atom_site_symmetry_multiplicity
 _atom_site_fract_x
 _atom_site_fract_y
 _atom_site_fract_z
 _atom_site_occupancy
  Tm  Tm0  1  0.250000  0.974053  0.310357  1
  Tm  Tm1  1  0.250000  0.476273  0.187581  1
  Tm  Tm2  1  0.750000  0.022109  0.692551  1
  Tm  Tm3  1  0.750000  0.523297  0.810598  1
  Ga  Ga4  1  0.250000  0.345115  0.573643  1
  Ga  Ga5  1  0.250000  0.842172  0.929488  1
  Ga  Ga6  1  0.750000  0.661763  0.428839  1
  Ga  Ga7  1  0.750000  0.154935  0.068249  1
  Pt  Pt8  1  0.750000  0.267003  0.392159  1
  Rh  Rh9  1  0.250000  0.233578  0.892889  1
  Rh  Rh10  1  0.250000  0.734967  0.606732  1
  Rh  Rh11  1  0.750000  0.764735  0.106914  1
