# generated using pymatgen
data_TmMg2ZrNi8
_symmetry_space_group_name_H-M   'P 1'
_cell_length_a   4.88472100
_cell_length_b   4.88472020
_cell_length_c   8.48793263
_cell_angle_alpha   73.27699767
_cell_angle_beta   90.00000000
_cell_angle_gamma   119.99999866
_symmetry_Int_Tables_number   1
_chemical_formula_structural   TmMg2ZrNi8
_chemical_formula_sum   'Tm1 Mg2 Zr1 Ni8'
_cell_volume   165.42849352
_cell_formula_units_Z   1
loop_
 _symmetry_equiv_pos_site_id
 _symmetry_equiv_pos_as_xyz
  1  'x, y, z'
loop_
 _atom_site_type_symbol
 _atom_site_label
 _atom_site_symmetry_multiplicity
 _atom_site_fract_x
 _atom_site_fract_y
 _atom_site_fract_z
 _atom_site_occupancy
  Tm  Tm0  1  0.999926  0.999854  0.000220  1
  Mg  Mg1  1  0.874684  0.749371  0.375945  1
  Mg  Mg2  1  0.375670  0.751341  0.872989  1
  Zr  Zr3  1  0.499904  0.999806  0.500290  1
  Ni  Ni4  1  0.435704  0.372568  0.191727  1
  Ni  Ni5  1  0.936498  0.379124  0.684379  1
  Ni  Ni6  1  0.435704  0.871409  0.191727  1
  Ni  Ni7  1  0.936498  0.872995  0.684379  1
  Ni  Ni8  1  0.187850  0.375701  0.436449  1
  Ni  Ni9  1  0.688071  0.376141  0.935788  1
  Ni  Ni10  1  0.936863  0.372568  0.191727  1
  Ni  Ni11  1  0.442625  0.379124  0.684379  1
