# generated using pymatgen
data_Ho4CdCu
_symmetry_space_group_name_H-M   'P 1'
_cell_length_a   9.59109755
_cell_length_b   9.59109645
_cell_length_c   9.59109700
_cell_angle_alpha   59.99999464
_cell_angle_beta   59.99999845
_cell_angle_gamma   59.99999715
_symmetry_Int_Tables_number   1
_chemical_formula_structural   Ho4CdCu
_chemical_formula_sum   'Ho16 Cd4 Cu4'
_cell_volume   623.86384828
_cell_formula_units_Z   4
loop_
 _symmetry_equiv_pos_site_id
 _symmetry_equiv_pos_as_xyz
  1  'x, y, z'
loop_
 _atom_site_type_symbol
 _atom_site_label
 _atom_site_symmetry_multiplicity
 _atom_site_fract_x
 _atom_site_fract_y
 _atom_site_fract_z
 _atom_site_occupancy
  Ho  Ho0  1  0.934427  0.934427  0.565573  1
  Ho  Ho1  1  0.565573  0.565573  0.934427  1
  Ho  Ho2  1  0.687893  0.687893  0.312107  1
  Ho  Ho3  1  0.147660  0.557019  0.147660  1
  Ho  Ho4  1  0.687893  0.312107  0.687893  1
  Ho  Ho5  1  0.147660  0.147660  0.147660  1
  Ho  Ho6  1  0.557019  0.147660  0.147660  1
  Ho  Ho7  1  0.687893  0.312107  0.312107  1
  Ho  Ho8  1  0.147660  0.147660  0.557019  1
  Ho  Ho9  1  0.312107  0.687893  0.312107  1
  Ho  Ho10  1  0.312107  0.687893  0.687893  1
  Ho  Ho11  1  0.934427  0.565573  0.565573  1
  Ho  Ho12  1  0.934427  0.565573  0.934427  1
  Ho  Ho13  1  0.565573  0.934427  0.565573  1
  Ho  Ho14  1  0.565573  0.934427  0.934427  1
  Ho  Ho15  1  0.312107  0.312107  0.687893  1
  Cd  Cd16  1  0.918613  0.918613  0.244160  1
  Cd  Cd17  1  0.244160  0.918613  0.918613  1
  Cd  Cd18  1  0.918613  0.918613  0.918613  1
  Cd  Cd19  1  0.918613  0.244160  0.918613  1
  Cu  Cu20  1  0.356017  0.356017  0.931949  1
  Cu  Cu21  1  0.356017  0.931949  0.356017  1
  Cu  Cu22  1  0.931949  0.356017  0.356017  1
  Cu  Cu23  1  0.356017  0.356017  0.356017  1
