# generated using pymatgen
data_La6N3ClO2
_symmetry_space_group_name_H-M   'P 1'
_cell_length_a   3.71122600
_cell_length_b   3.71122550
_cell_length_c   19.28684400
_cell_angle_alpha   90.00000000
_cell_angle_beta   90.00000000
_cell_angle_gamma   119.99998659
_symmetry_Int_Tables_number   1
_chemical_formula_structural   La6N3ClO2
_chemical_formula_sum   'La6 N3 Cl1 O2'
_cell_volume   230.05231308
_cell_formula_units_Z   1
loop_
 _symmetry_equiv_pos_site_id
 _symmetry_equiv_pos_as_xyz
  1  'x, y, z'
loop_
 _atom_site_type_symbol
 _atom_site_label
 _atom_site_symmetry_multiplicity
 _atom_site_fract_x
 _atom_site_fract_y
 _atom_site_fract_z
 _atom_site_occupancy
  La  La0  1  0.666667  0.333333  0.113884  1
  La  La1  1  0.333333  0.666667  0.423825  1
  La  La2  1  0.000000  0.000000  0.737906  1
  La  La3  1  0.000000  0.000000  0.262094  1
  La  La4  1  0.666667  0.333333  0.576175  1
  La  La5  1  0.333333  0.666667  0.886116  1
  N  N6  1  0.333333  0.666667  0.186618  1
  N  N7  1  0.000000  0.000000  0.500000  1
  N  N8  1  0.666667  0.333333  0.813382  1
  Cl  Cl9  1  0.000000  0.000000  0.000000  1
  O  O10  1  0.666667  0.333333  0.343537  1
  O  O11  1  0.333333  0.666667  0.656463  1
