# generated using pymatgen
data_Er10OsRh3
_symmetry_space_group_name_H-M   'P 1'
_cell_length_a   6.38775610
_cell_length_b   7.20741410
_cell_length_c   8.46809286
_cell_angle_alpha   96.63131761
_cell_angle_beta   112.39258652
_cell_angle_gamma   90.05846698
_symmetry_Int_Tables_number   1
_chemical_formula_structural   Er10OsRh3
_chemical_formula_sum   'Er10 Os1 Rh3'
_cell_volume   357.62476210
_cell_formula_units_Z   1
loop_
 _symmetry_equiv_pos_site_id
 _symmetry_equiv_pos_as_xyz
  1  'x, y, z'
loop_
 _atom_site_type_symbol
 _atom_site_label
 _atom_site_symmetry_multiplicity
 _atom_site_fract_x
 _atom_site_fract_y
 _atom_site_fract_z
 _atom_site_occupancy
  Er  Er0  1  0.788950  0.583193  0.811394  1
  Er  Er1  1  0.972975  0.917507  0.180687  1
  Er  Er2  1  0.209026  0.416661  0.187128  1
  Er  Er3  1  0.021338  0.081671  0.812010  1
  Er  Er4  1  0.213806  0.687339  0.563639  1
  Er  Er5  1  0.645037  0.815446  0.441190  1
  Er  Er6  1  0.790987  0.314729  0.437675  1
  Er  Er7  1  0.353915  0.183256  0.563813  1
  Er  Er8  1  0.424133  0.751289  0.999263  1
  Er  Er9  1  0.576855  0.248386  0.999286  1
  Os  Os10  1  0.605219  0.924864  0.783335  1
  Rh  Rh11  1  0.822656  0.574617  0.222096  1
  Rh  Rh12  1  0.398013  0.076496  0.219452  1
  Rh  Rh13  1  0.177089  0.424544  0.779033  1
