# generated using pymatgen
data_La12SiOsI17
_symmetry_space_group_name_H-M   'P 1'
_cell_length_a   10.09897679
_cell_length_b   12.11001855
_cell_length_c   12.17112649
_cell_angle_alpha   73.43286024
_cell_angle_beta   74.60279073
_cell_angle_gamma   66.15877629
_symmetry_Int_Tables_number   1
_chemical_formula_structural   La12SiOsI17
_chemical_formula_sum   'La12 Si1 Os1 I17'
_cell_volume   1285.66813458
_cell_formula_units_Z   1
loop_
 _symmetry_equiv_pos_site_id
 _symmetry_equiv_pos_as_xyz
  1  'x, y, z'
loop_
 _atom_site_type_symbol
 _atom_site_label
 _atom_site_symmetry_multiplicity
 _atom_site_fract_x
 _atom_site_fract_y
 _atom_site_fract_z
 _atom_site_occupancy
  La  La0  1  0.454394  0.481276  0.327015  1
  La  La1  1  0.560179  0.669165  0.001020  1
  La  La2  1  0.283325  0.995063  0.093926  1
  La  La3  1  0.858237  0.286129  0.852023  1
  La  La4  1  0.404823  0.238783  0.722113  1
  La  La5  1  0.716253  0.000388  0.907825  1
  La  La6  1  0.547005  0.520845  0.672293  1
  La  La7  1  0.435813  0.331151  0.000908  1
  La  La8  1  0.608145  0.763119  0.278827  1
  La  La9  1  0.827296  0.186877  0.578246  1
  La  La10  1  0.174293  0.812461  0.422271  1
  La  La11  1  0.130796  0.713525  0.143345  1
  Si  Si12  1  0.367634  0.739261  0.212618  1
  Os  Os13  1  0.632146  0.260956  0.788951  1
  I  I14  1  0.057896  0.104638  0.318074  1
  I  I15  1  0.463175  0.940659  0.830558  1
  I  I16  1  0.426963  0.824396  0.531735  1
  I  I17  1  0.572979  0.177071  0.465627  1
  I  I18  1  0.853513  0.692024  0.045926  1
  I  I19  1  0.212768  0.419405  0.249743  1
  I  I20  1  0.685760  0.369040  0.107078  1
  I  I21  1  0.534272  0.055708  0.173029  1
  I  I22  1  0.744295  0.473899  0.411470  1
  I  I23  1  0.888396  0.786079  0.370210  1
  I  I24  1  0.944978  0.892366  0.680390  1
  I  I25  1  0.145418  0.303712  0.954420  1
  I  I26  1  0.311629  0.635417  0.894335  1
  I  I27  1  0.001126  0.999762  0.000977  1
  I  I28  1  0.114341  0.214312  0.629852  1
  I  I29  1  0.787574  0.583179  0.751321  1
  I  I30  1  0.254580  0.529335  0.583873  1
