# generated using pymatgen
data_LiMg2AlB28
_symmetry_space_group_name_H-M   'P 1'
_cell_length_a   7.17020630
_cell_length_b   7.17020700
_cell_length_c   7.19656911
_cell_angle_alpha   131.58673857
_cell_angle_beta   111.40846061
_cell_angle_gamma   88.13469479
_symmetry_Int_Tables_number   1
_chemical_formula_structural   LiMg2AlB28
_chemical_formula_sum   'Li1 Mg2 Al1 B28'
_cell_volume   245.67640925
_cell_formula_units_Z   1
loop_
 _symmetry_equiv_pos_site_id
 _symmetry_equiv_pos_as_xyz
  1  'x, y, z'
loop_
 _atom_site_type_symbol
 _atom_site_label
 _atom_site_symmetry_multiplicity
 _atom_site_fract_x
 _atom_site_fract_y
 _atom_site_fract_z
 _atom_site_occupancy
  Li  Li0  1  0.000000  0.500000  0.000000  1
  Mg  Mg1  1  0.611130  0.250136  0.361265  1
  Mg  Mg2  1  0.388870  0.749864  0.638735  1
  Al  Al3  1  0.000000  0.000000  0.500000  1
  B  B4  1  0.639762  0.664696  0.971716  1
  B  B5  1  0.360238  0.335304  0.028284  1
  B  B6  1  0.192981  0.168046  0.028284  1
  B  B7  1  0.807019  0.831954  0.971716  1
  B  B8  1  0.769010  0.147773  0.617720  1
  B  B9  1  0.230990  0.852227  0.382280  1
  B  B10  1  0.030054  0.651290  0.382280  1
  B  B11  1  0.969946  0.348710  0.617720  1
  B  B12  1  0.911438  0.087449  0.826780  1
  B  B13  1  0.088562  0.912551  0.173220  1
  B  B14  1  0.760670  0.584658  0.173220  1
  B  B15  1  0.239330  0.415342  0.826780  1
  B  B16  1  0.399936  0.405143  0.679837  1
  B  B17  1  0.600423  0.280023  0.006178  1
  B  B18  1  0.226154  0.905755  0.006178  1
  B  B19  1  0.774694  0.779903  0.679837  1
  B  B20  1  0.600064  0.594857  0.320163  1
  B  B21  1  0.399577  0.719977  0.993822  1
  B  B22  1  0.773846  0.094245  0.993822  1
  B  B23  1  0.225306  0.220097  0.320163  1
  B  B24  1  0.034896  0.830975  0.707903  1
  B  B25  1  0.966051  0.669233  0.796797  1
  B  B26  1  0.627564  0.330746  0.796797  1
  B  B27  1  0.376927  0.173007  0.707903  1
  B  B28  1  0.965104  0.169025  0.292097  1
  B  B29  1  0.033949  0.330767  0.203203  1
  B  B30  1  0.372436  0.669254  0.203203  1
  B  B31  1  0.623073  0.826993  0.292097  1
