# generated using pymatgen
data_Ta8Mo4Os3W
_symmetry_space_group_name_H-M   'P 1'
_cell_length_a   6.45317000
_cell_length_b   4.54214000
_cell_length_c   9.07944800
_cell_angle_alpha   90.00000000
_cell_angle_beta   90.00025051
_cell_angle_gamma   90.00000000
_symmetry_Int_Tables_number   1
_chemical_formula_structural   Ta8Mo4Os3W
_chemical_formula_sum   'Ta8 Mo4 Os3 W1'
_cell_volume   266.12953060
_cell_formula_units_Z   1
loop_
 _symmetry_equiv_pos_site_id
 _symmetry_equiv_pos_as_xyz
  1  'x, y, z'
loop_
 _atom_site_type_symbol
 _atom_site_label
 _atom_site_symmetry_multiplicity
 _atom_site_fract_x
 _atom_site_fract_y
 _atom_site_fract_z
 _atom_site_occupancy
  Ta  Ta0  1  0.999495  0.750000  0.124999  1
  Ta  Ta1  1  0.500466  0.750000  0.125002  1
  Ta  Ta2  1  0.999529  0.250000  0.375596  1
  Ta  Ta3  1  0.500446  0.250000  0.375595  1
  Ta  Ta4  1  0.500456  0.750000  0.624999  1
  Ta  Ta5  1  0.999563  0.750000  0.625002  1
  Ta  Ta6  1  0.500472  0.250000  0.874398  1
  Ta  Ta7  1  0.999562  0.250000  0.874397  1
  Mo  Mo8  1  0.749986  0.250000  0.125002  1
  Mo  Mo9  1  0.249986  0.750000  0.376535  1
  Mo  Mo10  1  0.750017  0.250000  0.624998  1
  Mo  Mo11  1  0.250016  0.750000  0.873471  1
  Os  Os12  1  0.749982  0.750000  0.376404  1
  Os  Os13  1  0.250018  0.250000  0.625002  1
  Os  Os14  1  0.750018  0.750000  0.873604  1
  W  W15  1  0.249986  0.250000  0.124995  1
