# generated using pymatgen
data_Ac(YbBi)3
_symmetry_space_group_name_H-M   'P 1'
_cell_length_a   8.58821606
_cell_length_b   8.51947634
_cell_length_c   8.51947570
_cell_angle_alpha   109.30719338
_cell_angle_beta   109.63474767
_cell_angle_gamma   109.63475117
_symmetry_Int_Tables_number   1
_chemical_formula_structural   Ac(YbBi)3
_chemical_formula_sum   'Ac2 Yb6 Bi6'
_cell_volume   478.87967565
_cell_formula_units_Z   2
loop_
 _symmetry_equiv_pos_site_id
 _symmetry_equiv_pos_as_xyz
  1  'x, y, z'
loop_
 _atom_site_type_symbol
 _atom_site_label
 _atom_site_symmetry_multiplicity
 _atom_site_fract_x
 _atom_site_fract_y
 _atom_site_fract_z
 _atom_site_occupancy
  Ac  Ac0  1  0.141445  0.500000  0.000000  1
  Ac  Ac1  1  0.641445  0.500000  0.000000  1
  Yb  Yb2  1  0.498348  0.993195  0.641965  1
  Yb  Yb3  1  0.356383  0.351230  0.358035  1
  Yb  Yb4  1  0.505152  0.006805  0.148770  1
  Yb  Yb5  1  0.005152  0.648770  0.506805  1
  Yb  Yb6  1  0.856383  0.858035  0.851230  1
  Yb  Yb7  1  0.998348  0.141965  0.493195  1
  Bi  Bi8  1  0.373286  0.628950  0.742235  1
  Bi  Bi9  1  0.873286  0.242235  0.128950  1
  Bi  Bi10  1  0.631051  0.757765  0.386715  1
  Bi  Bi11  1  0.131051  0.886715  0.257765  1
  Bi  Bi12  1  0.244336  0.113285  0.871050  1
  Bi  Bi13  1  0.744336  0.371050  0.613285  1
