# generated using pymatgen
data_Sc7MnCo7Si14Mo
_symmetry_space_group_name_H-M   'P 1'
_cell_length_a   5.03005194
_cell_length_b   9.46331486
_cell_length_c   9.45212722
_cell_angle_alpha   85.80085494
_cell_angle_beta   74.66606628
_cell_angle_gamma   74.60060161
_symmetry_Int_Tables_number   1
_chemical_formula_structural   Sc7MnCo7Si14Mo
_chemical_formula_sum   'Sc7 Mn1 Co7 Si14 Mo1'
_cell_volume   418.33284355
_cell_formula_units_Z   1
loop_
 _symmetry_equiv_pos_site_id
 _symmetry_equiv_pos_as_xyz
  1  'x, y, z'
loop_
 _atom_site_type_symbol
 _atom_site_label
 _atom_site_symmetry_multiplicity
 _atom_site_fract_x
 _atom_site_fract_y
 _atom_site_fract_z
 _atom_site_occupancy
  Sc  Sc0  1  0.805269  0.194654  0.192573  1
  Sc  Sc1  1  0.998756  0.199762  0.803614  1
  Sc  Sc2  1  0.999773  0.802523  0.198134  1
  Sc  Sc3  1  0.361404  0.997188  0.275935  1
  Sc  Sc4  1  0.639196  0.998279  0.724297  1
  Sc  Sc5  1  0.640072  0.724249  0.998410  1
  Sc  Sc6  1  0.363820  0.275504  0.996658  1
  Mn  Mn7  1  0.101090  0.796612  0.501471  1
  Co  Co8  1  0.397484  0.500428  0.203109  1
  Co  Co9  1  0.600655  0.502549  0.794157  1
  Co  Co10  1  0.102154  0.500798  0.796604  1
  Co  Co11  1  0.602559  0.795244  0.502924  1
  Co  Co12  1  0.898360  0.502041  0.205335  1
  Co  Co13  1  0.394849  0.204026  0.501662  1
  Co  Co14  1  0.898595  0.205133  0.500667  1
  Si  Si15  1  0.398835  0.593467  0.596786  1
  Si  Si16  1  0.592851  0.407950  0.407976  1
  Si  Si17  1  0.997818  0.408812  0.592214  1
  Si  Si18  1  0.006329  0.587829  0.408260  1
  Si  Si19  1  0.253557  0.993586  0.993989  1
  Si  Si20  1  0.759236  0.994151  0.993254  1
  Si  Si21  1  0.200774  0.298623  0.298745  1
  Si  Si22  1  0.799882  0.699562  0.704526  1
  Si  Si23  1  0.501140  0.697675  0.299426  1
  Si  Si24  1  0.500860  0.302221  0.696674  1
  Si  Si25  1  0.209269  0.998755  0.586034  1
  Si  Si26  1  0.787292  0.003441  0.420301  1
  Si  Si27  1  0.789675  0.422330  0.000310  1
  Si  Si28  1  0.211142  0.583755  0.995888  1
  Mo  Mo29  1  0.187306  0.808852  0.810067  1
