# generated using pymatgen
data_Zr10ZnSiBiSb5
_symmetry_space_group_name_H-M   'P 1'
_cell_length_a   8.69588903
_cell_length_b   8.69815543
_cell_length_c   5.88921202
_cell_angle_alpha   90.00492436
_cell_angle_beta   89.99015530
_cell_angle_gamma   119.99137728
_symmetry_Int_Tables_number   1
_chemical_formula_structural   Zr10ZnSiBiSb5
_chemical_formula_sum   'Zr10 Zn1 Si1 Bi1 Sb5'
_cell_volume   385.80397414
_cell_formula_units_Z   1
loop_
 _symmetry_equiv_pos_site_id
 _symmetry_equiv_pos_as_xyz
  1  'x, y, z'
loop_
 _atom_site_type_symbol
 _atom_site_label
 _atom_site_symmetry_multiplicity
 _atom_site_fract_x
 _atom_site_fract_y
 _atom_site_fract_z
 _atom_site_occupancy
  Zr  Zr0  1  0.260180  0.000000  0.255789  1
  Zr  Zr1  1  0.263709  0.264091  0.744380  1
  Zr  Zr2  1  0.999618  0.735909  0.744380  1
  Zr  Zr3  1  0.004804  0.267097  0.255774  1
  Zr  Zr4  1  0.737707  0.732903  0.255774  1
  Zr  Zr5  1  0.738265  0.000000  0.744455  1
  Zr  Zr6  1  0.330603  0.663431  0.998696  1
  Zr  Zr7  1  0.667108  0.336401  0.501313  1
  Zr  Zr8  1  0.667173  0.336569  0.998696  1
  Zr  Zr9  1  0.330706  0.663599  0.501313  1
  Zn  Zn10  1  0.999675  0.000000  0.999990  1
  Si  Si11  1  0.999588  0.000000  0.499869  1
  Bi  Bi12  1  0.610346  0.000000  0.246464  1
  Sb  Sb13  1  0.608905  0.609400  0.753222  1
  Sb  Sb14  1  0.999505  0.390600  0.753222  1
  Sb  Sb15  1  0.000187  0.608856  0.246825  1
  Sb  Sb16  1  0.391331  0.391144  0.246825  1
  Sb  Sb17  1  0.390589  0.000000  0.753013  1
