# generated using pymatgen
data_Dy3Tm5In2IrRu
_symmetry_space_group_name_H-M   'P 1'
_cell_length_a   9.57831623
_cell_length_b   9.57831776
_cell_length_c   9.58288600
_cell_angle_alpha   59.98421493
_cell_angle_beta   59.98420964
_cell_angle_gamma   59.96949689
_symmetry_Int_Tables_number   1
_chemical_formula_structural   Dy3Tm5In2IrRu
_chemical_formula_sum   'Dy6 Tm10 In4 Ir2 Ru2'
_cell_volume   621.37802337
_cell_formula_units_Z   2
loop_
 _symmetry_equiv_pos_site_id
 _symmetry_equiv_pos_as_xyz
  1  'x, y, z'
loop_
 _atom_site_type_symbol
 _atom_site_label
 _atom_site_symmetry_multiplicity
 _atom_site_fract_x
 _atom_site_fract_y
 _atom_site_fract_z
 _atom_site_occupancy
  Dy  Dy0  1  0.190506  0.807852  0.810072  1
  Dy  Dy1  1  0.807852  0.190506  0.191570  1
  Dy  Dy2  1  0.807852  0.190506  0.810072  1
  Dy  Dy3  1  0.190506  0.807852  0.191570  1
  Dy  Dy4  1  0.810369  0.810369  0.189631  1
  Dy  Dy5  1  0.192581  0.192581  0.807419  1
  Tm  Tm6  1  0.598182  0.598182  0.597985  1
  Tm  Tm7  1  0.598182  0.598182  0.205650  1
  Tm  Tm8  1  0.597991  0.206710  0.597650  1
  Tm  Tm9  1  0.206710  0.597991  0.597650  1
  Tm  Tm10  1  0.059871  0.440107  0.442433  1
  Tm  Tm11  1  0.440107  0.059871  0.057588  1
  Tm  Tm12  1  0.440107  0.059871  0.442433  1
  Tm  Tm13  1  0.059871  0.440107  0.057588  1
  Tm  Tm14  1  0.440591  0.440591  0.059409  1
  Tm  Tm15  1  0.057369  0.057369  0.442631  1
  In  In16  1  0.831859  0.831859  0.832481  1
  In  In17  1  0.831859  0.831859  0.503803  1
  In  In18  1  0.832502  0.502055  0.832722  1
  In  In19  1  0.502055  0.832502  0.832722  1
  Ir  Ir20  1  0.391220  0.829860  0.389460  1
  Ir  Ir21  1  0.829860  0.391220  0.389460  1
  Ru  Ru22  1  0.390999  0.390999  0.387683  1
  Ru  Ru23  1  0.390999  0.390999  0.830321  1
