# generated using pymatgen
data_Tm20ZnBi11
_symmetry_space_group_name_H-M   'P 1'
_cell_length_a   8.12484825
_cell_length_b   9.39442100
_cell_length_c   11.87283323
_cell_angle_alpha   90.00000000
_cell_angle_beta   89.68725512
_cell_angle_gamma   90.00000000
_symmetry_Int_Tables_number   1
_chemical_formula_structural   Tm20ZnBi11
_chemical_formula_sum   'Tm20 Zn1 Bi11'
_cell_volume   906.21902370
_cell_formula_units_Z   1
loop_
 _symmetry_equiv_pos_site_id
 _symmetry_equiv_pos_as_xyz
  1  'x, y, z'
loop_
 _atom_site_type_symbol
 _atom_site_label
 _atom_site_symmetry_multiplicity
 _atom_site_fract_x
 _atom_site_fract_y
 _atom_site_fract_z
 _atom_site_occupancy
  Tm  Tm0  1  0.036648  0.250000  0.509053  1
  Tm  Tm1  1  0.979328  0.750000  0.489646  1
  Tm  Tm2  1  0.475127  0.750000  0.010247  1
  Tm  Tm3  1  0.525453  0.250000  0.989363  1
  Tm  Tm4  1  0.357196  0.250000  0.294245  1
  Tm  Tm5  1  0.646335  0.750000  0.716278  1
  Tm  Tm6  1  0.148831  0.750000  0.782866  1
  Tm  Tm7  1  0.854045  0.250000  0.216183  1
  Tm  Tm8  1  0.190931  0.250000  0.778693  1
  Tm  Tm9  1  0.810265  0.750000  0.217506  1
  Tm  Tm10  1  0.313031  0.750000  0.281301  1
  Tm  Tm11  1  0.675500  0.250000  0.710781  1
  Tm  Tm12  1  0.193790  0.065817  0.060996  1
  Tm  Tm13  1  0.806170  0.934545  0.940278  1
  Tm  Tm14  1  0.308804  0.951265  0.559231  1
  Tm  Tm15  1  0.806170  0.565455  0.940278  1
  Tm  Tm16  1  0.684233  0.071932  0.444985  1
  Tm  Tm17  1  0.193790  0.434183  0.060996  1
  Tm  Tm18  1  0.684233  0.428068  0.444985  1
  Tm  Tm19  1  0.308804  0.548735  0.559231  1
  Zn  Zn20  1  0.408544  0.250000  0.540219  1
  Bi  Bi21  1  0.593908  0.750000  0.457099  1
  Bi  Bi22  1  0.094031  0.750000  0.042774  1
  Bi  Bi23  1  0.907143  0.250000  0.955037  1
  Bi  Bi24  1  0.064014  0.002896  0.324298  1
  Bi  Bi25  1  0.934697  0.997118  0.675456  1
  Bi  Bi26  1  0.435062  0.997321  0.824949  1
  Bi  Bi27  1  0.934697  0.502882  0.675456  1
  Bi  Bi28  1  0.565073  0.003813  0.174162  1
  Bi  Bi29  1  0.064014  0.497104  0.324298  1
  Bi  Bi30  1  0.565073  0.496187  0.174162  1
  Bi  Bi31  1  0.435062  0.502679  0.824949  1
