# generated using pymatgen
data_Yb3Th5(HgPt2)4
_symmetry_space_group_name_H-M   'P 1'
_cell_length_a   7.89315119
_cell_length_b   7.89315140
_cell_length_c   7.54501700
_cell_angle_alpha   90.00000000
_cell_angle_beta   90.00000000
_cell_angle_gamma   90.59309052
_symmetry_Int_Tables_number   1
_chemical_formula_structural   Yb3Th5(HgPt2)4
_chemical_formula_sum   'Yb3 Th5 Hg4 Pt8'
_cell_volume   470.04323763
_cell_formula_units_Z   1
loop_
 _symmetry_equiv_pos_site_id
 _symmetry_equiv_pos_as_xyz
  1  'x, y, z'
loop_
 _atom_site_type_symbol
 _atom_site_label
 _atom_site_symmetry_multiplicity
 _atom_site_fract_x
 _atom_site_fract_y
 _atom_site_fract_z
 _atom_site_occupancy
  Yb  Yb0  1  0.664941  0.664941  0.500000  1
  Yb  Yb1  1  0.838703  0.160321  0.000000  1
  Yb  Yb2  1  0.160321  0.838703  0.000000  1
  Th  Th3  1  0.678409  0.678409  0.000000  1
  Th  Th4  1  0.340560  0.340560  0.500000  1
  Th  Th5  1  0.821328  0.174400  0.500000  1
  Th  Th6  1  0.323864  0.323864  0.000000  1
  Th  Th7  1  0.174400  0.821328  0.500000  1
  Hg  Hg8  1  0.502350  0.994042  0.751153  1
  Hg  Hg9  1  0.502350  0.994042  0.248847  1
  Hg  Hg10  1  0.994042  0.502350  0.751153  1
  Hg  Hg11  1  0.994042  0.502350  0.248847  1
  Pt  Pt12  1  0.872730  0.872730  0.733823  1
  Pt  Pt13  1  0.133032  0.133032  0.732701  1
  Pt  Pt14  1  0.628807  0.367776  0.765747  1
  Pt  Pt15  1  0.628807  0.367776  0.234253  1
  Pt  Pt16  1  0.367776  0.628807  0.234253  1
  Pt  Pt17  1  0.133032  0.133032  0.267299  1
  Pt  Pt18  1  0.872730  0.872730  0.266177  1
  Pt  Pt19  1  0.367776  0.628807  0.765747  1
