# generated using pymatgen
data_Np2P2O11
_symmetry_space_group_name_H-M   'P 1'
_cell_length_a   6.94890400
_cell_length_b   8.06046072
_cell_length_c   9.82021749
_cell_angle_alpha   72.18636995
_cell_angle_beta   90.00000000
_cell_angle_gamma   90.00000000
_symmetry_Int_Tables_number   1
_chemical_formula_structural   Np2P2O11
_chemical_formula_sum   'Np4 P4 O22'
_cell_volume   523.67286648
_cell_formula_units_Z   2
loop_
 _symmetry_equiv_pos_site_id
 _symmetry_equiv_pos_as_xyz
  1  'x, y, z'
loop_
 _atom_site_type_symbol
 _atom_site_label
 _atom_site_symmetry_multiplicity
 _atom_site_fract_x
 _atom_site_fract_y
 _atom_site_fract_z
 _atom_site_occupancy
  Np  Np0  1  0.750000  0.810963  0.872568  1
  Np  Np1  1  0.750000  0.631806  0.301017  1
  Np  Np2  1  0.250000  0.368194  0.698983  1
  Np  Np3  1  0.250000  0.189037  0.127432  1
  P  P4  1  0.250000  0.921921  0.891854  1
  P  P5  1  0.750000  0.483622  0.679846  1
  P  P6  1  0.250000  0.516378  0.320154  1
  P  P7  1  0.750000  0.078079  0.108146  1
  O  O8  1  0.750000  0.956722  0.694940  1
  O  O9  1  0.069737  0.820923  0.876984  1
  O  O10  1  0.430263  0.820923  0.876984  1
  O  O11  1  0.750000  0.897574  0.237493  1
  O  O12  1  0.250000  0.969443  0.032230  1
  O  O13  1  0.750000  0.582104  0.791085  1
  O  O14  1  0.250000  0.601488  0.649309  1
  O  O15  1  0.750000  0.615298  0.525472  1
  O  O16  1  0.066977  0.632451  0.300351  1
  O  O17  1  0.433023  0.632451  0.300351  1
  O  O18  1  0.750000  0.662622  0.066197  1
  O  O19  1  0.250000  0.337378  0.933803  1
  O  O20  1  0.566977  0.367549  0.699649  1
  O  O21  1  0.933023  0.367549  0.699649  1
  O  O22  1  0.250000  0.384702  0.474528  1
  O  O23  1  0.750000  0.398512  0.350691  1
  O  O24  1  0.250000  0.417896  0.208915  1
  O  O25  1  0.750000  0.030557  0.967770  1
  O  O26  1  0.250000  0.102426  0.762507  1
  O  O27  1  0.569737  0.179077  0.123016  1
  O  O28  1  0.930263  0.179077  0.123016  1
  O  O29  1  0.250000  0.043278  0.305060  1
