# generated using pymatgen
data_Nd5GaSi2H
_symmetry_space_group_name_H-M   'P 1'
_cell_length_a   8.93164411
_cell_length_b   8.93164447
_cell_length_c   8.93164303
_cell_angle_alpha   127.52363164
_cell_angle_beta   127.52362672
_cell_angle_gamma   77.39800829
_symmetry_Int_Tables_number   1
_chemical_formula_structural   Nd5GaSi2H
_chemical_formula_sum   'Nd10 Ga2 Si4 H2'
_cell_volume   434.75321103
_cell_formula_units_Z   2
loop_
 _symmetry_equiv_pos_site_id
 _symmetry_equiv_pos_as_xyz
  1  'x, y, z'
loop_
 _atom_site_type_symbol
 _atom_site_label
 _atom_site_symmetry_multiplicity
 _atom_site_fract_x
 _atom_site_fract_y
 _atom_site_fract_z
 _atom_site_occupancy
  Nd  Nd0  1  0.500000  0.500000  0.000000  1
  Nd  Nd1  1  0.000000  0.000000  0.000000  1
  Nd  Nd2  1  0.525299  0.025299  0.843726  1
  Nd  Nd3  1  0.181576  0.681576  0.156274  1
  Nd  Nd4  1  0.025299  0.181576  0.500000  1
  Nd  Nd5  1  0.681576  0.525299  0.500000  1
  Nd  Nd6  1  0.474701  0.974701  0.156274  1
  Nd  Nd7  1  0.818424  0.318424  0.843726  1
  Nd  Nd8  1  0.974701  0.818424  0.500000  1
  Nd  Nd9  1  0.318424  0.474701  0.500000  1
  Ga  Ga10  1  0.250000  0.250000  0.000000  1
  Ga  Ga11  1  0.750000  0.750000  0.000000  1
  Si  Si12  1  0.884322  0.384322  0.268644  1
  Si  Si13  1  0.115678  0.615678  0.731356  1
  Si  Si14  1  0.384322  0.115678  0.500000  1
  Si  Si15  1  0.615678  0.884322  0.500000  1
  H  H16  1  0.250000  0.750000  0.500000  1
  H  H17  1  0.750000  0.250000  0.500000  1
