# generated using pymatgen
data_Ho10Si16Pt
_symmetry_space_group_name_H-M   'P 1'
_cell_length_a   11.07743749
_cell_length_b   11.08968581
_cell_length_c   11.07743829
_cell_angle_alpha   144.76568996
_cell_angle_beta   136.51113190
_cell_angle_gamma   57.13845304
_symmetry_Int_Tables_number   1
_chemical_formula_structural   Ho10Si16Pt
_chemical_formula_sum   'Ho10 Si16 Pt1'
_cell_volume   536.00514673
_cell_formula_units_Z   1
loop_
 _symmetry_equiv_pos_site_id
 _symmetry_equiv_pos_as_xyz
  1  'x, y, z'
loop_
 _atom_site_type_symbol
 _atom_site_label
 _atom_site_symmetry_multiplicity
 _atom_site_fract_x
 _atom_site_fract_y
 _atom_site_fract_z
 _atom_site_occupancy
  Ho  Ho0  1  0.051579  0.563730  0.015030  1
  Ho  Ho1  1  0.352234  0.372067  0.522548  1
  Ho  Ho2  1  0.151324  0.166138  0.520438  1
  Ho  Ho3  1  0.451377  0.963045  0.014176  1
  Ho  Ho4  1  0.645700  0.166138  0.014815  1
  Ho  Ho5  1  0.948868  0.963045  0.511667  1
  Ho  Ho6  1  0.849519  0.372067  0.019834  1
  Ho  Ho7  1  0.548700  0.563730  0.512152  1
  Ho  Ho8  1  0.248692  0.762716  0.010397  1
  Ho  Ho9  1  0.752318  0.762716  0.514023  1
  Si  Si10  1  0.117659  0.076760  0.959100  1
  Si  Si11  1  0.797740  0.185685  0.387944  1
  Si  Si12  1  0.300189  0.899106  0.598918  1
  Si  Si13  1  0.399952  0.500722  0.100770  1
  Si  Si14  1  0.886488  0.847268  0.960779  1
  Si  Si15  1  0.104150  0.708823  0.604674  1
  Si  Si16  1  0.200478  0.586410  0.385931  1
  Si  Si17  1  0.697229  0.292985  0.595757  1
  Si  Si18  1  0.000285  0.433036  0.432750  1
  Si  Si19  1  0.713361  0.665769  0.952408  1
  Si  Si20  1  0.600496  0.703151  0.102653  1
  Si  Si21  1  0.001307  0.087801  0.086494  1
  Si  Si22  1  0.501010  0.392478  0.891468  1
  Si  Si23  1  0.286073  0.241142  0.955069  1
  Si  Si24  1  0.582485  0.041287  0.458801  1
  Si  Si25  1  0.414444  0.869724  0.455280  1
  Pt  Pt26  1  0.896342  0.501382  0.605040  1
