# generated using pymatgen
data_Li3Y4ZrPt4
_symmetry_space_group_name_H-M   'P 1'
_cell_length_a   4.11084200
_cell_length_b   7.11585618
_cell_length_c   8.65467957
_cell_angle_alpha   92.22051580
_cell_angle_beta   90.00000000
_cell_angle_gamma   90.00000000
_symmetry_Int_Tables_number   1
_chemical_formula_structural   Li3Y4ZrPt4
_chemical_formula_sum   'Li3 Y4 Zr1 Pt4'
_cell_volume   252.97797299
_cell_formula_units_Z   1
loop_
 _symmetry_equiv_pos_site_id
 _symmetry_equiv_pos_as_xyz
  1  'x, y, z'
loop_
 _atom_site_type_symbol
 _atom_site_label
 _atom_site_symmetry_multiplicity
 _atom_site_fract_x
 _atom_site_fract_y
 _atom_site_fract_z
 _atom_site_occupancy
  Li  Li0  1  0.250000  0.131934  0.060109  1
  Li  Li1  1  0.250000  0.641825  0.429035  1
  Li  Li2  1  0.750000  0.875024  0.945695  1
  Y  Y3  1  0.250000  0.022960  0.691489  1
  Y  Y4  1  0.250000  0.551163  0.831888  1
  Y  Y5  1  0.750000  0.951917  0.319122  1
  Y  Y6  1  0.750000  0.464568  0.172956  1
  Zr  Zr7  1  0.750000  0.369690  0.554814  1
  Pt  Pt8  1  0.250000  0.240840  0.384664  1
  Pt  Pt9  1  0.250000  0.753637  0.124140  1
  Pt  Pt10  1  0.750000  0.741079  0.622644  1
  Pt  Pt11  1  0.750000  0.255362  0.863444  1
