# generated using pymatgen
data_YLu3Hf4F28
_symmetry_space_group_name_H-M   'P 1'
_cell_length_a   5.59910225
_cell_length_b   8.92079253
_cell_length_c   12.05288764
_cell_angle_alpha   62.51874737
_cell_angle_beta   89.96021100
_cell_angle_gamma   90.03822761
_symmetry_Int_Tables_number   1
_chemical_formula_structural   YLu3Hf4F28
_chemical_formula_sum   'Y1 Lu3 Hf4 F28'
_cell_volume   534.09122234
_cell_formula_units_Z   1
loop_
 _symmetry_equiv_pos_site_id
 _symmetry_equiv_pos_as_xyz
  1  'x, y, z'
loop_
 _atom_site_type_symbol
 _atom_site_label
 _atom_site_symmetry_multiplicity
 _atom_site_fract_x
 _atom_site_fract_y
 _atom_site_fract_z
 _atom_site_occupancy
  Y  Y0  1  0.256424  0.817106  0.264375  1
  Lu  Lu1  1  0.744427  0.183376  0.735983  1
  Lu  Lu2  1  0.756922  0.186179  0.235719  1
  Lu  Lu3  1  0.244510  0.817416  0.764227  1
  Hf  Hf4  1  0.755665  0.725674  0.040257  1
  Hf  Hf5  1  0.242374  0.276441  0.955547  1
  Hf  Hf6  1  0.257195  0.271312  0.458357  1
  Hf  Hf7  1  0.743399  0.725808  0.545729  1
  F  F8  1  0.949283  0.707674  0.416942  1
  F  F9  1  0.045852  0.289786  0.585242  1
  F  F10  1  0.453581  0.291847  0.083702  1
  F  F11  1  0.546022  0.707841  0.912833  1
  F  F12  1  0.469828  0.729152  0.139148  1
  F  F13  1  0.524205  0.268539  0.854645  1
  F  F14  1  0.973436  0.268886  0.356939  1
  F  F15  1  0.026847  0.731922  0.645660  1
  F  F16  1  0.951584  0.746072  0.173304  1
  F  F17  1  0.037662  0.252705  0.825586  1
  F  F18  1  0.461111  0.250330  0.326873  1
  F  F19  1  0.539990  0.748125  0.676095  1
  F  F20  1  0.778161  0.472996  0.140131  1
  F  F21  1  0.221586  0.528296  0.857340  1
  F  F22  1  0.281027  0.522831  0.360111  1
  F  F23  1  0.724637  0.472780  0.642679  1
  F  F24  1  0.939998  0.274367  0.049326  1
  F  F25  1  0.061025  0.726530  0.948902  1
  F  F26  1  0.440091  0.724196  0.455295  1
  F  F27  1  0.559657  0.271988  0.551359  1
  F  F28  1  0.741668  0.977097  0.442757  1
  F  F29  1  0.259237  0.019785  0.559247  1
  F  F30  1  0.240175  0.024697  0.055052  1
  F  F31  1  0.757900  0.977513  0.940668  1
  F  F32  1  0.584621  0.975261  0.232406  1
  F  F33  1  0.426783  0.026747  0.766461  1
  F  F34  1  0.076322  0.035491  0.267295  1
  F  F35  1  0.926794  0.973234  0.733810  1
