# generated using pymatgen
data_YHo7Ti3Si16W9
_symmetry_space_group_name_H-M   'P 1'
_cell_length_a   6.89638663
_cell_length_b   6.89648864
_cell_length_c   12.79439446
_cell_angle_alpha   89.98223605
_cell_angle_beta   90.01218056
_cell_angle_gamma   89.85548595
_symmetry_Int_Tables_number   1
_chemical_formula_structural   YHo7Ti3Si16W9
_chemical_formula_sum   'Y1 Ho7 Ti3 Si16 W9'
_cell_volume   608.51032305
_cell_formula_units_Z   1
loop_
 _symmetry_equiv_pos_site_id
 _symmetry_equiv_pos_as_xyz
  1  'x, y, z'
loop_
 _atom_site_type_symbol
 _atom_site_label
 _atom_site_symmetry_multiplicity
 _atom_site_fract_x
 _atom_site_fract_y
 _atom_site_fract_z
 _atom_site_occupancy
  Y  Y0  1  0.339194  0.002184  0.468549  1
  Ho  Ho1  1  0.497053  0.838243  0.719361  1
  Ho  Ho2  1  0.499571  0.161700  0.217396  1
  Ho  Ho3  1  0.838345  0.496857  0.280753  1
  Ho  Ho4  1  0.161609  0.499521  0.782531  1
  Ho  Ho5  1  0.659876  0.999277  0.968819  1
  Ho  Ho6  1  0.001684  0.339596  0.531416  1
  Ho  Ho7  1  0.999147  0.659767  0.031125  1
  Ti  Ti8  1  0.170440  0.831494  0.248427  1
  Ti  Ti9  1  0.831555  0.170585  0.751460  1
  Ti  Ti10  1  0.669345  0.668797  0.500051  1
  Si  Si11  1  0.200067  0.129782  0.683265  1
  Si  Si12  1  0.372790  0.698374  0.933214  1
  Si  Si13  1  0.629757  0.299354  0.433232  1
  Si  Si14  1  0.698451  0.372704  0.066711  1
  Si  Si15  1  0.298834  0.628637  0.566892  1
  Si  Si16  1  0.797172  0.871481  0.183751  1
  Si  Si17  1  0.129129  0.200730  0.316590  1
  Si  Si18  1  0.871399  0.797128  0.816249  1
  Si  Si19  1  0.289162  0.962970  0.062366  1
  Si  Si20  1  0.540382  0.791418  0.313595  1
  Si  Si21  1  0.459237  0.209163  0.814217  1
  Si  Si22  1  0.791830  0.539864  0.686125  1
  Si  Si23  1  0.209080  0.459016  0.185764  1
  Si  Si24  1  0.710038  0.041081  0.564164  1
  Si  Si25  1  0.962810  0.289224  0.937690  1
  Si  Si26  1  0.040511  0.708997  0.436018  1
  W  W27  1  0.331645  0.331583  0.000007  1
  W  W28  1  0.157958  0.002467  0.873388  1
  W  W29  1  0.494768  0.664845  0.124915  1
  W  W30  1  0.505769  0.340838  0.625015  1
  W  W31  1  0.664985  0.494790  0.875005  1
  W  W32  1  0.340494  0.505611  0.375143  1
  W  W33  1  0.839843  0.994133  0.374208  1
  W  W34  1  0.002273  0.158029  0.126608  1
  W  W35  1  0.993796  0.839760  0.625979  1
