# generated using pymatgen
data_Dy6Tm4TlPb5
_symmetry_space_group_name_H-M   'P 1'
_cell_length_a   6.62186100
_cell_length_b   9.00092520
_cell_length_c   9.01408100
_cell_angle_alpha   119.95173792
_cell_angle_beta   90.00007787
_cell_angle_gamma   89.99984018
_symmetry_Int_Tables_number   1
_chemical_formula_structural   Dy6Tm4TlPb5
_chemical_formula_sum   'Dy6 Tm4 Tl1 Pb5'
_cell_volume   465.51137954
_cell_formula_units_Z   1
loop_
 _symmetry_equiv_pos_site_id
 _symmetry_equiv_pos_as_xyz
  1  'x, y, z'
loop_
 _atom_site_type_symbol
 _atom_site_label
 _atom_site_symmetry_multiplicity
 _atom_site_fract_x
 _atom_site_fract_y
 _atom_site_fract_z
 _atom_site_occupancy
  Dy  Dy0  1  0.750000  0.239545  0.000000  1
  Dy  Dy1  1  0.749999  0.760467  0.765357  1
  Dy  Dy2  1  0.749999  0.995110  0.234643  1
  Dy  Dy3  1  0.250000  0.762263  0.000000  1
  Dy  Dy4  1  0.250000  0.238210  0.237584  1
  Dy  Dy5  1  0.250000  0.000626  0.762416  1
  Tm  Tm6  1  0.501672  0.336304  0.670226  1
  Tm  Tm7  1  0.501672  0.666078  0.329774  1
  Tm  Tm8  1  0.998326  0.666105  0.329784  1
  Tm  Tm9  1  0.998326  0.336321  0.670216  1
  Tl  Tl10  1  0.750001  0.602685  0.000000  1
  Pb  Pb11  1  0.750002  0.394561  0.395247  1
  Pb  Pb12  1  0.750002  0.999314  0.604753  1
  Pb  Pb13  1  0.249991  0.396241  0.000000  1
  Pb  Pb14  1  0.250004  0.604502  0.602831  1
  Pb  Pb15  1  0.250004  0.001671  0.397169  1
