# generated using pymatgen
data_Ce6Ho10Mn3Cd4Ru
_symmetry_space_group_name_H-M   'P 1'
_cell_length_a   9.51236468
_cell_length_b   9.51236520
_cell_length_c   9.52697810
_cell_angle_alpha   60.66106615
_cell_angle_beta   60.66107203
_cell_angle_gamma   59.60135169
_symmetry_Int_Tables_number   1
_chemical_formula_structural   Ce6Ho10Mn3Cd4Ru
_chemical_formula_sum   'Ce6 Ho10 Mn3 Cd4 Ru1'
_cell_volume   613.66924402
_cell_formula_units_Z   1
loop_
 _symmetry_equiv_pos_site_id
 _symmetry_equiv_pos_as_xyz
  1  'x, y, z'
loop_
 _atom_site_type_symbol
 _atom_site_label
 _atom_site_symmetry_multiplicity
 _atom_site_fract_x
 _atom_site_fract_y
 _atom_site_fract_z
 _atom_site_occupancy
  Ce  Ce0  1  0.184490  0.805351  0.183771  1
  Ce  Ce1  1  0.805351  0.184491  0.183772  1
  Ce  Ce2  1  0.348648  0.348648  0.959519  1
  Ce  Ce3  1  0.327682  0.972743  0.363142  1
  Ce  Ce4  1  0.972743  0.327682  0.363142  1
  Ce  Ce5  1  0.356828  0.356828  0.320705  1
  Ho  Ho6  1  0.563393  0.563393  0.929812  1
  Ho  Ho7  1  0.935282  0.549120  0.941532  1
  Ho  Ho8  1  0.549120  0.935282  0.941532  1
  Ho  Ho9  1  0.928628  0.928628  0.577050  1
  Ho  Ho10  1  0.564985  0.936546  0.558581  1
  Ho  Ho11  1  0.936546  0.564985  0.558581  1
  Ho  Ho12  1  0.188947  0.188947  0.791139  1
  Ho  Ho13  1  0.805665  0.182502  0.816374  1
  Ho  Ho14  1  0.182501  0.805666  0.816374  1
  Ho  Ho15  1  0.807127  0.807128  0.185509  1
  Mn  Mn16  1  0.131212  0.131212  0.536086  1
  Mn  Mn17  1  0.173984  0.587226  0.174269  1
  Mn  Mn18  1  0.587226  0.173984  0.174269  1
  Cd  Cd19  1  0.584411  0.584411  0.260115  1
  Cd  Cd20  1  0.579790  0.254057  0.583732  1
  Cd  Cd21  1  0.254057  0.579790  0.583732  1
  Cd  Cd22  1  0.579739  0.579739  0.581852  1
  Ru  Ru23  1  0.151642  0.151642  0.115408  1
