# generated using pymatgen
data_ThCd(CuPt)2
_symmetry_space_group_name_H-M   'P 1'
_cell_length_a   5.29788001
_cell_length_b   5.29787997
_cell_length_c   5.53888900
_cell_angle_alpha   58.48340383
_cell_angle_beta   58.48340413
_cell_angle_gamma   58.99000105
_symmetry_Int_Tables_number   1
_chemical_formula_structural   ThCd(CuPt)2
_chemical_formula_sum   'Th1 Cd1 Cu2 Pt2'
_cell_volume   106.53684715
_cell_formula_units_Z   1
loop_
 _symmetry_equiv_pos_site_id
 _symmetry_equiv_pos_as_xyz
  1  'x, y, z'
loop_
 _atom_site_type_symbol
 _atom_site_label
 _atom_site_symmetry_multiplicity
 _atom_site_fract_x
 _atom_site_fract_y
 _atom_site_fract_z
 _atom_site_occupancy
  Th  Th0  1  0.998634  0.998634  0.001366  1
  Cd  Cd1  1  0.241592  0.241592  0.258408  1
  Cu  Cu2  1  0.629751  0.127680  0.621285  1
  Cu  Cu3  1  0.127680  0.629751  0.621285  1
  Pt  Pt4  1  0.626172  0.626172  0.621375  1
  Pt  Pt5  1  0.626172  0.626172  0.126282  1
