# generated using pymatgen
data_Sm8Nb12Si15As
_symmetry_space_group_name_H-M   'P 1'
_cell_length_a   7.13899780
_cell_length_b   7.14454578
_cell_length_c   13.22601643
_cell_angle_alpha   89.89819586
_cell_angle_beta   89.96371378
_cell_angle_gamma   89.90309913
_symmetry_Int_Tables_number   1
_chemical_formula_structural   Sm8Nb12Si15As
_chemical_formula_sum   'Sm8 Nb12 Si15 As1'
_cell_volume   674.58943720
_cell_formula_units_Z   1
loop_
 _symmetry_equiv_pos_site_id
 _symmetry_equiv_pos_as_xyz
  1  'x, y, z'
loop_
 _atom_site_type_symbol
 _atom_site_label
 _atom_site_symmetry_multiplicity
 _atom_site_fract_x
 _atom_site_fract_y
 _atom_site_fract_z
 _atom_site_occupancy
  Sm  Sm0  1  0.999356  0.338999  0.218492  1
  Sm  Sm1  1  0.002835  0.660766  0.717649  1
  Sm  Sm2  1  0.159747  0.499068  0.468441  1
  Sm  Sm3  1  0.503310  0.837379  0.031078  1
  Sm  Sm4  1  0.838861  0.501615  0.967770  1
  Sm  Sm5  1  0.497475  0.161214  0.531986  1
  Sm  Sm6  1  0.339389  0.997743  0.782318  1
  Sm  Sm7  1  0.659859  0.002876  0.282199  1
  Nb  Nb8  1  0.169339  0.169718  0.998578  1
  Nb  Nb9  1  0.830170  0.830256  0.499946  1
  Nb  Nb10  1  0.330058  0.666851  0.249702  1
  Nb  Nb11  1  0.670557  0.329100  0.749989  1
  Nb  Nb12  1  0.154565  0.994218  0.376168  1
  Nb  Nb13  1  0.843997  0.008671  0.875327  1
  Nb  Nb14  1  0.508378  0.655930  0.625476  1
  Nb  Nb15  1  0.344393  0.491361  0.874316  1
  Nb  Nb16  1  0.492115  0.345276  0.126159  1
  Nb  Nb17  1  0.657735  0.510778  0.375228  1
  Nb  Nb18  1  0.991272  0.155700  0.624564  1
  Nb  Nb19  1  0.003592  0.841721  0.123203  1
  Si  Si20  1  0.708104  0.955838  0.686367  1
  Si  Si21  1  0.455782  0.792204  0.436704  1
  Si  Si22  1  0.207690  0.543215  0.062891  1
  Si  Si23  1  0.543749  0.207545  0.936475  1
  Si  Si24  1  0.791888  0.456050  0.564021  1
  Si  Si25  1  0.044087  0.291740  0.813284  1
  Si  Si26  1  0.956926  0.708476  0.313445  1
  Si  Si27  1  0.373763  0.304224  0.319845  1
  Si  Si28  1  0.629776  0.703130  0.815279  1
  Si  Si29  1  0.203855  0.871047  0.565456  1
  Si  Si30  1  0.128998  0.795142  0.934056  1
  Si  Si31  1  0.796106  0.129924  0.065387  1
  Si  Si32  1  0.870396  0.204090  0.434681  1
  Si  Si33  1  0.296943  0.370382  0.684427  1
  Si  Si34  1  0.703872  0.628885  0.184216  1
  As  As35  1  0.291065  0.038869  0.184876  1
