# generated using pymatgen
data_Yb12Al7Co(SiO4)12
_symmetry_space_group_name_H-M   'P 1'
_cell_length_a   10.28010631
_cell_length_b   10.28010623
_cell_length_c   10.26376200
_cell_angle_alpha   109.43902317
_cell_angle_beta   109.43901120
_cell_angle_gamma   109.50339925
_symmetry_Int_Tables_number   1
_chemical_formula_structural   Yb12Al7Co(SiO4)12
_chemical_formula_sum   'Yb12 Al7 Co1 Si12 O48'
_cell_volume   835.31901843
_cell_formula_units_Z   1
loop_
 _symmetry_equiv_pos_site_id
 _symmetry_equiv_pos_as_xyz
  1  'x, y, z'
loop_
 _atom_site_type_symbol
 _atom_site_label
 _atom_site_symmetry_multiplicity
 _atom_site_fract_x
 _atom_site_fract_y
 _atom_site_fract_z
 _atom_site_occupancy
  Yb  Yb0  1  0.375229  0.751137  0.126636  1
  Yb  Yb1  1  0.249977  0.374609  0.124826  1
  Yb  Yb2  1  0.375909  0.124771  0.251408  1
  Yb  Yb3  1  0.874610  0.624633  0.249784  1
  Yb  Yb4  1  0.748861  0.124092  0.375498  1
  Yb  Yb5  1  0.124632  0.250023  0.374848  1
  Yb  Yb6  1  0.875368  0.749978  0.625151  1
  Yb  Yb7  1  0.251139  0.875908  0.624503  1
  Yb  Yb8  1  0.125391  0.375368  0.750216  1
  Yb  Yb9  1  0.624092  0.875229  0.748592  1
  Yb  Yb10  1  0.750023  0.625392  0.875175  1
  Yb  Yb11  1  0.624770  0.248862  0.873364  1
  Al  Al12  1  0.000000  0.000000  0.000000  1
  Al  Al13  1  0.500000  0.000000  0.000000  1
  Al  Al14  1  0.000000  0.499999  0.000000  1
  Al  Al15  1  0.499999  0.500000  0.000000  1
  Al  Al16  1  0.000000  0.000000  0.500000  1
  Al  Al17  1  0.499999  0.500000  0.500000  1
  Al  Al18  1  0.000000  0.500000  0.500000  1
  Co  Co19  1  0.499999  0.000000  0.500000  1
  Si  Si20  1  0.874867  0.249944  0.124921  1
  Si  Si21  1  0.749944  0.875075  0.125022  1
  Si  Si22  1  0.624925  0.374867  0.249948  1
  Si  Si23  1  0.124110  0.874982  0.250566  1
  Si  Si24  1  0.249128  0.624109  0.373544  1
  Si  Si25  1  0.625018  0.749128  0.375584  1
  Si  Si26  1  0.750873  0.375890  0.626455  1
  Si  Si27  1  0.374981  0.250871  0.624415  1
  Si  Si28  1  0.875891  0.125019  0.749434  1
  Si  Si29  1  0.375075  0.625132  0.750052  1
  Si  Si30  1  0.250057  0.124924  0.874978  1
  Si  Si31  1  0.125133  0.750057  0.875079  1
  O  O32  1  0.198443  0.114143  0.009726  1
  O  O33  1  0.311122  0.895427  0.009738  1
  O  O34  1  0.698498  0.688930  0.084346  1
  O  O35  1  0.885859  0.395471  0.084353  1
  O  O36  1  0.614144  0.415700  0.104417  1
  O  O37  1  0.990326  0.689042  0.104745  1
  O  O38  1  0.009567  0.198496  0.114151  1
  O  O39  1  0.604573  0.915695  0.114311  1
  O  O40  1  0.198150  0.583765  0.187824  1
  O  O41  1  0.490410  0.604627  0.189179  1
  O  O42  1  0.114217  0.009590  0.198768  1
  O  O43  1  0.584305  0.188878  0.198616  1
  O  O44  1  0.309444  0.913800  0.298962  1
  O  O45  1  0.490389  0.385860  0.301507  1
  O  O46  1  0.915700  0.301556  0.311283  1
  O  O47  1  0.895471  0.009611  0.311118  1
  O  O48  1  0.586198  0.895643  0.385159  1
  O  O49  1  0.301285  0.490326  0.385581  1
  O  O50  1  0.811069  0.509567  0.395415  1
  O  O51  1  0.083766  0.885617  0.395943  1
  O  O52  1  0.810958  0.801283  0.415703  1
  O  O53  1  0.104627  0.614217  0.415449  1
  O  O54  1  0.385618  0.301852  0.489676  1
  O  O55  1  0.604356  0.190557  0.489518  1
  O  O56  1  0.395644  0.809444  0.510482  1
  O  O57  1  0.614383  0.698149  0.510326  1
  O  O58  1  0.895372  0.385782  0.584551  1
  O  O59  1  0.189042  0.198717  0.584297  1
  O  O60  1  0.916234  0.114383  0.604058  1
  O  O61  1  0.188931  0.490433  0.604584  1
  O  O62  1  0.413800  0.104356  0.614839  1
  O  O63  1  0.698717  0.509675  0.614421  1
  O  O64  1  0.104529  0.990388  0.688882  1
  O  O65  1  0.084299  0.698444  0.688717  1
  O  O66  1  0.690555  0.086199  0.701038  1
  O  O67  1  0.509612  0.614141  0.698494  1
  O  O68  1  0.415694  0.811121  0.801383  1
  O  O69  1  0.885783  0.990410  0.801233  1
  O  O70  1  0.509590  0.395374  0.810821  1
  O  O71  1  0.801850  0.416234  0.812175  1
  O  O72  1  0.395427  0.084304  0.885689  1
  O  O73  1  0.990433  0.801504  0.885850  1
  O  O74  1  0.385856  0.584299  0.895582  1
  O  O75  1  0.009674  0.310959  0.895255  1
  O  O76  1  0.301503  0.311070  0.915654  1
  O  O77  1  0.114141  0.604529  0.915647  1
  O  O78  1  0.688878  0.104572  0.990261  1
  O  O79  1  0.801557  0.885857  0.990275  1
