# generated using pymatgen
data_TaSi2Ni4W5C
_symmetry_space_group_name_H-M   'P 1'
_cell_length_a   7.78352219
_cell_length_b   7.79228926
_cell_length_c   7.77447017
_cell_angle_alpha   60.08525472
_cell_angle_beta   59.96148094
_cell_angle_gamma   60.03721040
_symmetry_Int_Tables_number   1
_chemical_formula_structural   TaSi2Ni4W5C
_chemical_formula_sum   'Ta2 Si4 Ni8 W10 C2'
_cell_volume   333.63484166
_cell_formula_units_Z   2
loop_
 _symmetry_equiv_pos_site_id
 _symmetry_equiv_pos_as_xyz
  1  'x, y, z'
loop_
 _atom_site_type_symbol
 _atom_site_label
 _atom_site_symmetry_multiplicity
 _atom_site_fract_x
 _atom_site_fract_y
 _atom_site_fract_z
 _atom_site_occupancy
  Ta  Ta0  1  0.052568  0.053302  0.445508  1
  Ta  Ta1  1  0.448622  0.053302  0.445508  1
  Si  Si2  1  0.623862  0.626353  0.125923  1
  Si  Si3  1  0.622732  0.126858  0.627677  1
  Si  Si4  1  0.125975  0.621998  0.624764  1
  Si  Si5  1  0.627262  0.621998  0.624764  1
  Ni  Ni6  1  0.418417  0.418958  0.744206  1
  Ni  Ni7  1  0.417556  0.744529  0.420358  1
  Ni  Ni8  1  0.744394  0.417121  0.418837  1
  Ni  Ni9  1  0.419647  0.417121  0.418837  1
  Ni  Ni10  1  0.830655  0.832182  0.506508  1
  Ni  Ni11  1  0.830854  0.508222  0.830072  1
  Ni  Ni12  1  0.507273  0.831970  0.829801  1
  Ni  Ni13  1  0.830957  0.831970  0.829801  1
  W  W14  1  0.054539  0.448074  0.442849  1
  W  W15  1  0.445014  0.447800  0.052947  1
  W  W16  1  0.054239  0.447800  0.052947  1
  W  W17  1  0.445322  0.056254  0.053102  1
  W  W18  1  0.192900  0.195091  0.809434  1
  W  W19  1  0.802576  0.195091  0.809434  1
  W  W20  1  0.194533  0.798934  0.811999  1
  W  W21  1  0.808933  0.802452  0.193210  1
  W  W22  1  0.195406  0.802452  0.193210  1
  W  W23  1  0.805786  0.196804  0.191623  1
  C  C24  1  0.249937  0.253729  0.246396  1
  C  C25  1  0.000041  0.999635  0.000283  1
