# generated using pymatgen
data_SmEuEr4Ta2O14
_symmetry_space_group_name_H-M   'P 1'
_cell_length_a   6.45234150
_cell_length_b   6.45234103
_cell_length_c   7.55696421
_cell_angle_alpha   90.20658909
_cell_angle_beta   89.79340757
_cell_angle_gamma   109.20575565
_symmetry_Int_Tables_number   1
_chemical_formula_structural   SmEuEr4Ta2O14
_chemical_formula_sum   'Sm1 Eu1 Er4 Ta2 O14'
_cell_volume   297.10344786
_cell_formula_units_Z   1
loop_
 _symmetry_equiv_pos_site_id
 _symmetry_equiv_pos_as_xyz
  1  'x, y, z'
loop_
 _atom_site_type_symbol
 _atom_site_label
 _atom_site_symmetry_multiplicity
 _atom_site_fract_x
 _atom_site_fract_y
 _atom_site_fract_z
 _atom_site_occupancy
  Sm  Sm0  1  0.500000  0.500000  0.000000  1
  Eu  Eu1  1  0.500000  0.500000  0.500000  1
  Er  Er2  1  0.533492  0.000817  0.749256  1
  Er  Er3  1  0.000817  0.533492  0.250744  1
  Er  Er4  1  0.466508  0.999183  0.250744  1
  Er  Er5  1  0.999183  0.466508  0.749256  1
  Ta  Ta6  1  0.000000  0.000000  0.500000  1
  Ta  Ta7  1  0.000000  0.000000  0.000000  1
  O  O8  1  0.678944  0.932088  0.466610  1
  O  O9  1  0.932088  0.678944  0.533390  1
  O  O10  1  0.678343  0.929722  0.034083  1
  O  O11  1  0.929722  0.678343  0.965917  1
  O  O12  1  0.321056  0.067912  0.533390  1
  O  O13  1  0.067912  0.321056  0.466610  1
  O  O14  1  0.321657  0.070278  0.965917  1
  O  O15  1  0.070278  0.321657  0.034083  1
  O  O16  1  0.932241  0.067759  0.750221  1
  O  O17  1  0.067759  0.932241  0.249779  1
  O  O18  1  0.364643  0.635356  0.750595  1
  O  O19  1  0.635356  0.364643  0.249405  1
  O  O20  1  0.642165  0.357835  0.750526  1
  O  O21  1  0.357835  0.642165  0.249474  1
