# generated using pymatgen
data_Er3Tm5(ReB6)4
_symmetry_space_group_name_H-M   'P 1'
_cell_length_a   3.64732500
_cell_length_b   9.11125500
_cell_length_c   11.47956500
_cell_angle_alpha   89.99879737
_cell_angle_beta   89.99949411
_cell_angle_gamma   89.99918281
_symmetry_Int_Tables_number   1
_chemical_formula_structural   Er3Tm5(ReB6)4
_chemical_formula_sum   'Er3 Tm5 Re4 B24'
_cell_volume   381.48555362
_cell_formula_units_Z   1
loop_
 _symmetry_equiv_pos_site_id
 _symmetry_equiv_pos_as_xyz
  1  'x, y, z'
loop_
 _atom_site_type_symbol
 _atom_site_label
 _atom_site_symmetry_multiplicity
 _atom_site_fract_x
 _atom_site_fract_y
 _atom_site_fract_z
 _atom_site_occupancy
  Er  Er0  1  0.999996  0.323432  0.413819  1
  Er  Er1  1  0.000003  0.676529  0.586217  1
  Er  Er2  1  0.000000  0.823483  0.086167  1
  Tm  Tm3  1  0.000002  0.176538  0.913819  1
  Tm  Tm4  1  0.000003  0.943510  0.370285  1
  Tm  Tm5  1  0.000001  0.056552  0.629729  1
  Tm  Tm6  1  0.999996  0.443425  0.129591  1
  Tm  Tm7  1  0.999997  0.556473  0.870364  1
  Re  Re8  1  0.999996  0.638986  0.320677  1
  Re  Re9  1  0.000000  0.360922  0.679433  1
  Re  Re10  1  0.000002  0.138987  0.179172  1
  Re  Re11  1  0.000013  0.861133  0.820732  1
  B  B12  1  0.499998  0.553194  0.433199  1
  B  B13  1  0.499998  0.446735  0.566873  1
  B  B14  1  0.499998  0.053306  0.066596  1
  B  B15  1  0.499999  0.947023  0.933222  1
  B  B16  1  0.499999  0.750087  0.419032  1
  B  B17  1  0.499998  0.249919  0.581073  1
  B  B18  1  0.499999  0.250022  0.080662  1
  B  B19  1  0.500000  0.750007  0.919026  1
  B  B20  1  0.499998  0.793015  0.265260  1
  B  B21  1  0.500002  0.206892  0.734946  1
  B  B22  1  0.499998  0.292984  0.234595  1
  B  B23  1  0.500001  0.707029  0.765318  1
  B  B24  1  0.499998  0.630686  0.184920  1
  B  B25  1  0.500001  0.369093  0.815246  1
  B  B26  1  0.500000  0.130730  0.314986  1
  B  B27  1  0.500001  0.869380  0.685014  1
  B  B28  1  0.499997  0.981758  0.212074  1
  B  B29  1  0.500000  0.018561  0.787992  1
  B  B30  1  0.499997  0.481669  0.287793  1
  B  B31  1  0.500003  0.518218  0.712239  1
  B  B32  1  0.500001  0.599459  0.027738  1
  B  B33  1  0.500001  0.400221  0.972156  1
  B  B34  1  0.500003  0.099439  0.472275  1
  B  B35  1  0.499999  0.900602  0.527760  1
