# generated using pymatgen
data_CeY2(ZnPt)4
_symmetry_space_group_name_H-M   'P 1'
_cell_length_a   8.26426852
_cell_length_b   8.26426805
_cell_length_c   8.26426675
_cell_angle_alpha   151.72342359
_cell_angle_beta   126.44231410
_cell_angle_gamma   61.66120451
_symmetry_Int_Tables_number   1
_chemical_formula_structural   CeY2(ZnPt)4
_chemical_formula_sum   'Ce1 Y2 Zn4 Pt4'
_cell_volume   213.35679131
_cell_formula_units_Z   1
loop_
 _symmetry_equiv_pos_site_id
 _symmetry_equiv_pos_as_xyz
  1  'x, y, z'
loop_
 _atom_site_type_symbol
 _atom_site_label
 _atom_site_symmetry_multiplicity
 _atom_site_fract_x
 _atom_site_fract_y
 _atom_site_fract_z
 _atom_site_occupancy
  Ce  Ce0  1  0.500000  0.000000  0.500000  1
  Y  Y1  1  0.874506  0.874506  0.000000  1
  Y  Y2  1  0.125494  0.125494  0.000000  1
  Zn  Zn3  1  0.476705  0.674174  0.802531  1
  Zn  Zn4  1  0.871644  0.674174  0.197469  1
  Zn  Zn5  1  0.128356  0.325826  0.802531  1
  Zn  Zn6  1  0.523295  0.325826  0.197469  1
  Pt  Pt7  1  0.279034  0.779034  0.500000  1
  Pt  Pt8  1  0.720966  0.220966  0.500000  1
  Pt  Pt9  1  0.803042  0.500000  0.303042  1
  Pt  Pt10  1  0.196958  0.500000  0.696958  1
