# generated using pymatgen
data_Th2CoPBr2
_symmetry_space_group_name_H-M   'P 1'
_cell_length_a   4.00038600
_cell_length_b   4.00038645
_cell_length_c   11.67774100
_cell_angle_alpha   90.00000000
_cell_angle_beta   90.00000000
_cell_angle_gamma   119.99997973
_symmetry_Int_Tables_number   1
_chemical_formula_structural   Th2CoPBr2
_chemical_formula_sum   'Th2 Co1 P1 Br2'
_cell_volume   161.84280831
_cell_formula_units_Z   1
loop_
 _symmetry_equiv_pos_site_id
 _symmetry_equiv_pos_as_xyz
  1  'x, y, z'
loop_
 _atom_site_type_symbol
 _atom_site_label
 _atom_site_symmetry_multiplicity
 _atom_site_fract_x
 _atom_site_fract_y
 _atom_site_fract_z
 _atom_site_occupancy
  Th  Th0  1  0.000000  0.000000  0.156984  1
  Th  Th1  1  0.000000  0.000000  0.835194  1
  Co  Co2  1  0.333333  0.666667  0.018910  1
  P  P3  1  0.666667  0.333333  0.989083  1
  Br  Br4  1  0.333333  0.666667  0.662742  1
  Br  Br5  1  0.666667  0.333333  0.337087  1
