# generated using pymatgen
data_Ho2HfIr3
_symmetry_space_group_name_H-M   'P 1'
_cell_length_a   5.29991559
_cell_length_b   5.69048078
_cell_length_c   5.69048200
_cell_angle_alpha   60.00000453
_cell_angle_beta   57.53079119
_cell_angle_gamma   57.53078482
_symmetry_Int_Tables_number   1
_chemical_formula_structural   Ho2HfIr3
_chemical_formula_sum   'Ho2 Hf1 Ir3'
_cell_volume   116.62511140
_cell_formula_units_Z   1
loop_
 _symmetry_equiv_pos_site_id
 _symmetry_equiv_pos_as_xyz
  1  'x, y, z'
loop_
 _atom_site_type_symbol
 _atom_site_label
 _atom_site_symmetry_multiplicity
 _atom_site_fract_x
 _atom_site_fract_y
 _atom_site_fract_z
 _atom_site_occupancy
  Ho  Ho0  1  0.504026  0.498658  0.498658  1
  Ho  Ho1  1  0.745974  0.751342  0.751342  1
  Hf  Hf2  1  0.625000  0.125000  0.125000  1
  Ir  Ir3  1  0.125000  0.125000  0.125000  1
  Ir  Ir4  1  0.125000  0.625000  0.125000  1
  Ir  Ir5  1  0.125000  0.125000  0.625000  1
