# generated using pymatgen
data_La2In(PRh2)6
_symmetry_space_group_name_H-M   'P 1'
_cell_length_a   9.90235200
_cell_length_b   9.90235253
_cell_length_c   3.88110100
_cell_angle_alpha   90.00000000
_cell_angle_beta   90.00000000
_cell_angle_gamma   119.99999823
_symmetry_Int_Tables_number   1
_chemical_formula_structural   La2In(PRh2)6
_chemical_formula_sum   'La2 In1 P6 Rh12'
_cell_volume   329.58112191
_cell_formula_units_Z   1
loop_
 _symmetry_equiv_pos_site_id
 _symmetry_equiv_pos_as_xyz
  1  'x, y, z'
loop_
 _atom_site_type_symbol
 _atom_site_label
 _atom_site_symmetry_multiplicity
 _atom_site_fract_x
 _atom_site_fract_y
 _atom_site_fract_z
 _atom_site_occupancy
  La  La0  1  0.333333  0.666667  0.754725  1
  La  La1  1  0.000000  0.000000  0.246951  1
  In  In2  1  0.666667  0.333333  0.589306  1
  P  P3  1  0.955627  0.222909  0.746875  1
  P  P4  1  0.777091  0.732718  0.746875  1
  P  P5  1  0.267282  0.044373  0.746875  1
  P  P6  1  0.377102  0.442035  0.254765  1
  P  P7  1  0.557965  0.935068  0.254765  1
  P  P8  1  0.064932  0.622898  0.254765  1
  Rh  Rh9  1  0.731785  0.950071  0.748893  1
  Rh  Rh10  1  0.049929  0.781715  0.748893  1
  Rh  Rh11  1  0.218285  0.268215  0.748893  1
  Rh  Rh12  1  0.606415  0.722827  0.252790  1
  Rh  Rh13  1  0.277173  0.883589  0.252790  1
  Rh  Rh14  1  0.116411  0.393585  0.252790  1
  Rh  Rh15  1  0.961594  0.464025  0.758511  1
  Rh  Rh16  1  0.535975  0.497569  0.758511  1
  Rh  Rh17  1  0.502431  0.038406  0.758511  1
  Rh  Rh18  1  0.385829  0.207736  0.242565  1
  Rh  Rh19  1  0.792264  0.178093  0.242565  1
  Rh  Rh20  1  0.821907  0.614171  0.242565  1
