# generated using pymatgen
data_AuBr35
_symmetry_space_group_name_H-M   'P 1'
_cell_length_a   15.98197694
_cell_length_b   11.40028128
_cell_length_c   10.79188300
_cell_angle_alpha   88.81408278
_cell_angle_beta   66.02770512
_cell_angle_gamma   92.31545406
_symmetry_Int_Tables_number   1
_chemical_formula_structural   AuBr35
_chemical_formula_sum   'Au1 Br35'
_cell_volume   1793.71352310
_cell_formula_units_Z   1
loop_
 _symmetry_equiv_pos_site_id
 _symmetry_equiv_pos_as_xyz
  1  'x, y, z'
loop_
 _atom_site_type_symbol
 _atom_site_label
 _atom_site_symmetry_multiplicity
 _atom_site_fract_x
 _atom_site_fract_y
 _atom_site_fract_z
 _atom_site_occupancy
  Au  Au0  1  0.236862  0.452348  0.442705  1
  Br  Br1  1  0.514573  0.260325  0.520984  1
  Br  Br2  1  0.768906  0.576410  0.552397  1
  Br  Br3  1  0.493262  0.680128  0.745158  1
  Br  Br4  1  0.047895  0.887578  0.873775  1
  Br  Br5  1  0.891481  0.159951  0.002981  1
  Br  Br6  1  0.650838  0.321533  0.291323  1
  Br  Br7  1  0.625988  0.349545  0.838310  1
  Br  Br8  1  0.356757  0.748263  0.705875  1
  Br  Br9  1  0.335230  0.584403  0.230808  1
  Br  Br10  1  0.644518  0.144869  0.808028  1
  Br  Br11  1  0.906937  0.537286  0.347348  1
  Br  Br12  1  0.051931  0.956705  0.646789  1
  Br  Br13  1  0.894524  0.105554  0.239158  1
  Br  Br14  1  0.886187  0.217528  0.784319  1
  Br  Br15  1  0.651799  0.049922  0.233077  1
  Br  Br16  1  0.020806  0.815297  0.115853  1
  Br  Br17  1  0.370349  0.969882  0.721325  1
  Br  Br18  1  0.898935  0.314814  0.303728  1
  Br  Br19  1  0.870068  0.930571  0.720544  1
  Br  Br20  1  0.899240  0.661175  0.788265  1
  Br  Br21  1  0.315683  0.024051  0.296379  1
  Br  Br22  1  0.331297  0.298389  0.289043  1
  Br  Br23  1  0.632236  0.613510  0.788099  1
  Br  Br24  1  0.116602  0.424639  0.350136  1
  Br  Br25  1  0.703599  0.907802  0.793386  1
  Br  Br26  1  0.869680  0.453027  0.801649  1
  Br  Br27  1  0.491995  0.038924  0.263608  1
  Br  Br28  1  0.149433  0.303880  0.630495  1
  Br  Br29  1  0.671896  0.772013  0.271293  1
  Br  Br30  1  0.845421  0.796985  0.197449  1
  Br  Br31  1  0.379488  0.194974  0.735442  1
  Br  Br32  1  0.355169  0.485540  0.538509  1
  Br  Br33  1  0.654321  0.543551  0.268652  1
  Br  Br34  1  0.148839  0.613618  0.587391  1
  Br  Br35  1  0.317255  0.805014  0.275723  1
