# generated using pymatgen
data_Cs6ErSbSe3
_symmetry_space_group_name_H-M   'P 1'
_cell_length_a   11.48203900
_cell_length_b   11.48203748
_cell_length_c   9.28827200
_cell_angle_alpha   90.00000000
_cell_angle_beta   90.00000000
_cell_angle_gamma   120.00000149
_symmetry_Int_Tables_number   1
_chemical_formula_structural   Cs6ErSbSe3
_chemical_formula_sum   'Cs12 Er2 Sb2 Se6'
_cell_volume   1060.48255344
_cell_formula_units_Z   2
loop_
 _symmetry_equiv_pos_site_id
 _symmetry_equiv_pos_as_xyz
  1  'x, y, z'
loop_
 _atom_site_type_symbol
 _atom_site_label
 _atom_site_symmetry_multiplicity
 _atom_site_fract_x
 _atom_site_fract_y
 _atom_site_fract_z
 _atom_site_occupancy
  Cs  Cs0  1  0.144074  0.855926  0.537617  1
  Cs  Cs1  1  0.288147  0.144074  0.037617  1
  Cs  Cs2  1  0.855926  0.711853  0.037617  1
  Cs  Cs3  1  0.144074  0.288147  0.537617  1
  Cs  Cs4  1  0.711853  0.855926  0.537617  1
  Cs  Cs5  1  0.855926  0.144074  0.037617  1
  Cs  Cs6  1  0.529168  0.470832  0.370978  1
  Cs  Cs7  1  0.058338  0.529168  0.870978  1
  Cs  Cs8  1  0.470832  0.941662  0.870978  1
  Cs  Cs9  1  0.529168  0.058338  0.370978  1
  Cs  Cs10  1  0.941662  0.470832  0.370978  1
  Cs  Cs11  1  0.470832  0.529168  0.870978  1
  Er  Er12  1  0.333333  0.666667  0.246870  1
  Er  Er13  1  0.666667  0.333333  0.746870  1
  Sb  Sb14  1  0.333333  0.666667  0.565579  1
  Sb  Sb15  1  0.666667  0.333333  0.065579  1
  Se  Se16  1  0.200558  0.799442  0.157155  1
  Se  Se17  1  0.401116  0.200558  0.657155  1
  Se  Se18  1  0.799442  0.598884  0.657155  1
  Se  Se19  1  0.200558  0.401116  0.157155  1
  Se  Se20  1  0.598884  0.799442  0.157155  1
  Se  Se21  1  0.799442  0.200558  0.657155  1
