# generated using pymatgen
data_Lu3Sc2(AlTe)2
_symmetry_space_group_name_H-M   'P 1'
_cell_length_a   8.42924027
_cell_length_b   8.42924006
_cell_length_c   7.67662436
_cell_angle_alpha   89.89930718
_cell_angle_beta   89.89930594
_cell_angle_gamma   125.96493280
_symmetry_Int_Tables_number   1
_chemical_formula_structural   Lu3Sc2(AlTe)2
_chemical_formula_sum   'Lu6 Sc4 Al4 Te4'
_cell_volume   441.46322759
_cell_formula_units_Z   2
loop_
 _symmetry_equiv_pos_site_id
 _symmetry_equiv_pos_as_xyz
  1  'x, y, z'
loop_
 _atom_site_type_symbol
 _atom_site_label
 _atom_site_symmetry_multiplicity
 _atom_site_fract_x
 _atom_site_fract_y
 _atom_site_fract_z
 _atom_site_occupancy
  Lu  Lu0  1  0.960321  0.704329  0.668098  1
  Lu  Lu1  1  0.295671  0.039679  0.331902  1
  Lu  Lu2  1  0.205019  0.460197  0.832464  1
  Lu  Lu3  1  0.539803  0.794981  0.167536  1
  Lu  Lu4  1  0.039508  0.294617  0.331412  1
  Lu  Lu5  1  0.705383  0.960492  0.668588  1
  Sc  Sc6  1  0.000302  0.999698  0.000000  1
  Sc  Sc7  1  0.500918  0.499082  0.500000  1
  Sc  Sc8  1  0.791114  0.539496  0.166290  1
  Sc  Sc9  1  0.460504  0.208886  0.833710  1
  Al  Al10  1  0.870702  0.867491  0.370434  1
  Al  Al11  1  0.132509  0.129298  0.629566  1
  Al  Al12  1  0.629027  0.625237  0.874279  1
  Al  Al13  1  0.374763  0.370973  0.125721  1
  Te  Te14  1  0.203871  0.796129  0.000000  1
  Te  Te15  1  0.703716  0.296284  0.500000  1
  Te  Te16  1  0.791584  0.208416  0.000000  1
  Te  Te17  1  0.295284  0.704716  0.500000  1
