# generated using pymatgen
data_Gd(ReO4)3
_symmetry_space_group_name_H-M   'P 1'
_cell_length_a   10.07978200
_cell_length_b   10.07978053
_cell_length_c   6.35802200
_cell_angle_alpha   90.00000000
_cell_angle_beta   90.00000000
_cell_angle_gamma   120.00001139
_symmetry_Int_Tables_number   1
_chemical_formula_structural   Gd(ReO4)3
_chemical_formula_sum   'Gd2 Re6 O24'
_cell_volume   559.44168566
_cell_formula_units_Z   2
loop_
 _symmetry_equiv_pos_site_id
 _symmetry_equiv_pos_as_xyz
  1  'x, y, z'
loop_
 _atom_site_type_symbol
 _atom_site_label
 _atom_site_symmetry_multiplicity
 _atom_site_fract_x
 _atom_site_fract_y
 _atom_site_fract_z
 _atom_site_occupancy
  Gd  Gd0  1  0.666667  0.333333  0.750000  1
  Gd  Gd1  1  0.333333  0.666667  0.250000  1
  Re  Re2  1  0.605471  0.702401  0.750000  1
  Re  Re3  1  0.096931  0.394529  0.750000  1
  Re  Re4  1  0.297599  0.903069  0.750000  1
  Re  Re5  1  0.394529  0.297599  0.250000  1
  Re  Re6  1  0.903069  0.605471  0.250000  1
  Re  Re7  1  0.702401  0.096931  0.250000  1
  O  O8  1  0.560528  0.509874  0.750000  1
  O  O9  1  0.949346  0.439472  0.750000  1
  O  O10  1  0.490126  0.050654  0.750000  1
  O  O11  1  0.439472  0.490126  0.250000  1
  O  O12  1  0.050654  0.560528  0.250000  1
  O  O13  1  0.509874  0.949346  0.250000  1
  O  O14  1  0.472496  0.259892  0.023907  1
  O  O15  1  0.787394  0.527504  0.023907  1
  O  O16  1  0.740108  0.212606  0.023907  1
  O  O17  1  0.527504  0.740108  0.523907  1
  O  O18  1  0.212606  0.472496  0.523907  1
  O  O19  1  0.259892  0.787394  0.523907  1
  O  O20  1  0.527504  0.740108  0.976093  1
  O  O21  1  0.212606  0.472496  0.976093  1
  O  O22  1  0.259892  0.787394  0.976093  1
  O  O23  1  0.472496  0.259892  0.476093  1
  O  O24  1  0.787394  0.527504  0.476093  1
  O  O25  1  0.740108  0.212606  0.476093  1
  O  O26  1  0.801033  0.820245  0.750000  1
  O  O27  1  0.019212  0.198967  0.750000  1
  O  O28  1  0.179755  0.980788  0.750000  1
  O  O29  1  0.198967  0.179755  0.250000  1
  O  O30  1  0.980788  0.801033  0.250000  1
  O  O31  1  0.820245  0.019212  0.250000  1
