# generated using pymatgen
data_Hf18Re7POsW
_symmetry_space_group_name_H-M   'P 1'
_cell_length_a   8.61210000
_cell_length_b   8.61210054
_cell_length_c   8.59705100
_cell_angle_alpha   90.00000000
_cell_angle_beta   90.00000000
_cell_angle_gamma   119.99999794
_symmetry_Int_Tables_number   1
_chemical_formula_structural   Hf18Re7POsW
_chemical_formula_sum   'Hf18 Re7 P1 Os1 W1'
_cell_volume   552.20241156
_cell_formula_units_Z   1
loop_
 _symmetry_equiv_pos_site_id
 _symmetry_equiv_pos_as_xyz
  1  'x, y, z'
loop_
 _atom_site_type_symbol
 _atom_site_label
 _atom_site_symmetry_multiplicity
 _atom_site_fract_x
 _atom_site_fract_y
 _atom_site_fract_z
 _atom_site_occupancy
  Hf  Hf0  1  0.197597  0.802403  0.447791  1
  Hf  Hf1  1  0.197597  0.395193  0.447791  1
  Hf  Hf2  1  0.604807  0.802403  0.447791  1
  Hf  Hf3  1  0.803766  0.196234  0.549115  1
  Hf  Hf4  1  0.803766  0.607532  0.549115  1
  Hf  Hf5  1  0.392468  0.196234  0.549115  1
  Hf  Hf6  1  0.805141  0.194859  0.950704  1
  Hf  Hf7  1  0.805141  0.610282  0.950704  1
  Hf  Hf8  1  0.389718  0.194859  0.950704  1
  Hf  Hf9  1  0.196969  0.803031  0.052097  1
  Hf  Hf10  1  0.196969  0.393937  0.052097  1
  Hf  Hf11  1  0.606063  0.803031  0.052097  1
  Hf  Hf12  1  0.540842  0.459158  0.249584  1
  Hf  Hf13  1  0.540842  0.081684  0.249584  1
  Hf  Hf14  1  0.918316  0.459158  0.249584  1
  Hf  Hf15  1  0.459921  0.540079  0.750443  1
  Hf  Hf16  1  0.459921  0.919840  0.750443  1
  Hf  Hf17  1  0.080160  0.540079  0.750443  1
  Re  Re18  1  0.888740  0.111260  0.250571  1
  Re  Re19  1  0.888740  0.777479  0.250571  1
  Re  Re20  1  0.222521  0.111260  0.250571  1
  Re  Re21  1  0.110112  0.889888  0.749694  1
  Re  Re22  1  0.110112  0.220227  0.749694  1
  Re  Re23  1  0.779773  0.889888  0.749694  1
  Re  Re24  1  0.000000  0.000000  0.001185  1
  P  P25  1  0.666667  0.333333  0.750961  1
  Os  Os26  1  0.333333  0.666667  0.249508  1
  W  W27  1  0.000000  0.000000  0.498350  1
