# generated using pymatgen
data_CaTm2Ni6B2Ir
_symmetry_space_group_name_H-M   'P 1'
_cell_length_a   5.05269500
_cell_length_b   5.05269505
_cell_length_c   14.65949000
_cell_angle_alpha   90.00000000
_cell_angle_beta   90.00000000
_cell_angle_gamma   120.00000620
_symmetry_Int_Tables_number   1
_chemical_formula_structural   CaTm2Ni6B2Ir
_chemical_formula_sum   'Ca2 Tm4 Ni12 B4 Ir2'
_cell_volume   324.11239302
_cell_formula_units_Z   2
loop_
 _symmetry_equiv_pos_site_id
 _symmetry_equiv_pos_as_xyz
  1  'x, y, z'
loop_
 _atom_site_type_symbol
 _atom_site_label
 _atom_site_symmetry_multiplicity
 _atom_site_fract_x
 _atom_site_fract_y
 _atom_site_fract_z
 _atom_site_occupancy
  Ca  Ca0  1  0.333333  0.666667  0.532744  1
  Ca  Ca1  1  0.666667  0.333333  0.032744  1
  Tm  Tm2  1  0.666667  0.333333  0.469927  1
  Tm  Tm3  1  0.333333  0.666667  0.969927  1
  Tm  Tm4  1  0.333333  0.666667  0.749403  1
  Tm  Tm5  1  0.666667  0.333333  0.249403  1
  Ni  Ni6  1  0.164957  0.329914  0.152918  1
  Ni  Ni7  1  0.835043  0.670086  0.652918  1
  Ni  Ni8  1  0.670086  0.835043  0.152918  1
  Ni  Ni9  1  0.164957  0.835043  0.152918  1
  Ni  Ni10  1  0.835043  0.164957  0.652918  1
  Ni  Ni11  1  0.329914  0.164957  0.652918  1
  Ni  Ni12  1  0.835391  0.670781  0.846702  1
  Ni  Ni13  1  0.835391  0.164609  0.846702  1
  Ni  Ni14  1  0.329219  0.164609  0.846702  1
  Ni  Ni15  1  0.670781  0.835391  0.346702  1
  Ni  Ni16  1  0.164609  0.835391  0.346702  1
  Ni  Ni17  1  0.164609  0.329219  0.346702  1
  B  B18  1  0.333333  0.666667  0.250006  1
  B  B19  1  0.666667  0.333333  0.750006  1
  B  B20  1  0.000000  0.000000  0.249910  1
  B  B21  1  0.000000  0.000000  0.749910  1
  Ir  Ir22  1  0.000000  0.000000  0.999150  1
  Ir  Ir23  1  0.000000  0.000000  0.499150  1
