# generated using pymatgen
data_Ho12ZnNi4Hg
_symmetry_space_group_name_H-M   'P 1'
_cell_length_a   8.31608543
_cell_length_b   8.31451629
_cell_length_c   8.31608542
_cell_angle_alpha   112.48363777
_cell_angle_beta   109.42847133
_cell_angle_gamma   106.56341364
_symmetry_Int_Tables_number   1
_chemical_formula_structural   Ho12ZnNi4Hg
_chemical_formula_sum   'Ho12 Zn1 Ni4 Hg1'
_cell_volume   441.41781480
_cell_formula_units_Z   1
loop_
 _symmetry_equiv_pos_site_id
 _symmetry_equiv_pos_as_xyz
  1  'x, y, z'
loop_
 _atom_site_type_symbol
 _atom_site_label
 _atom_site_symmetry_multiplicity
 _atom_site_fract_x
 _atom_site_fract_y
 _atom_site_fract_z
 _atom_site_occupancy
  Ho  Ho0  1  0.429191  0.234375  0.194822  1
  Ho  Ho1  1  0.570809  0.765625  0.805178  1
  Ho  Ho2  1  0.039554  0.234375  0.805183  1
  Ho  Ho3  1  0.960446  0.765625  0.194817  1
  Ho  Ho4  1  0.179243  0.284749  0.463980  1
  Ho  Ho5  1  0.820757  0.715251  0.536020  1
  Ho  Ho6  1  0.179233  0.715251  0.894494  1
  Ho  Ho7  1  0.820767  0.284749  0.105506  1
  Ho  Ho8  1  0.324754  0.631833  0.307080  1
  Ho  Ho9  1  0.675246  0.368167  0.692920  1
  Ho  Ho10  1  0.324736  0.017704  0.692969  1
  Ho  Ho11  1  0.675264  0.982296  0.307031  1
  Zn  Zn12  1  0.000000  0.000000  0.000000  1
  Ni  Ni13  1  0.351246  0.000000  0.351246  1
  Ni  Ni14  1  0.648754  0.000000  0.648754  1
  Ni  Ni15  1  0.122103  0.621730  0.499627  1
  Ni  Ni16  1  0.877897  0.378270  0.500373  1
  Hg  Hg17  1  0.500000  0.500000  0.000000  1
