# generated using pymatgen
data_Er8Ti6Re3Si16Tc3
_symmetry_space_group_name_H-M   'P 1'
_cell_length_a   6.87462785
_cell_length_b   6.87472226
_cell_length_c   12.68773799
_cell_angle_alpha   89.65009079
_cell_angle_beta   90.19182597
_cell_angle_gamma   90.12224902
_symmetry_Int_Tables_number   1
_chemical_formula_structural   Er8Ti6Re3Si16Tc3
_chemical_formula_sum   'Er8 Ti6 Re3 Si16 Tc3'
_cell_volume   599.62129688
_cell_formula_units_Z   1
loop_
 _symmetry_equiv_pos_site_id
 _symmetry_equiv_pos_as_xyz
  1  'x, y, z'
loop_
 _atom_site_type_symbol
 _atom_site_label
 _atom_site_symmetry_multiplicity
 _atom_site_fract_x
 _atom_site_fract_y
 _atom_site_fract_z
 _atom_site_occupancy
  Er  Er0  1  0.339430  0.999638  0.469177  1
  Er  Er1  1  0.498791  0.839444  0.720972  1
  Er  Er2  1  0.499656  0.160214  0.218446  1
  Er  Er3  1  0.840753  0.497552  0.278534  1
  Er  Er4  1  0.159808  0.500087  0.782031  1
  Er  Er5  1  0.659885  0.999124  0.969583  1
  Er  Er6  1  0.001499  0.339743  0.530667  1
  Er  Er7  1  0.998357  0.659520  0.029266  1
  Ti  Ti8  1  0.501385  0.346044  0.627641  1
  Ti  Ti9  1  0.655546  0.498172  0.874873  1
  Ti  Ti10  1  0.346054  0.504203  0.376360  1
  Ti  Ti11  1  0.841710  0.994198  0.376761  1
  Ti  Ti12  1  0.003012  0.159564  0.124193  1
  Ti  Ti13  1  0.995909  0.845578  0.623154  1
  Re  Re14  1  0.669500  0.669064  0.498055  1
  Re  Re15  1  0.164531  0.982784  0.877320  1
  Re  Re16  1  0.504956  0.664664  0.124999  1
  Si  Si17  1  0.197401  0.127490  0.687004  1
  Si  Si18  1  0.375109  0.698862  0.936469  1
  Si  Si19  1  0.629255  0.298750  0.433144  1
  Si  Si20  1  0.695655  0.375322  0.066527  1
  Si  Si21  1  0.298698  0.630901  0.567592  1
  Si  Si22  1  0.797239  0.875823  0.182899  1
  Si  Si23  1  0.129253  0.200632  0.315793  1
  Si  Si24  1  0.872807  0.804667  0.817135  1
  Si  Si25  1  0.289375  0.954033  0.064428  1
  Si  Si26  1  0.540494  0.790975  0.312929  1
  Si  Si27  1  0.448426  0.210512  0.818858  1
  Si  Si28  1  0.791436  0.546053  0.683303  1
  Si  Si29  1  0.217571  0.463236  0.182095  1
  Si  Si30  1  0.707628  0.045104  0.567374  1
  Si  Si31  1  0.962017  0.279838  0.931825  1
  Si  Si32  1  0.045246  0.708765  0.432401  1
  Tc  Tc33  1  0.328534  0.329101  0.999290  1
  Tc  Tc34  1  0.166660  0.829771  0.250263  1
  Tc  Tc35  1  0.826420  0.170573  0.748641  1
