# generated using pymatgen
data_Dy8Er11ScSi15Ru
_symmetry_space_group_name_H-M   'P 1'
_cell_length_a   7.27994849
_cell_length_b   7.71166570
_cell_length_c   14.43879500
_cell_angle_alpha   90.00000000
_cell_angle_beta   90.00000000
_cell_angle_gamma   90.11424534
_symmetry_Int_Tables_number   1
_chemical_formula_structural   Dy8Er11ScSi15Ru
_chemical_formula_sum   'Dy8 Er11 Sc1 Si15 Ru1'
_cell_volume   810.59997906
_cell_formula_units_Z   1
loop_
 _symmetry_equiv_pos_site_id
 _symmetry_equiv_pos_as_xyz
  1  'x, y, z'
loop_
 _atom_site_type_symbol
 _atom_site_label
 _atom_site_symmetry_multiplicity
 _atom_site_fract_x
 _atom_site_fract_y
 _atom_site_fract_z
 _atom_site_occupancy
  Dy  Dy0  1  0.018840  0.182563  0.097396  1
  Dy  Dy1  1  0.984959  0.825559  0.906424  1
  Dy  Dy2  1  0.483726  0.680782  0.905844  1
  Dy  Dy3  1  0.984959  0.825559  0.593576  1
  Dy  Dy4  1  0.515812  0.317087  0.097170  1
  Dy  Dy5  1  0.018840  0.182563  0.402604  1
  Dy  Dy6  1  0.515812  0.317087  0.402830  1
  Dy  Dy7  1  0.483726  0.680782  0.594156  1
  Er  Er8  1  0.155802  0.516392  0.750000  1
  Er  Er9  1  0.841458  0.486306  0.250000  1
  Er  Er10  1  0.667765  0.987869  0.750000  1
  Er  Er11  1  0.312591  0.174043  0.626762  1
  Er  Er12  1  0.675622  0.824567  0.373798  1
  Er  Er13  1  0.176091  0.681469  0.374046  1
  Er  Er14  1  0.675622  0.824567  0.126202  1
  Er  Er15  1  0.835426  0.315346  0.625859  1
  Er  Er16  1  0.312591  0.174043  0.873238  1
  Er  Er17  1  0.835426  0.315346  0.874141  1
  Er  Er18  1  0.176091  0.681469  0.125954  1
  Sc  Sc19  1  0.340806  0.016795  0.250000  1
  Si  Si20  1  0.976329  0.902797  0.250000  1
  Si  Si21  1  0.472941  0.601744  0.250000  1
  Si  Si22  1  0.528141  0.395991  0.750000  1
  Si  Si23  1  0.279546  0.866179  0.750000  1
  Si  Si24  1  0.714575  0.130753  0.250000  1
  Si  Si25  1  0.223089  0.364122  0.250000  1
  Si  Si26  1  0.768884  0.624020  0.750000  1
  Si  Si27  1  0.157696  0.472670  0.536474  1
  Si  Si28  1  0.845690  0.532026  0.461607  1
  Si  Si29  1  0.345780  0.970856  0.458820  1
  Si  Si30  1  0.845690  0.532026  0.038393  1
  Si  Si31  1  0.650414  0.031281  0.537150  1
  Si  Si32  1  0.157696  0.472670  0.963526  1
  Si  Si33  1  0.650414  0.031281  0.962850  1
  Si  Si34  1  0.345780  0.970856  0.041180  1
  Ru  Ru35  1  0.025369  0.090533  0.750000  1
