# generated using pymatgen
data_Ca4Ge4Rh9Pb
_symmetry_space_group_name_H-M   'P 1'
_cell_length_a   12.27508259
_cell_length_b   12.27508270
_cell_length_c   12.27508206
_cell_angle_alpha   26.87368523
_cell_angle_beta   26.87368334
_cell_angle_gamma   26.87368243
_symmetry_Int_Tables_number   1
_chemical_formula_structural   Ca4Ge4Rh9Pb
_chemical_formula_sum   'Ca4 Ge4 Rh9 Pb1'
_cell_volume   333.28161967
_cell_formula_units_Z   1
loop_
 _symmetry_equiv_pos_site_id
 _symmetry_equiv_pos_as_xyz
  1  'x, y, z'
loop_
 _atom_site_type_symbol
 _atom_site_label
 _atom_site_symmetry_multiplicity
 _atom_site_fract_x
 _atom_site_fract_y
 _atom_site_fract_z
 _atom_site_occupancy
  Ca  Ca0  1  0.950602  0.950602  0.950602  1
  Ca  Ca1  1  0.854449  0.854449  0.854449  1
  Ca  Ca2  1  0.145551  0.145551  0.145551  1
  Ca  Ca3  1  0.049398  0.049398  0.049398  1
  Ge  Ge4  1  0.280219  0.280219  0.280219  1
  Ge  Ge5  1  0.386909  0.386909  0.386909  1
  Ge  Ge6  1  0.719781  0.719781  0.719781  1
  Ge  Ge7  1  0.613091  0.613091  0.613091  1
  Rh  Rh8  1  0.606938  0.606938  0.100378  1
  Rh  Rh9  1  0.899622  0.393062  0.393062  1
  Rh  Rh10  1  0.500000  0.000000  0.500000  1
  Rh  Rh11  1  0.393062  0.899622  0.393062  1
  Rh  Rh12  1  0.500000  0.500000  0.000000  1
  Rh  Rh13  1  0.100378  0.606938  0.606938  1
  Rh  Rh14  1  0.000000  0.500000  0.500000  1
  Rh  Rh15  1  0.393062  0.393062  0.899622  1
  Rh  Rh16  1  0.606938  0.100378  0.606938  1
  Pb  Pb17  1  0.500000  0.500000  0.500000  1
