# generated using pymatgen
data_Pr8Sc11Si16Mo
_symmetry_space_group_name_H-M   'P 1'
_cell_length_a   7.20423289
_cell_length_b   7.53943008
_cell_length_c   14.15318000
_cell_angle_alpha   90.00000000
_cell_angle_beta   90.00000000
_cell_angle_gamma   89.90420843
_symmetry_Int_Tables_number   1
_chemical_formula_structural   Pr8Sc11Si16Mo
_chemical_formula_sum   'Pr8 Sc11 Si16 Mo1'
_cell_volume   768.74036354
_cell_formula_units_Z   1
loop_
 _symmetry_equiv_pos_site_id
 _symmetry_equiv_pos_as_xyz
  1  'x, y, z'
loop_
 _atom_site_type_symbol
 _atom_site_label
 _atom_site_symmetry_multiplicity
 _atom_site_fract_x
 _atom_site_fract_y
 _atom_site_fract_z
 _atom_site_occupancy
  Pr  Pr0  1  0.011957  0.173408  0.403367  1
  Pr  Pr1  1  0.513206  0.326799  0.404471  1
  Pr  Pr2  1  0.491399  0.678026  0.899292  1
  Pr  Pr3  1  0.491399  0.678026  0.600708  1
  Pr  Pr4  1  0.984679  0.829832  0.600984  1
  Pr  Pr5  1  0.984679  0.829832  0.899016  1
  Pr  Pr6  1  0.513206  0.326799  0.095529  1
  Pr  Pr7  1  0.011957  0.173408  0.096633  1
  Sc  Sc8  1  0.328493  0.170336  0.627990  1
  Sc  Sc9  1  0.673256  0.826154  0.376260  1
  Sc  Sc10  1  0.172423  0.675805  0.375021  1
  Sc  Sc11  1  0.826161  0.320687  0.872493  1
  Sc  Sc12  1  0.826161  0.320687  0.627507  1
  Sc  Sc13  1  0.842849  0.501087  0.250000  1
  Sc  Sc14  1  0.342897  0.999294  0.250000  1
  Sc  Sc15  1  0.328493  0.170336  0.872010  1
  Sc  Sc16  1  0.172423  0.675805  0.124979  1
  Sc  Sc17  1  0.673256  0.826154  0.123740  1
  Sc  Sc18  1  0.158545  0.496513  0.750000  1
  Si  Si19  1  0.295478  0.884799  0.750000  1
  Si  Si20  1  0.470993  0.624377  0.250000  1
  Si  Si21  1  0.024033  0.117655  0.750000  1
  Si  Si22  1  0.531787  0.366711  0.750000  1
  Si  Si23  1  0.151153  0.464343  0.540366  1
  Si  Si24  1  0.967980  0.874527  0.250000  1
  Si  Si25  1  0.711656  0.117250  0.250000  1
  Si  Si26  1  0.851690  0.537102  0.037521  1
  Si  Si27  1  0.349386  0.963172  0.037986  1
  Si  Si28  1  0.151153  0.464343  0.959634  1
  Si  Si29  1  0.648507  0.036350  0.548358  1
  Si  Si30  1  0.349386  0.963172  0.462014  1
  Si  Si31  1  0.851690  0.537102  0.462479  1
  Si  Si32  1  0.787988  0.616418  0.750000  1
  Si  Si33  1  0.213499  0.381933  0.250000  1
  Si  Si34  1  0.648507  0.036350  0.951642  1
  Mo  Mo35  1  0.647677  0.015408  0.750000  1
