# generated using pymatgen
data_Y5Tm(CI5)2
_symmetry_space_group_name_H-M   'P 1'
_cell_length_a   7.67718918
_cell_length_b   9.50434894
_cell_length_c   9.59373700
_cell_angle_alpha   106.93096252
_cell_angle_beta   96.23789320
_cell_angle_gamma   104.22688455
_symmetry_Int_Tables_number   1
_chemical_formula_structural   Y5Tm(CI5)2
_chemical_formula_sum   'Y5 Tm1 C2 I10'
_cell_volume   636.76438208
_cell_formula_units_Z   1
loop_
 _symmetry_equiv_pos_site_id
 _symmetry_equiv_pos_as_xyz
  1  'x, y, z'
loop_
 _atom_site_type_symbol
 _atom_site_label
 _atom_site_symmetry_multiplicity
 _atom_site_fract_x
 _atom_site_fract_y
 _atom_site_fract_z
 _atom_site_occupancy
  Y  Y0  1  0.029397  0.743236  0.925759  1
  Y  Y1  1  0.103817  0.038144  0.781870  1
  Y  Y2  1  0.970421  0.256869  0.074216  1
  Y  Y3  1  0.895730  0.961466  0.217843  1
  Y  Y4  1  0.371650  0.131176  0.176304  1
  Tm  Tm5  1  0.630566  0.869623  0.824778  1
  C  C6  1  0.090246  0.029594  0.040745  1
  C  C7  1  0.907612  0.969822  0.958455  1
  I  I8  1  0.200940  0.738528  0.652117  1
  I  I9  1  0.911638  0.634833  0.177747  1
  I  I10  1  0.086872  0.364621  0.821496  1
  I  I11  1  0.744411  0.915151  0.545718  1
  I  I12  1  0.252231  0.083020  0.457420  1
  I  I13  1  0.655413  0.551559  0.728633  1
  I  I14  1  0.457880  0.810287  0.090943  1
  I  I15  1  0.803408  0.262574  0.350128  1
  I  I16  1  0.343282  0.452648  0.271061  1
  I  I17  1  0.544485  0.186850  0.904766  1
