# generated using pymatgen
data_Ho2Tm8In8RuPt3
_symmetry_space_group_name_H-M   'P 1'
_cell_length_a   3.59578400
_cell_length_b   8.06953863
_cell_length_c   18.10977712
_cell_angle_alpha   90.03957706
_cell_angle_beta   90.00000000
_cell_angle_gamma   90.00000000
_symmetry_Int_Tables_number   1
_chemical_formula_structural   Ho2Tm8In8RuPt3
_chemical_formula_sum   'Ho2 Tm8 In8 Ru1 Pt3'
_cell_volume   525.47892443
_cell_formula_units_Z   1
loop_
 _symmetry_equiv_pos_site_id
 _symmetry_equiv_pos_as_xyz
  1  'x, y, z'
loop_
 _atom_site_type_symbol
 _atom_site_label
 _atom_site_symmetry_multiplicity
 _atom_site_fract_x
 _atom_site_fract_y
 _atom_site_fract_z
 _atom_site_occupancy
  Ho  Ho0  1  0.000000  0.999533  0.000403  1
  Ho  Ho1  1  0.000000  0.500752  0.499261  1
  Tm  Tm2  1  0.000000  0.115971  0.411796  1
  Tm  Tm3  1  0.000000  0.883758  0.585587  1
  Tm  Tm4  1  0.000000  0.383695  0.914413  1
  Tm  Tm5  1  0.000000  0.618419  0.087188  1
  Tm  Tm6  1  0.000000  0.233471  0.222983  1
  Tm  Tm7  1  0.000000  0.757247  0.778564  1
  Tm  Tm8  1  0.000000  0.257149  0.721637  1
  Tm  Tm9  1  0.000000  0.750538  0.278407  1
  In  In10  1  0.500000  0.422869  0.350855  1
  In  In11  1  0.500000  0.574990  0.647973  1
  In  In12  1  0.500000  0.075273  0.852012  1
  In  In13  1  0.500000  0.931023  0.149959  1
  In  In14  1  0.500000  0.293750  0.066357  1
  In  In15  1  0.500000  0.707125  0.933714  1
  In  In16  1  0.500000  0.208232  0.566942  1
  In  In17  1  0.500000  0.795098  0.430830  1
  Ru  Ru18  1  0.500000  0.018974  0.304330  1
  Pt  Pt19  1  0.500000  0.976391  0.696266  1
  Pt  Pt20  1  0.500000  0.477001  0.804078  1
  Pt  Pt21  1  0.500000  0.518740  0.196446  1
