# generated using pymatgen
data_Nb6V4Si6N
_symmetry_space_group_name_H-M   'P 1'
_cell_length_a   7.45307900
_cell_length_b   7.45307997
_cell_length_c   4.98949900
_cell_angle_alpha   90.00000000
_cell_angle_beta   90.00000000
_cell_angle_gamma   120.00000903
_symmetry_Int_Tables_number   1
_chemical_formula_structural   Nb6V4Si6N
_chemical_formula_sum   'Nb6 V4 Si6 N1'
_cell_volume   240.02641447
_cell_formula_units_Z   1
loop_
 _symmetry_equiv_pos_site_id
 _symmetry_equiv_pos_as_xyz
  1  'x, y, z'
loop_
 _atom_site_type_symbol
 _atom_site_label
 _atom_site_symmetry_multiplicity
 _atom_site_fract_x
 _atom_site_fract_y
 _atom_site_fract_z
 _atom_site_occupancy
  Nb  Nb0  1  0.000000  0.757594  0.252413  1
  Nb  Nb1  1  0.242406  0.242406  0.252413  1
  Nb  Nb2  1  0.757594  0.000000  0.252413  1
  Nb  Nb3  1  0.000000  0.242406  0.747587  1
  Nb  Nb4  1  0.757594  0.757594  0.747587  1
  Nb  Nb5  1  0.242406  0.000000  0.747587  1
  V  V6  1  0.333333  0.666667  0.500000  1
  V  V7  1  0.666667  0.333333  0.500000  1
  V  V8  1  0.666667  0.333333  0.000000  1
  V  V9  1  0.333333  0.666667  0.000000  1
  Si  Si10  1  0.000000  0.407503  0.245294  1
  Si  Si11  1  0.592497  0.592497  0.245294  1
  Si  Si12  1  0.407503  0.000000  0.245294  1
  Si  Si13  1  0.000000  0.592497  0.754706  1
  Si  Si14  1  0.407503  0.407503  0.754706  1
  Si  Si15  1  0.592497  0.000000  0.754706  1
  N  N16  1  0.000000  0.000000  0.500000  1
