# generated using pymatgen
data_Sr2Ni9Mo3P7
_symmetry_space_group_name_H-M   'P 1'
_cell_length_a   9.31988600
_cell_length_b   9.31988597
_cell_length_c   3.75820500
_cell_angle_alpha   90.00000000
_cell_angle_beta   90.00000000
_cell_angle_gamma   120.00000011
_symmetry_Int_Tables_number   1
_chemical_formula_structural   Sr2Ni9Mo3P7
_chemical_formula_sum   'Sr2 Ni9 Mo3 P7'
_cell_volume   282.70422303
_cell_formula_units_Z   1
loop_
 _symmetry_equiv_pos_site_id
 _symmetry_equiv_pos_as_xyz
  1  'x, y, z'
loop_
 _atom_site_type_symbol
 _atom_site_label
 _atom_site_symmetry_multiplicity
 _atom_site_fract_x
 _atom_site_fract_y
 _atom_site_fract_z
 _atom_site_occupancy
  Sr  Sr0  1  0.000000  0.000000  0.763890  1
  Sr  Sr1  1  0.333333  0.666667  0.263822  1
  Ni  Ni2  1  0.514365  0.054451  0.263713  1
  Ni  Ni3  1  0.945549  0.459914  0.263713  1
  Ni  Ni4  1  0.540086  0.485635  0.263713  1
  Ni  Ni5  1  0.104705  0.385909  0.763819  1
  Ni  Ni6  1  0.614091  0.718796  0.763819  1
  Ni  Ni7  1  0.281204  0.895295  0.763819  1
  Ni  Ni8  1  0.239130  0.272228  0.263795  1
  Ni  Ni9  1  0.727772  0.966902  0.263795  1
  Ni  Ni10  1  0.033098  0.760870  0.263795  1
  Mo  Mo11  1  0.780822  0.549267  0.763780  1
  Mo  Mo12  1  0.450733  0.231556  0.763780  1
  Mo  Mo13  1  0.768444  0.219178  0.763780  1
  P  P14  1  0.666667  0.333333  0.263797  1
  P  P15  1  0.067422  0.624827  0.763841  1
  P  P16  1  0.375173  0.442596  0.763841  1
  P  P17  1  0.557404  0.932578  0.763841  1
  P  P18  1  0.261634  0.032007  0.263862  1
  P  P19  1  0.967993  0.229628  0.263862  1
  P  P20  1  0.770372  0.738366  0.263862  1
