# generated using pymatgen
data_Pr5TcBi2
_symmetry_space_group_name_H-M   'P 1'
_cell_length_a   8.43743700
_cell_length_b   9.26205800
_cell_length_c   12.86726100
_cell_angle_alpha   90.00000000
_cell_angle_beta   90.00000000
_cell_angle_gamma   90.00000000
_symmetry_Int_Tables_number   1
_chemical_formula_structural   Pr5TcBi2
_chemical_formula_sum   'Pr20 Tc4 Bi8'
_cell_volume   1005.55110978
_cell_formula_units_Z   4
loop_
 _symmetry_equiv_pos_site_id
 _symmetry_equiv_pos_as_xyz
  1  'x, y, z'
loop_
 _atom_site_type_symbol
 _atom_site_label
 _atom_site_symmetry_multiplicity
 _atom_site_fract_x
 _atom_site_fract_y
 _atom_site_fract_z
 _atom_site_occupancy
  Pr  Pr0  1  0.346040  0.750000  0.709327  1
  Pr  Pr1  1  0.653960  0.250000  0.290673  1
  Pr  Pr2  1  0.846040  0.250000  0.790673  1
  Pr  Pr3  1  0.153960  0.750000  0.209327  1
  Pr  Pr4  1  0.879066  0.750000  0.806029  1
  Pr  Pr5  1  0.120934  0.250000  0.193971  1
  Pr  Pr6  1  0.379066  0.250000  0.693971  1
  Pr  Pr7  1  0.620934  0.750000  0.306029  1
  Pr  Pr8  1  0.676292  0.538184  0.565052  1
  Pr  Pr9  1  0.323708  0.461816  0.434948  1
  Pr  Pr10  1  0.176292  0.461816  0.934948  1
  Pr  Pr11  1  0.323708  0.038184  0.434948  1
  Pr  Pr12  1  0.823708  0.538184  0.065052  1
  Pr  Pr13  1  0.676292  0.961816  0.565052  1
  Pr  Pr14  1  0.823708  0.961816  0.065052  1
  Pr  Pr15  1  0.176292  0.038184  0.934948  1
  Pr  Pr16  1  0.055983  0.750000  0.496946  1
  Pr  Pr17  1  0.944017  0.250000  0.503054  1
  Pr  Pr18  1  0.555983  0.250000  0.003054  1
  Pr  Pr19  1  0.444017  0.750000  0.996946  1
  Tc  Tc20  1  0.083486  0.750000  0.986374  1
  Tc  Tc21  1  0.916514  0.250000  0.013626  1
  Tc  Tc22  1  0.583486  0.250000  0.513626  1
  Tc  Tc23  1  0.416514  0.750000  0.486374  1
  Bi  Bi24  1  0.573860  0.505494  0.827568  1
  Bi  Bi25  1  0.426140  0.494506  0.172432  1
  Bi  Bi26  1  0.073860  0.494506  0.672432  1
  Bi  Bi27  1  0.426140  0.005494  0.172432  1
  Bi  Bi28  1  0.926140  0.505494  0.327568  1
  Bi  Bi29  1  0.573860  0.994506  0.827568  1
  Bi  Bi30  1  0.926140  0.994506  0.327568  1
  Bi  Bi31  1  0.073860  0.005494  0.672432  1
