# generated using pymatgen
data_TmLu5Si4(GeRu2)2
_symmetry_space_group_name_H-M   'P 1'
_cell_length_a   5.65670810
_cell_length_b   5.65670965
_cell_length_c   13.68411200
_cell_angle_alpha   90.00000000
_cell_angle_beta   90.00000000
_cell_angle_gamma   137.05503459
_symmetry_Int_Tables_number   1
_chemical_formula_structural   TmLu5Si4(GeRu2)2
_chemical_formula_sum   'Tm1 Lu5 Si4 Ge2 Ru4'
_cell_volume   298.31825612
_cell_formula_units_Z   1
loop_
 _symmetry_equiv_pos_site_id
 _symmetry_equiv_pos_as_xyz
  1  'x, y, z'
loop_
 _atom_site_type_symbol
 _atom_site_label
 _atom_site_symmetry_multiplicity
 _atom_site_fract_x
 _atom_site_fract_y
 _atom_site_fract_z
 _atom_site_occupancy
  Tm  Tm0  1  0.645373  0.354627  0.250000  1
  Lu  Lu1  1  0.354253  0.645747  0.750000  1
  Lu  Lu2  1  0.925393  0.074607  0.112356  1
  Lu  Lu3  1  0.074584  0.925416  0.887525  1
  Lu  Lu4  1  0.074584  0.925416  0.612475  1
  Lu  Lu5  1  0.925393  0.074607  0.387644  1
  Si  Si6  1  0.614726  0.385274  0.038413  1
  Si  Si7  1  0.385230  0.614770  0.961276  1
  Si  Si8  1  0.385230  0.614770  0.538724  1
  Si  Si9  1  0.614726  0.385274  0.461587  1
  Ge  Ge10  1  0.340600  0.659400  0.250000  1
  Ge  Ge11  1  0.659758  0.340242  0.750000  1
  Ru  Ru12  1  0.789106  0.210894  0.580446  1
  Ru  Ru13  1  0.210969  0.789031  0.419932  1
  Ru  Ru14  1  0.210969  0.789031  0.080068  1
  Ru  Ru15  1  0.789106  0.210894  0.919554  1
