# generated using pymatgen
data_NaPr6ZnBr12
_symmetry_space_group_name_H-M   'P 1'
_cell_length_a   9.55842172
_cell_length_b   9.55842144
_cell_length_c   9.55842119
_cell_angle_alpha   106.91905607
_cell_angle_beta   106.91904864
_cell_angle_gamma   106.91903903
_symmetry_Int_Tables_number   1
_chemical_formula_structural   NaPr6ZnBr12
_chemical_formula_sum   'Na1 Pr6 Zn1 Br12'
_cell_volume   728.88442160
_cell_formula_units_Z   1
loop_
 _symmetry_equiv_pos_site_id
 _symmetry_equiv_pos_as_xyz
  1  'x, y, z'
loop_
 _atom_site_type_symbol
 _atom_site_label
 _atom_site_symmetry_multiplicity
 _atom_site_fract_x
 _atom_site_fract_y
 _atom_site_fract_z
 _atom_site_occupancy
  Na  Na0  1  0.500000  0.500000  0.500000  1
  Pr  Pr1  1  0.112886  0.332095  0.034178  1
  Pr  Pr2  1  0.332095  0.034179  0.112885  1
  Pr  Pr3  1  0.034179  0.112885  0.332096  1
  Pr  Pr4  1  0.965822  0.887115  0.667905  1
  Pr  Pr5  1  0.667905  0.965822  0.887115  1
  Pr  Pr6  1  0.887114  0.667905  0.965822  1
  Zn  Zn7  1  0.000000  0.000000  0.000000  1
  Br  Br8  1  0.226741  0.690270  0.075954  1
  Br  Br9  1  0.454256  0.374412  0.152704  1
  Br  Br10  1  0.690271  0.075954  0.226741  1
  Br  Br11  1  0.924047  0.773259  0.309730  1
  Br  Br12  1  0.152704  0.454256  0.374412  1
  Br  Br13  1  0.374412  0.152704  0.454256  1
  Br  Br14  1  0.625588  0.847296  0.545745  1
  Br  Br15  1  0.847297  0.545744  0.625588  1
  Br  Br16  1  0.075954  0.226741  0.690271  1
  Br  Br17  1  0.309730  0.924047  0.773259  1
  Br  Br18  1  0.545744  0.625588  0.847297  1
  Br  Br19  1  0.773259  0.309730  0.924046  1
