# generated using pymatgen
data_NdSc(SnPd)2
_symmetry_space_group_name_H-M   'P 1'
_cell_length_a   7.65869000
_cell_length_b   7.65868941
_cell_length_c   7.66909600
_cell_angle_alpha   90.00000000
_cell_angle_beta   90.00000000
_cell_angle_gamma   119.99999389
_symmetry_Int_Tables_number   1
_chemical_formula_structural   NdSc(SnPd)2
_chemical_formula_sum   'Nd3 Sc3 Sn6 Pd6'
_cell_volume   389.56845354
_cell_formula_units_Z   3
loop_
 _symmetry_equiv_pos_site_id
 _symmetry_equiv_pos_as_xyz
  1  'x, y, z'
loop_
 _atom_site_type_symbol
 _atom_site_label
 _atom_site_symmetry_multiplicity
 _atom_site_fract_x
 _atom_site_fract_y
 _atom_site_fract_z
 _atom_site_occupancy
  Nd  Nd0  1  0.404375  0.000402  0.250000  1
  Nd  Nd1  1  0.596027  0.595625  0.250000  1
  Nd  Nd2  1  0.999598  0.403973  0.250000  1
  Sc  Sc3  1  0.389167  0.997676  0.750000  1
  Sc  Sc4  1  0.608509  0.610833  0.750000  1
  Sc  Sc5  1  0.002324  0.391491  0.750000  1
  Sn  Sn6  1  0.732362  0.001394  0.984185  1
  Sn  Sn7  1  0.269032  0.267638  0.515815  1
  Sn  Sn8  1  0.998606  0.730968  0.515815  1
  Sn  Sn9  1  0.998606  0.730968  0.984185  1
  Sn  Sn10  1  0.269032  0.267638  0.984185  1
  Sn  Sn11  1  0.732362  0.001394  0.515815  1
  Pd  Pd12  1  0.333333  0.666667  0.958299  1
  Pd  Pd13  1  0.333333  0.666667  0.541701  1
  Pd  Pd14  1  0.666667  0.333333  0.952949  1
  Pd  Pd15  1  0.666667  0.333333  0.547051  1
  Pd  Pd16  1  0.000000  0.000000  0.250000  1
  Pd  Pd17  1  0.000000  0.000000  0.750000  1
