# generated using pymatgen
data_Ho10Sn5Bi
_symmetry_space_group_name_H-M   'P 1'
_cell_length_a   8.96376500
_cell_length_b   8.95664765
_cell_length_c   6.49089900
_cell_angle_alpha   90.00000000
_cell_angle_beta   90.00000000
_cell_angle_gamma   120.02628640
_symmetry_Int_Tables_number   1
_chemical_formula_structural   Ho10Sn5Bi
_chemical_formula_sum   'Ho10 Sn5 Bi1'
_cell_volume   451.18675149
_cell_formula_units_Z   1
loop_
 _symmetry_equiv_pos_site_id
 _symmetry_equiv_pos_as_xyz
  1  'x, y, z'
loop_
 _atom_site_type_symbol
 _atom_site_label
 _atom_site_symmetry_multiplicity
 _atom_site_fract_x
 _atom_site_fract_y
 _atom_site_fract_z
 _atom_site_occupancy
  Ho  Ho0  1  0.994741  0.757937  0.750000  1
  Ho  Ho1  1  0.000411  0.238921  0.250000  1
  Ho  Ho2  1  0.761490  0.761079  0.250000  1
  Ho  Ho3  1  0.764898  0.000000  0.750000  1
  Ho  Ho4  1  0.236804  0.242063  0.750000  1
  Ho  Ho5  1  0.237437  0.000000  0.250000  1
  Ho  Ho6  1  0.332566  0.662835  0.498245  1
  Ho  Ho7  1  0.669732  0.337165  0.001755  1
  Ho  Ho8  1  0.669732  0.337165  0.498245  1
  Ho  Ho9  1  0.332566  0.662835  0.001755  1
  Sn  Sn10  1  0.395448  0.394375  0.250000  1
  Sn  Sn11  1  0.001073  0.605625  0.250000  1
  Sn  Sn12  1  0.999752  0.395712  0.750000  1
  Sn  Sn13  1  0.604040  0.604288  0.750000  1
  Sn  Sn14  1  0.605191  0.000000  0.250000  1
  Bi  Bi15  1  0.394119  0.000000  0.750000  1
