# generated using pymatgen
data_Eu8Lu12Si15Ge
_symmetry_space_group_name_H-M   'P 1'
_cell_length_a   7.43167200
_cell_length_b   7.72209494
_cell_length_c   14.64076000
_cell_angle_alpha   90.01131507
_cell_angle_beta   89.86707737
_cell_angle_gamma   90.03908355
_symmetry_Int_Tables_number   1
_chemical_formula_structural   Eu8Lu12Si15Ge
_chemical_formula_sum   'Eu8 Lu12 Si15 Ge1'
_cell_volume   840.20258628
_cell_formula_units_Z   1
loop_
 _symmetry_equiv_pos_site_id
 _symmetry_equiv_pos_as_xyz
  1  'x, y, z'
loop_
 _atom_site_type_symbol
 _atom_site_label
 _atom_site_symmetry_multiplicity
 _atom_site_fract_x
 _atom_site_fract_y
 _atom_site_fract_z
 _atom_site_occupancy
  Eu  Eu0  1  0.015567  0.174060  0.404434  1
  Eu  Eu1  1  0.516536  0.324737  0.404287  1
  Eu  Eu2  1  0.483501  0.674570  0.905104  1
  Eu  Eu3  1  0.486092  0.675856  0.595520  1
  Eu  Eu4  1  0.983258  0.825876  0.595146  1
  Eu  Eu5  1  0.983058  0.825549  0.905160  1
  Eu  Eu6  1  0.516687  0.325600  0.094983  1
  Eu  Eu7  1  0.016988  0.174783  0.094962  1
  Lu  Lu8  1  0.323128  0.174385  0.623661  1
  Lu  Lu9  1  0.677692  0.823940  0.376891  1
  Lu  Lu10  1  0.655968  0.984384  0.750404  1
  Lu  Lu11  1  0.176997  0.677207  0.376881  1
  Lu  Lu12  1  0.821086  0.323378  0.877513  1
  Lu  Lu13  1  0.821000  0.323817  0.622600  1
  Lu  Lu14  1  0.843666  0.484458  0.249921  1
  Lu  Lu15  1  0.344144  0.015827  0.249924  1
  Lu  Lu16  1  0.321094  0.176338  0.877523  1
  Lu  Lu17  1  0.178416  0.676758  0.122503  1
  Lu  Lu18  1  0.678474  0.823343  0.122422  1
  Lu  Lu19  1  0.156022  0.515632  0.751428  1
  Si  Si20  1  0.271890  0.885946  0.750383  1
  Si  Si21  1  0.471154  0.616799  0.249693  1
  Si  Si22  1  0.028050  0.117037  0.750223  1
  Si  Si23  1  0.528270  0.383167  0.750280  1
  Si  Si24  1  0.971526  0.883507  0.249476  1
  Si  Si25  1  0.727795  0.113408  0.249537  1
  Si  Si26  1  0.855179  0.532583  0.040359  1
  Si  Si27  1  0.355251  0.967477  0.040403  1
  Si  Si28  1  0.144695  0.467416  0.959681  1
  Si  Si29  1  0.645240  0.033289  0.540055  1
  Si  Si30  1  0.354583  0.967024  0.459734  1
  Si  Si31  1  0.850750  0.533497  0.458654  1
  Si  Si32  1  0.772743  0.613219  0.750176  1
  Si  Si33  1  0.227644  0.386985  0.249838  1
  Si  Si34  1  0.644532  0.032652  0.959657  1
  Ge  Ge35  1  0.151321  0.465497  0.540586  1
