# generated using pymatgen
data_Pr7Nd(WO6)4
_symmetry_space_group_name_H-M   'P 1'
_cell_length_a   5.48067812
_cell_length_b   9.47585525
_cell_length_c   10.34969742
_cell_angle_alpha   90.02409801
_cell_angle_beta   89.97811428
_cell_angle_gamma   90.01074502
_symmetry_Int_Tables_number   1
_chemical_formula_structural   Pr7Nd(WO6)4
_chemical_formula_sum   'Pr7 Nd1 W4 O24'
_cell_volume   537.50225468
_cell_formula_units_Z   1
loop_
 _symmetry_equiv_pos_site_id
 _symmetry_equiv_pos_as_xyz
  1  'x, y, z'
loop_
 _atom_site_type_symbol
 _atom_site_label
 _atom_site_symmetry_multiplicity
 _atom_site_fract_x
 _atom_site_fract_y
 _atom_site_fract_z
 _atom_site_occupancy
  Pr  Pr0  1  0.477004  0.603740  0.537609  1
  Pr  Pr1  1  0.976938  0.896307  0.462219  1
  Pr  Pr2  1  0.523048  0.103919  0.962424  1
  Pr  Pr3  1  0.022862  0.396039  0.037840  1
  Pr  Pr4  1  0.965966  0.781402  0.867858  1
  Pr  Pr5  1  0.466012  0.718672  0.132206  1
  Pr  Pr6  1  0.034234  0.281302  0.631872  1
  Nd  Nd7  1  0.534660  0.218607  0.368276  1
  W  W8  1  0.459069  0.996606  0.647539  1
  W  W9  1  0.958935  0.503106  0.352309  1
  W  W10  1  0.541039  0.496446  0.852273  1
  W  W11  1  0.041083  0.003972  0.148093  1
  O  O12  1  0.252836  0.088545  0.508764  1
  O  O13  1  0.751236  0.411169  0.490370  1
  O  O14  1  0.748323  0.588159  0.990621  1
  O  O15  1  0.248270  0.912056  0.009545  1
  O  O16  1  0.721443  0.112093  0.564883  1
  O  O17  1  0.222875  0.387700  0.433895  1
  O  O18  1  0.278176  0.611733  0.934472  1
  O  O19  1  0.778320  0.888375  0.065698  1
  O  O20  1  0.573864  0.849100  0.527953  1
  O  O21  1  0.073596  0.650514  0.472100  1
  O  O22  1  0.426119  0.349159  0.972070  1
  O  O23  1  0.926652  0.150817  0.027976  1
  O  O24  1  0.182419  0.862615  0.258939  1
  O  O25  1  0.682917  0.637487  0.741074  1
  O  O26  1  0.815839  0.361948  0.241546  1
  O  O27  1  0.317000  0.137465  0.758855  1
  O  O28  1  0.830002  0.050096  0.287868  1
  O  O29  1  0.330973  0.450588  0.712234  1
  O  O30  1  0.168539  0.549238  0.212217  1
  O  O31  1  0.669010  0.950740  0.787560  1
  O  O32  1  0.308820  0.134324  0.179730  1
  O  O33  1  0.808374  0.365865  0.821273  1
  O  O34  1  0.691933  0.634006  0.321276  1
  O  O35  1  0.191614  0.866090  0.678563  1
