# generated using pymatgen
data_LaY2Ho(Mo2O7)2
_symmetry_space_group_name_H-M   'P 1'
_cell_length_a   7.33549400
_cell_length_b   7.38373798
_cell_length_c   7.45415741
_cell_angle_alpha   60.62434566
_cell_angle_beta   60.52522247
_cell_angle_gamma   60.21590274
_symmetry_Int_Tables_number   1
_chemical_formula_structural   LaY2Ho(Mo2O7)2
_chemical_formula_sum   'La1 Y2 Ho1 Mo4 O14'
_cell_volume   288.41857220
_cell_formula_units_Z   1
loop_
 _symmetry_equiv_pos_site_id
 _symmetry_equiv_pos_as_xyz
  1  'x, y, z'
loop_
 _atom_site_type_symbol
 _atom_site_label
 _atom_site_symmetry_multiplicity
 _atom_site_fract_x
 _atom_site_fract_y
 _atom_site_fract_z
 _atom_site_occupancy
  La  La0  1  0.125000  0.125000  0.625000  1
  Y  Y1  1  0.125000  0.125000  0.125000  1
  Y  Y2  1  0.625000  0.125000  0.125000  1
  Ho  Ho3  1  0.125000  0.625000  0.125000  1
  Mo  Mo4  1  0.625000  0.625000  0.625000  1
  Mo  Mo5  1  0.125000  0.625000  0.625000  1
  Mo  Mo6  1  0.625000  0.125000  0.625000  1
  Mo  Mo7  1  0.625000  0.625000  0.125000  1
  O  O8  1  0.250645  0.257205  0.241505  1
  O  O9  1  0.999355  0.992795  0.008495  1
  O  O10  1  0.547072  0.958646  0.532702  1
  O  O11  1  0.287628  0.715753  0.285725  1
  O  O12  1  0.539106  0.534247  0.964275  1
  O  O13  1  0.962094  0.549085  0.526727  1
  O  O14  1  0.533450  0.968873  0.964226  1
  O  O15  1  0.961581  0.958646  0.532702  1
  O  O16  1  0.962372  0.534247  0.964275  1
  O  O17  1  0.716550  0.281127  0.285774  1
  O  O18  1  0.287906  0.700915  0.723273  1
  O  O19  1  0.710894  0.715753  0.285725  1
  O  O20  1  0.288419  0.291354  0.717298  1
  O  O21  1  0.702928  0.291354  0.717298  1
