# generated using pymatgen
data_Pr4Al17GaIr5Au
_symmetry_space_group_name_H-M   'P 1'
_cell_length_a   7.65511313
_cell_length_b   7.65511201
_cell_length_c   9.65304024
_cell_angle_alpha   89.92728347
_cell_angle_beta   89.92728136
_cell_angle_gamma   119.40775316
_symmetry_Int_Tables_number   1
_chemical_formula_structural   Pr4Al17GaIr5Au
_chemical_formula_sum   'Pr4 Al17 Ga1 Ir5 Au1'
_cell_volume   492.78506506
_cell_formula_units_Z   1
loop_
 _symmetry_equiv_pos_site_id
 _symmetry_equiv_pos_as_xyz
  1  'x, y, z'
loop_
 _atom_site_type_symbol
 _atom_site_label
 _atom_site_symmetry_multiplicity
 _atom_site_fract_x
 _atom_site_fract_y
 _atom_site_fract_z
 _atom_site_occupancy
  Pr  Pr0  1  0.995802  0.676883  0.250282  1
  Pr  Pr1  1  0.003955  0.326241  0.749822  1
  Pr  Pr2  1  0.676883  0.995802  0.250282  1
  Pr  Pr3  1  0.326241  0.003955  0.749822  1
  Al  Al4  1  0.860518  0.860518  0.742385  1
  Al  Al5  1  0.004125  0.345379  0.075922  1
  Al  Al6  1  0.995272  0.654623  0.923951  1
  Al  Al7  1  0.998153  0.663747  0.571220  1
  Al  Al8  1  0.336534  0.001706  0.429218  1
  Al  Al9  1  0.001706  0.336534  0.429218  1
  Al  Al10  1  0.663747  0.998153  0.571220  1
  Al  Al11  1  0.654623  0.995272  0.923951  1
  Al  Al12  1  0.345379  0.004125  0.075922  1
  Al  Al13  1  0.334055  0.334055  0.548867  1
  Al  Al14  1  0.664794  0.664794  0.453344  1
  Al  Al15  1  0.655302  0.655302  0.054852  1
  Al  Al16  1  0.343719  0.343719  0.943751  1
  Al  Al17  1  0.338530  0.549686  0.251190  1
  Al  Al18  1  0.660533  0.451423  0.748866  1
  Al  Al19  1  0.549686  0.338530  0.251190  1
  Al  Al20  1  0.451423  0.660533  0.748866  1
  Ga  Ga21  1  0.143566  0.143566  0.257212  1
  Ir  Ir22  1  0.670056  0.328477  0.000098  1
  Ir  Ir23  1  0.328477  0.670056  0.000098  1
  Ir  Ir24  1  0.328760  0.670063  0.499947  1
  Ir  Ir25  1  0.670063  0.328760  0.499947  1
  Ir  Ir26  1  0.998990  0.998990  0.502309  1
  Au  Au27  1  0.999108  0.999108  0.996245  1
