# generated using pymatgen
data_Zr24Pt7Rh
_symmetry_space_group_name_H-M   'P 1'
_cell_length_a   10.91831900
_cell_length_b   10.95736694
_cell_length_c   5.71005811
_cell_angle_alpha   89.86225466
_cell_angle_beta   90.00000000
_cell_angle_gamma   90.00000000
_symmetry_Int_Tables_number   1
_chemical_formula_structural   Zr24Pt7Rh
_chemical_formula_sum   'Zr24 Pt7 Rh1'
_cell_volume   683.12669615
_cell_formula_units_Z   1
loop_
 _symmetry_equiv_pos_site_id
 _symmetry_equiv_pos_as_xyz
  1  'x, y, z'
loop_
 _atom_site_type_symbol
 _atom_site_label
 _atom_site_symmetry_multiplicity
 _atom_site_fract_x
 _atom_site_fract_y
 _atom_site_fract_z
 _atom_site_occupancy
  Zr  Zr0  1  0.595114  0.095527  0.000125  1
  Zr  Zr1  1  0.290349  0.210682  0.999099  1
  Zr  Zr2  1  0.789266  0.291593  0.996954  1
  Zr  Zr3  1  0.094597  0.404891  0.999022  1
  Zr  Zr4  1  0.902903  0.594788  0.998028  1
  Zr  Zr5  1  0.210496  0.710297  0.000280  1
  Zr  Zr6  1  0.710046  0.789928  0.001552  1
  Zr  Zr7  1  0.405360  0.904551  0.998447  1
  Zr  Zr8  1  0.149217  0.000000  0.250001  1
  Zr  Zr9  1  0.850295  0.000000  0.250001  1
  Zr  Zr10  1  0.350562  0.500000  0.250001  1
  Zr  Zr11  1  0.650341  0.500000  0.250001  1
  Zr  Zr12  1  0.405360  0.095449  0.501552  1
  Zr  Zr13  1  0.710046  0.210072  0.498447  1
  Zr  Zr14  1  0.210496  0.289703  0.499719  1
  Zr  Zr15  1  0.902903  0.405212  0.501971  1
  Zr  Zr16  1  0.094597  0.595109  0.500977  1
  Zr  Zr17  1  0.789266  0.708407  0.503045  1
  Zr  Zr18  1  0.290349  0.789318  0.500900  1
  Zr  Zr19  1  0.595114  0.904473  0.499874  1
  Zr  Zr20  1  0.999818  0.149530  0.750816  1
  Zr  Zr21  1  0.502906  0.351822  0.750147  1
  Zr  Zr22  1  0.502906  0.648178  0.749853  1
  Zr  Zr23  1  0.999818  0.850470  0.749184  1
  Pt  Pt24  1  0.999473  0.204087  0.250299  1
  Pt  Pt25  1  0.500241  0.296447  0.249821  1
  Pt  Pt26  1  0.500241  0.703553  0.250181  1
  Pt  Pt27  1  0.999473  0.795913  0.249703  1
  Pt  Pt28  1  0.203862  0.000000  0.750000  1
  Pt  Pt29  1  0.796008  0.000000  0.750000  1
  Pt  Pt30  1  0.296019  0.500000  0.750000  1
  Rh  Rh31  1  0.702559  0.500000  0.750000  1
