# generated using pymatgen
data_HfZr3Fe2(Sb2Pd)2
_symmetry_space_group_name_H-M   'P 1'
_cell_length_a   7.62732172
_cell_length_b   7.63328720
_cell_length_c   7.63328682
_cell_angle_alpha   131.47757956
_cell_angle_beta   131.45999843
_cell_angle_gamma   71.08531880
_symmetry_Int_Tables_number   1
_chemical_formula_structural   HfZr3Fe2(Sb2Pd)2
_chemical_formula_sum   'Hf1 Zr3 Fe2 Sb4 Pd2'
_cell_volume   244.30066236
_cell_formula_units_Z   1
loop_
 _symmetry_equiv_pos_site_id
 _symmetry_equiv_pos_as_xyz
  1  'x, y, z'
loop_
 _atom_site_type_symbol
 _atom_site_label
 _atom_site_symmetry_multiplicity
 _atom_site_fract_x
 _atom_site_fract_y
 _atom_site_fract_z
 _atom_site_occupancy
  Hf  Hf0  1  0.875000  0.363197  0.988196  1
  Zr  Zr1  1  0.375000  0.887092  0.012092  1
  Zr  Zr2  1  0.113015  0.125108  0.488162  1
  Zr  Zr3  1  0.636984  0.625147  0.512094  1
  Fe  Fe4  1  0.999566  0.001589  0.000027  1
  Fe  Fe5  1  0.750434  0.250460  0.502023  1
  Sb  Sb6  1  0.640188  0.125353  0.014523  1
  Sb  Sb7  1  0.375000  0.360125  0.485125  1
  Sb  Sb8  1  0.875000  0.891218  0.516218  1
  Sb  Sb9  1  0.109812  0.624336  0.985164  1
  Pd  Pd10  1  0.502663  0.499053  0.999983  1
  Pd  Pd11  1  0.247337  0.747320  0.496390  1
