# generated using pymatgen
data_La13ThNiIr5
_symmetry_space_group_name_H-M   'P 1'
_cell_length_a   6.55842539
_cell_length_b   10.19903392
_cell_length_c   10.19903329
_cell_angle_alpha   119.59366422
_cell_angle_beta   90.12996461
_cell_angle_gamma   89.87004430
_symmetry_Int_Tables_number   1
_chemical_formula_structural   La13ThNiIr5
_chemical_formula_sum   'La13 Th1 Ni1 Ir5'
_cell_volume   593.21273220
_cell_formula_units_Z   1
loop_
 _symmetry_equiv_pos_site_id
 _symmetry_equiv_pos_as_xyz
  1  'x, y, z'
loop_
 _atom_site_type_symbol
 _atom_site_label
 _atom_site_symmetry_multiplicity
 _atom_site_fract_x
 _atom_site_fract_y
 _atom_site_fract_z
 _atom_site_occupancy
  La  La0  1  0.978755  0.667707  0.332293  1
  La  La1  1  0.247468  0.126112  0.873888  1
  La  La2  1  0.248324  0.745873  0.872639  1
  La  La3  1  0.248324  0.127361  0.254127  1
  La  La4  1  0.743757  0.873120  0.126880  1
  La  La5  1  0.745853  0.252002  0.126527  1
  La  La6  1  0.745853  0.873473  0.747998  1
  La  La7  1  0.435521  0.537546  0.462454  1
  La  La8  1  0.434554  0.925926  0.460923  1
  La  La9  1  0.434554  0.539077  0.074074  1
  La  La10  1  0.941261  0.460357  0.539643  1
  La  La11  1  0.940995  0.078965  0.541007  1
  La  La12  1  0.940995  0.458993  0.921035  1
  Th  Th13  1  0.480518  0.333156  0.666844  1
  Ni  Ni14  1  0.194471  0.811851  0.188149  1
  Ir  Ir15  1  0.191451  0.377304  0.187730  1
  Ir  Ir16  1  0.191451  0.812270  0.622696  1
  Ir  Ir17  1  0.686300  0.191106  0.808894  1
  Ir  Ir18  1  0.685795  0.617336  0.809536  1
  Ir  Ir19  1  0.685795  0.190464  0.382664  1
