# generated using pymatgen
data_La7YbSiPd24
_symmetry_space_group_name_H-M   'P 1'
_cell_length_a   8.50284646
_cell_length_b   8.50284646
_cell_length_c   8.50284646
_cell_angle_alpha   89.97343406
_cell_angle_beta   89.97343406
_cell_angle_gamma   89.97343406
_symmetry_Int_Tables_number   1
_chemical_formula_structural   La7YbSiPd24
_chemical_formula_sum   'La7 Yb1 Si1 Pd24'
_cell_volume   614.74197798
_cell_formula_units_Z   1
loop_
 _symmetry_equiv_pos_site_id
 _symmetry_equiv_pos_as_xyz
  1  'x, y, z'
loop_
 _atom_site_type_symbol
 _atom_site_label
 _atom_site_symmetry_multiplicity
 _atom_site_fract_x
 _atom_site_fract_y
 _atom_site_fract_z
 _atom_site_occupancy
  La  La0  1  0.746923  0.746923  0.746923  1
  La  La1  1  0.746538  0.746538  0.253115  1
  La  La2  1  0.746538  0.253115  0.746538  1
  La  La3  1  0.253455  0.253455  0.746304  1
  La  La4  1  0.253455  0.746304  0.253455  1
  La  La5  1  0.253115  0.746538  0.746538  1
  La  La6  1  0.746304  0.253455  0.253455  1
  Yb  Yb7  1  0.252460  0.252460  0.252460  1
  Si  Si8  1  0.000646  0.000646  0.000646  1
  Pd  Pd9  1  0.258007  0.497960  0.002090  1
  Pd  Pd10  1  0.742250  0.499950  0.999837  1
  Pd  Pd11  1  0.002090  0.258007  0.497960  1
  Pd  Pd12  1  0.497960  0.258007  0.002090  1
  Pd  Pd13  1  0.999837  0.742250  0.499950  1
  Pd  Pd14  1  0.499950  0.742250  0.999837  1
  Pd  Pd15  1  0.497960  0.002090  0.258007  1
  Pd  Pd16  1  0.258007  0.002090  0.497960  1
  Pd  Pd17  1  0.499950  0.999837  0.742250  1
  Pd  Pd18  1  0.742250  0.999837  0.499950  1
  Pd  Pd19  1  0.002090  0.497960  0.258007  1
  Pd  Pd20  1  0.999837  0.499950  0.742250  1
  Pd  Pd21  1  0.252705  0.497592  0.497592  1
  Pd  Pd22  1  0.747204  0.500069  0.500069  1
  Pd  Pd23  1  0.497592  0.252705  0.497592  1
  Pd  Pd24  1  0.500069  0.747204  0.500069  1
  Pd  Pd25  1  0.497592  0.497592  0.252705  1
  Pd  Pd26  1  0.500069  0.500069  0.747204  1
  Pd  Pd27  1  0.281718  0.002630  0.002630  1
  Pd  Pd28  1  0.717739  0.000216  0.000216  1
  Pd  Pd29  1  0.002630  0.281718  0.002630  1
  Pd  Pd30  1  0.000216  0.717739  0.000216  1
  Pd  Pd31  1  0.002630  0.002630  0.281718  1
  Pd  Pd32  1  0.000216  0.000216  0.717739  1
