# generated using pymatgen
data_Tb7Dy9In4(OsRh)2
_symmetry_space_group_name_H-M   'P 1'
_cell_length_a   9.68300798
_cell_length_b   9.73194487
_cell_length_c   9.68425502
_cell_angle_alpha   59.82864163
_cell_angle_beta   59.63756869
_cell_angle_gamma   59.84151585
_symmetry_Int_Tables_number   1
_chemical_formula_structural   Tb7Dy9In4(OsRh)2
_chemical_formula_sum   'Tb7 Dy9 In4 Os2 Rh2'
_cell_volume   641.91312059
_cell_formula_units_Z   1
loop_
 _symmetry_equiv_pos_site_id
 _symmetry_equiv_pos_as_xyz
  1  'x, y, z'
loop_
 _atom_site_type_symbol
 _atom_site_label
 _atom_site_symmetry_multiplicity
 _atom_site_fract_x
 _atom_site_fract_y
 _atom_site_fract_z
 _atom_site_occupancy
  Tb  Tb0  1  0.043072  0.652444  0.652138  1
  Tb  Tb1  1  0.444855  0.058677  0.060212  1
  Tb  Tb2  1  0.437010  0.062989  0.437011  1
  Tb  Tb3  1  0.056501  0.443498  0.056501  1
  Tb  Tb4  1  0.652138  0.652347  0.043071  1
  Tb  Tb5  1  0.192510  0.807490  0.192510  1
  Tb  Tb6  1  0.060213  0.436255  0.444855  1
  Dy  Dy7  1  0.811082  0.806423  0.189858  1
  Dy  Dy8  1  0.809259  0.190740  0.809259  1
  Dy  Dy9  1  0.189859  0.192636  0.811082  1
  Dy  Dy10  1  0.651012  0.046878  0.650915  1
  Dy  Dy11  1  0.060029  0.058517  0.445041  1
  Dy  Dy12  1  0.445041  0.436413  0.060028  1
  Dy  Dy13  1  0.650914  0.651198  0.651012  1
  Dy  Dy14  1  0.811031  0.192671  0.189907  1
  Dy  Dy15  1  0.189906  0.806392  0.811030  1
  In  In16  1  0.418765  0.416906  0.418606  1
  In  In17  1  0.417541  0.417246  0.748156  1
  In  In18  1  0.418606  0.745723  0.418765  1
  In  In19  1  0.748155  0.417055  0.417542  1
  Os  Os20  1  0.857473  0.421903  0.857624  1
  Os  Os21  1  0.857624  0.863000  0.857473  1
  Rh  Rh22  1  0.857038  0.861359  0.420366  1
  Rh  Rh23  1  0.420366  0.861241  0.857036  1
