# generated using pymatgen
data_Rb6Hg2H9F
_symmetry_space_group_name_H-M   'P 1'
_cell_length_a   8.32230218
_cell_length_b   8.32230145
_cell_length_c   8.32230190
_cell_angle_alpha   122.23027898
_cell_angle_beta   122.23028112
_cell_angle_gamma   86.17858565
_symmetry_Int_Tables_number   1
_chemical_formula_structural   Rb6Hg2H9F
_chemical_formula_sum   'Rb6 Hg2 H9 F1'
_cell_volume   392.89068498
_cell_formula_units_Z   1
loop_
 _symmetry_equiv_pos_site_id
 _symmetry_equiv_pos_as_xyz
  1  'x, y, z'
loop_
 _atom_site_type_symbol
 _atom_site_label
 _atom_site_symmetry_multiplicity
 _atom_site_fract_x
 _atom_site_fract_y
 _atom_site_fract_z
 _atom_site_occupancy
  Rb  Rb0  1  0.814138  0.320473  0.134612  1
  Rb  Rb1  1  0.679527  0.814138  0.493665  1
  Rb  Rb2  1  0.320473  0.185862  0.506335  1
  Rb  Rb3  1  0.185862  0.679527  0.865388  1
  Rb  Rb4  1  0.252509  0.252509  0.000000  1
  Rb  Rb5  1  0.747491  0.747491  0.000000  1
  Hg  Hg6  1  0.250000  0.750000  0.500000  1
  Hg  Hg7  1  0.750000  0.250000  0.500000  1
  H  H8  1  0.000000  0.000000  0.000000  1
  H  H9  1  0.288112  0.532620  0.499931  1
  H  H10  1  0.032690  0.788182  0.500069  1
  H  H11  1  0.788182  0.288112  0.755492  1
  H  H12  1  0.532620  0.032690  0.244508  1
  H  H13  1  0.467380  0.967310  0.755492  1
  H  H14  1  0.211818  0.711888  0.244508  1
  H  H15  1  0.967310  0.211818  0.499931  1
  H  H16  1  0.711888  0.467380  0.500069  1
  F  F17  1  0.500000  0.500000  0.000000  1
