# generated using pymatgen
data_YbSmErGa8Ag3
_symmetry_space_group_name_H-M   'P 1'
_cell_length_a   4.36015928
_cell_length_b   8.38386699
_cell_length_c   8.38386746
_cell_angle_alpha   70.07494768
_cell_angle_beta   74.92798569
_cell_angle_gamma   74.92798942
_symmetry_Int_Tables_number   1
_chemical_formula_structural   YbSmErGa8Ag3
_chemical_formula_sum   'Yb1 Sm1 Er1 Ga8 Ag3'
_cell_volume   273.21000274
_cell_formula_units_Z   1
loop_
 _symmetry_equiv_pos_site_id
 _symmetry_equiv_pos_as_xyz
  1  'x, y, z'
loop_
 _atom_site_type_symbol
 _atom_site_label
 _atom_site_symmetry_multiplicity
 _atom_site_fract_x
 _atom_site_fract_y
 _atom_site_fract_z
 _atom_site_occupancy
  Yb  Yb0  1  0.197400  0.802600  0.802600  1
  Sm  Sm1  1  0.500384  0.499616  0.499616  1
  Er  Er2  1  0.799869  0.200131  0.200131  1
  Ga  Ga3  1  0.358086  0.359776  0.924052  1
  Ga  Ga4  1  0.644235  0.636903  0.074627  1
  Ga  Ga5  1  0.358086  0.924052  0.359776  1
  Ga  Ga6  1  0.644235  0.074627  0.636903  1
  Ga  Ga7  1  0.160218  0.469535  0.210030  1
  Ga  Ga8  1  0.838102  0.530354  0.793442  1
  Ga  Ga9  1  0.160218  0.210030  0.469535  1
  Ga  Ga10  1  0.838102  0.793442  0.530354  1
  Ag  Ag11  1  0.500005  0.999995  0.999995  1
  Ag  Ag12  1  0.000530  0.803869  0.195071  1
  Ag  Ag13  1  0.000530  0.195071  0.803869  1
