# generated using pymatgen
data_Er12TlCo4Ru
_symmetry_space_group_name_H-M   'P 1'
_cell_length_a   8.20101898
_cell_length_b   8.20101904
_cell_length_c   8.20101900
_cell_angle_alpha   111.33547093
_cell_angle_beta   110.79411892
_cell_angle_gamma   106.32951034
_symmetry_Int_Tables_number   1
_chemical_formula_structural   Er12TlCo4Ru
_chemical_formula_sum   'Er12 Tl1 Co4 Ru1'
_cell_volume   423.64072679
_cell_formula_units_Z   1
loop_
 _symmetry_equiv_pos_site_id
 _symmetry_equiv_pos_as_xyz
  1  'x, y, z'
loop_
 _atom_site_type_symbol
 _atom_site_label
 _atom_site_symmetry_multiplicity
 _atom_site_fract_x
 _atom_site_fract_y
 _atom_site_fract_z
 _atom_site_occupancy
  Er  Er0  1  0.183321  0.283446  0.466767  1
  Er  Er1  1  0.816679  0.716554  0.533233  1
  Er  Er2  1  0.183321  0.716554  0.899875  1
  Er  Er3  1  0.816679  0.283446  0.100125  1
  Er  Er4  1  0.313561  0.620081  0.306520  1
  Er  Er5  1  0.686439  0.379919  0.693480  1
  Er  Er6  1  0.313561  0.007041  0.693480  1
  Er  Er7  1  0.686439  0.992959  0.306520  1
  Er  Er8  1  0.412429  0.218027  0.194402  1
  Er  Er9  1  0.587571  0.781973  0.805598  1
  Er  Er10  1  0.023625  0.218027  0.805598  1
  Er  Er11  1  0.976375  0.781973  0.194402  1
  Tl  Tl12  1  0.500000  0.500000  0.000000  1
  Co  Co13  1  0.111857  0.611857  0.500000  1
  Co  Co14  1  0.888143  0.388143  0.500000  1
  Co  Co15  1  0.376015  0.000000  0.376015  1
  Co  Co16  1  0.623985  0.000000  0.623985  1
  Ru  Ru17  1  0.000000  0.000000  0.000000  1
