# generated using pymatgen
data_Dy3Ho9Ir4
_symmetry_space_group_name_H-M   'P 1'
_cell_length_a   6.37095963
_cell_length_b   7.21211152
_cell_length_c   9.23736600
_cell_angle_alpha   90.00000000
_cell_angle_beta   90.00000000
_cell_angle_gamma   89.95265387
_symmetry_Int_Tables_number   1
_chemical_formula_structural   Dy3Ho9Ir4
_chemical_formula_sum   'Dy3 Ho9 Ir4'
_cell_volume   424.43900738
_cell_formula_units_Z   1
loop_
 _symmetry_equiv_pos_site_id
 _symmetry_equiv_pos_as_xyz
  1  'x, y, z'
loop_
 _atom_site_type_symbol
 _atom_site_label
 _atom_site_symmetry_multiplicity
 _atom_site_fract_x
 _atom_site_fract_y
 _atom_site_fract_z
 _atom_site_occupancy
  Dy  Dy0  1  0.868399  0.535389  0.250000  1
  Dy  Dy1  1  0.631761  0.035329  0.250000  1
  Dy  Dy2  1  0.131871  0.464455  0.750000  1
  Ho  Ho3  1  0.326582  0.677721  0.062769  1
  Ho  Ho4  1  0.173719  0.177314  0.437293  1
  Ho  Ho5  1  0.673419  0.322340  0.562994  1
  Ho  Ho6  1  0.825974  0.822571  0.936974  1
  Ho  Ho7  1  0.673419  0.322340  0.937006  1
  Ho  Ho8  1  0.825974  0.822571  0.563026  1
  Ho  Ho9  1  0.326582  0.677721  0.437231  1
  Ho  Ho10  1  0.173719  0.177314  0.062707  1
  Ho  Ho11  1  0.368264  0.964634  0.750000  1
  Ir  Ir12  1  0.048399  0.884509  0.250000  1
  Ir  Ir13  1  0.451498  0.384501  0.250000  1
  Ir  Ir14  1  0.952568  0.115085  0.750000  1
  Ir  Ir15  1  0.547853  0.616206  0.750000  1
