# generated using pymatgen
data_Cs3YV2O8
_symmetry_space_group_name_H-M   'P 1'
_cell_length_a   6.18963700
_cell_length_b   6.18963685
_cell_length_c   8.41534100
_cell_angle_alpha   90.00000000
_cell_angle_beta   90.00000000
_cell_angle_gamma   119.99999545
_symmetry_Int_Tables_number   1
_chemical_formula_structural   Cs3YV2O8
_chemical_formula_sum   'Cs3 Y1 V2 O8'
_cell_volume   279.21112594
_cell_formula_units_Z   1
loop_
 _symmetry_equiv_pos_site_id
 _symmetry_equiv_pos_as_xyz
  1  'x, y, z'
loop_
 _atom_site_type_symbol
 _atom_site_label
 _atom_site_symmetry_multiplicity
 _atom_site_fract_x
 _atom_site_fract_y
 _atom_site_fract_z
 _atom_site_occupancy
  Cs  Cs0  1  0.333333  0.666667  0.723635  1
  Cs  Cs1  1  0.666667  0.333333  0.276365  1
  Cs  Cs2  1  0.000000  0.000000  0.000000  1
  Y  Y3  1  0.000000  0.000000  0.500000  1
  V  V4  1  0.333333  0.666667  0.277225  1
  V  V5  1  0.666667  0.333333  0.722775  1
  O  O6  1  0.333333  0.666667  0.076270  1
  O  O7  1  0.666667  0.333333  0.923730  1
  O  O8  1  0.176543  0.823457  0.344450  1
  O  O9  1  0.823457  0.176543  0.655550  1
  O  O10  1  0.176543  0.353086  0.344450  1
  O  O11  1  0.823457  0.646914  0.655550  1
  O  O12  1  0.646914  0.823457  0.344450  1
  O  O13  1  0.353086  0.176543  0.655550  1
