# generated using pymatgen
data_Nb2Re22Tc2Mo3
_symmetry_space_group_name_H-M   'P 1'
_cell_length_a   8.38466892
_cell_length_b   8.37432923
_cell_length_c   8.37201308
_cell_angle_alpha   109.43861035
_cell_angle_beta   109.49123628
_cell_angle_gamma   109.49575824
_symmetry_Int_Tables_number   1
_chemical_formula_structural   Nb2Re22Tc2Mo3
_chemical_formula_sum   'Nb2 Re22 Tc2 Mo3'
_cell_volume   452.45962228
_cell_formula_units_Z   1
loop_
 _symmetry_equiv_pos_site_id
 _symmetry_equiv_pos_as_xyz
  1  'x, y, z'
loop_
 _atom_site_type_symbol
 _atom_site_label
 _atom_site_symmetry_multiplicity
 _atom_site_fract_x
 _atom_site_fract_y
 _atom_site_fract_z
 _atom_site_occupancy
  Nb  Nb0  1  0.999579  0.999708  0.004618  1
  Nb  Nb1  1  0.000120  0.000998  0.637069  1
  Re  Re2  1  0.684888  0.401445  0.999507  1
  Re  Re3  1  0.598315  0.282172  0.596793  1
  Re  Re4  1  0.402496  0.000858  0.686434  1
  Re  Re5  1  0.001490  0.402558  0.685277  1
  Re  Re6  1  0.283748  0.599003  0.599282  1
  Re  Re7  1  0.716849  0.314014  0.314057  1
  Re  Re8  1  0.316102  0.717655  0.315017  1
  Re  Re9  1  0.681403  0.998991  0.397553  1
  Re  Re10  1  0.000918  0.682236  0.399818  1
  Re  Re11  1  0.597957  0.597033  0.282613  1
  Re  Re12  1  0.804567  0.804261  0.181952  1
  Re  Re13  1  0.376631  0.195154  0.001119  1
  Re  Re14  1  0.194495  0.379011  0.000951  1
  Re  Re15  1  0.622954  0.817219  0.623421  1
  Re  Re16  1  0.374819  0.999826  0.193974  1
  Re  Re17  1  0.000608  0.375982  0.194454  1
  Re  Re18  1  0.816312  0.622064  0.622852  1
  Re  Re19  1  0.182337  0.805943  0.806751  1
  Re  Re20  1  0.806129  0.183311  0.806331  1
  Re  Re21  1  0.194295  0.999879  0.377975  1
  Re  Re22  1  0.000535  0.194745  0.377583  1
  Re  Re23  1  0.623273  0.622766  0.817695  1
  Tc  Tc24  1  0.318243  0.317344  0.716306  1
  Tc  Tc25  1  0.401532  0.685590  0.999486  1
  Mo  Mo26  1  0.638974  0.000069  0.999531  1
  Mo  Mo27  1  0.000037  0.638834  0.999678  1
  Mo  Mo28  1  0.360395  0.361331  0.361901  1
