# generated using pymatgen
data_Er11Cd8InPd4
_symmetry_space_group_name_H-M   'P 1'
_cell_length_a   12.99080370
_cell_length_b   12.99080343
_cell_length_c   3.68544800
_cell_angle_alpha   90.00000000
_cell_angle_beta   90.00000000
_cell_angle_gamma   111.83508768
_symmetry_Int_Tables_number   1
_chemical_formula_structural   Er11Cd8InPd4
_chemical_formula_sum   'Er11 Cd8 In1 Pd4'
_cell_volume   577.33930835
_cell_formula_units_Z   1
loop_
 _symmetry_equiv_pos_site_id
 _symmetry_equiv_pos_as_xyz
  1  'x, y, z'
loop_
 _atom_site_type_symbol
 _atom_site_label
 _atom_site_symmetry_multiplicity
 _atom_site_fract_x
 _atom_site_fract_y
 _atom_site_fract_z
 _atom_site_occupancy
  Er  Er0  1  0.414297  0.075929  0.000000  1
  Er  Er1  1  0.585703  0.924071  0.000000  1
  Er  Er2  1  0.075929  0.414297  0.000000  1
  Er  Er3  1  0.924071  0.585703  0.000000  1
  Er  Er4  1  0.164513  0.835487  0.000000  1
  Er  Er5  1  0.835487  0.164513  0.000000  1
  Er  Er6  1  0.372857  0.627143  0.000000  1
  Er  Er7  1  0.627143  0.372857  0.000000  1
  Er  Er8  1  0.302035  0.302035  0.000000  1
  Er  Er9  1  0.697965  0.697965  0.000000  1
  Er  Er10  1  0.000000  0.000000  0.000000  1
  Cd  Cd11  1  0.368801  0.844002  0.500000  1
  Cd  Cd12  1  0.631199  0.155998  0.500000  1
  Cd  Cd13  1  0.844004  0.368801  0.500000  1
  Cd  Cd14  1  0.155996  0.631199  0.500000  1
  Cd  Cd15  1  0.213497  0.064611  0.500000  1
  Cd  Cd16  1  0.786503  0.935389  0.500000  1
  Cd  Cd17  1  0.064610  0.213496  0.500000  1
  Cd  Cd18  1  0.935390  0.786504  0.500000  1
  In  In19  1  0.500000  0.500000  0.500000  1
  Pd  Pd20  1  0.448206  0.249576  0.500000  1
  Pd  Pd21  1  0.551794  0.750424  0.500000  1
  Pd  Pd22  1  0.249577  0.448206  0.500000  1
  Pd  Pd23  1  0.750423  0.551794  0.500000  1
