# generated using pymatgen
data_Y10Ho6In4RuRh3
_symmetry_space_group_name_H-M   'P 1'
_cell_length_a   9.67607266
_cell_length_b   9.69259489
_cell_length_c   9.67058065
_cell_angle_alpha   59.82848425
_cell_angle_beta   59.84898030
_cell_angle_gamma   59.84962751
_symmetry_Int_Tables_number   1
_chemical_formula_structural   Y10Ho6In4RuRh3
_chemical_formula_sum   'Y10 Ho6 In4 Ru1 Rh3'
_cell_volume   639.02847427
_cell_formula_units_Z   1
loop_
 _symmetry_equiv_pos_site_id
 _symmetry_equiv_pos_as_xyz
  1  'x, y, z'
loop_
 _atom_site_type_symbol
 _atom_site_label
 _atom_site_symmetry_multiplicity
 _atom_site_fract_x
 _atom_site_fract_y
 _atom_site_fract_z
 _atom_site_occupancy
  Y  Y0  1  0.188806  0.190568  0.810491  1
  Y  Y1  1  0.600561  0.600865  0.201035  1
  Y  Y2  1  0.440925  0.055805  0.440849  1
  Y  Y3  1  0.441200  0.441077  0.057582  1
  Y  Y4  1  0.811284  0.190186  0.810158  1
  Y  Y5  1  0.189533  0.812254  0.191625  1
  Y  Y6  1  0.439937  0.056984  0.060631  1
  Y  Y7  1  0.190469  0.812374  0.806808  1
  Y  Y8  1  0.059186  0.439961  0.058680  1
  Y  Y9  1  0.808600  0.812801  0.190305  1
  Ho  Ho10  1  0.202107  0.601238  0.599369  1
  Ho  Ho11  1  0.058113  0.440815  0.440751  1
  Ho  Ho12  1  0.061273  0.057056  0.439680  1
  Ho  Ho13  1  0.811565  0.189280  0.189484  1
  Ho  Ho14  1  0.600875  0.201473  0.599216  1
  Ho  Ho15  1  0.598331  0.599792  0.597370  1
  In  In16  1  0.832907  0.833267  0.833303  1
  In  In17  1  0.832630  0.833300  0.501054  1
  In  In18  1  0.500619  0.833249  0.833154  1
  In  In19  1  0.832654  0.501789  0.832997  1
  Ru  Ru20  1  0.389513  0.823564  0.395275  1
  Rh  Rh21  1  0.389471  0.390838  0.394331  1
  Rh  Rh22  1  0.825922  0.388800  0.395245  1
  Rh  Rh23  1  0.393519  0.392667  0.820607  1
