# generated using pymatgen
data_Y2Si3Ir
_symmetry_space_group_name_H-M   'P 1'
_cell_length_a   8.17502400
_cell_length_b   8.17502533
_cell_length_c   7.96926200
_cell_angle_alpha   90.00000000
_cell_angle_beta   90.00000000
_cell_angle_gamma   119.99999461
_symmetry_Int_Tables_number   1
_chemical_formula_structural   Y2Si3Ir
_chemical_formula_sum   'Y8 Si12 Ir4'
_cell_volume   461.23993668
_cell_formula_units_Z   4
loop_
 _symmetry_equiv_pos_site_id
 _symmetry_equiv_pos_as_xyz
  1  'x, y, z'
loop_
 _atom_site_type_symbol
 _atom_site_label
 _atom_site_symmetry_multiplicity
 _atom_site_fract_x
 _atom_site_fract_y
 _atom_site_fract_z
 _atom_site_occupancy
  Y  Y0  1  0.000000  0.000000  0.250000  1
  Y  Y1  1  0.000000  0.000000  0.750000  1
  Y  Y2  1  0.509107  0.490893  0.250000  1
  Y  Y3  1  0.509107  0.018213  0.250000  1
  Y  Y4  1  0.981787  0.490893  0.250000  1
  Y  Y5  1  0.490893  0.509107  0.750000  1
  Y  Y6  1  0.490893  0.981787  0.750000  1
  Y  Y7  1  0.018213  0.509107  0.750000  1
  Si  Si8  1  0.166974  0.833026  0.499462  1
  Si  Si9  1  0.166974  0.333947  0.499462  1
  Si  Si10  1  0.666053  0.833026  0.499462  1
  Si  Si11  1  0.833026  0.166974  0.500538  1
  Si  Si12  1  0.833026  0.666053  0.500538  1
  Si  Si13  1  0.333947  0.166974  0.500538  1
  Si  Si14  1  0.833026  0.166974  0.999462  1
  Si  Si15  1  0.833026  0.666053  0.999462  1
  Si  Si16  1  0.333947  0.166974  0.999462  1
  Si  Si17  1  0.166974  0.833026  0.000538  1
  Si  Si18  1  0.166974  0.333947  0.000538  1
  Si  Si19  1  0.666053  0.833026  0.000538  1
  Ir  Ir20  1  0.333333  0.666667  0.467832  1
  Ir  Ir21  1  0.666667  0.333333  0.532168  1
  Ir  Ir22  1  0.666667  0.333333  0.967832  1
  Ir  Ir23  1  0.333333  0.666667  0.032168  1
