# generated using pymatgen
data_Ba2Pd7O18
_symmetry_space_group_name_H-M   'P 1'
_cell_length_a   6.86397633
_cell_length_b   7.18199409
_cell_length_c   7.57662422
_cell_angle_alpha   92.44864733
_cell_angle_beta   95.16950900
_cell_angle_gamma   114.39173377
_symmetry_Int_Tables_number   1
_chemical_formula_structural   Ba2Pd7O18
_chemical_formula_sum   'Ba2 Pd7 O18'
_cell_volume   337.46554038
_cell_formula_units_Z   1
loop_
 _symmetry_equiv_pos_site_id
 _symmetry_equiv_pos_as_xyz
  1  'x, y, z'
loop_
 _atom_site_type_symbol
 _atom_site_label
 _atom_site_symmetry_multiplicity
 _atom_site_fract_x
 _atom_site_fract_y
 _atom_site_fract_z
 _atom_site_occupancy
  Ba  Ba0  1  0.682210  0.310879  0.380236  1
  Ba  Ba1  1  0.317790  0.689121  0.619764  1
  Pd  Pd2  1  0.402099  0.285860  0.887992  1
  Pd  Pd3  1  0.597901  0.714140  0.112008  1
  Pd  Pd4  1  0.178161  0.380408  0.195553  1
  Pd  Pd5  1  0.821839  0.619592  0.804447  1
  Pd  Pd6  1  0.815974  0.127707  0.821416  1
  Pd  Pd7  1  0.184026  0.872293  0.178584  1
  Pd  Pd8  1  0.000000  0.000000  0.500000  1
  O  O9  1  0.310567  0.512299  0.974389  1
  O  O10  1  0.689433  0.487701  0.025611  1
  O  O11  1  0.507232  0.075300  0.832426  1
  O  O12  1  0.492768  0.924700  0.167574  1
  O  O13  1  0.916822  0.402982  0.727690  1
  O  O14  1  0.083178  0.597018  0.272310  1
  O  O15  1  0.302488  0.177109  0.124163  1
  O  O16  1  0.697512  0.822891  0.875837  1
  O  O17  1  0.097744  0.103178  0.765092  1
  O  O18  1  0.474070  0.561922  0.317414  1
  O  O19  1  0.525930  0.438078  0.682586  1
  O  O20  1  0.115016  0.779461  0.923991  1
  O  O21  1  0.884984  0.220539  0.076009  1
  O  O22  1  0.727435  0.005042  0.568533  1
  O  O23  1  0.272565  0.994958  0.431467  1
  O  O24  1  0.914141  0.715634  0.570089  1
  O  O25  1  0.085859  0.284366  0.429911  1
  O  O26  1  0.902256  0.896822  0.234908  1
