# generated using pymatgen
data_La5FeRhO12
_symmetry_space_group_name_H-M   'P 1'
_cell_length_a   7.15746592
_cell_length_b   7.15746635
_cell_length_c   7.75624300
_cell_angle_alpha   74.42680658
_cell_angle_beta   74.42680563
_cell_angle_gamma   50.84783210
_symmetry_Int_Tables_number   1
_chemical_formula_structural   La5FeRhO12
_chemical_formula_sum   'La5 Fe1 Rh1 O12'
_cell_volume   294.20318954
_cell_formula_units_Z   1
loop_
 _symmetry_equiv_pos_site_id
 _symmetry_equiv_pos_as_xyz
  1  'x, y, z'
loop_
 _atom_site_type_symbol
 _atom_site_label
 _atom_site_symmetry_multiplicity
 _atom_site_fract_x
 _atom_site_fract_y
 _atom_site_fract_z
 _atom_site_occupancy
  La  La0  1  0.311138  0.307633  0.355895  1
  La  La1  1  0.692367  0.688862  0.644105  1
  La  La2  1  0.690037  0.692391  0.166369  1
  La  La3  1  0.307609  0.309963  0.833631  1
  La  La4  1  0.003433  0.996567  0.500000  1
  Fe  Fe5  1  0.756216  0.243784  0.000000  1
  Rh  Rh6  1  0.240874  0.759126  0.000000  1
  O  O7  1  0.094277  0.594712  0.579284  1
  O  O8  1  0.004413  0.994649  0.172734  1
  O  O9  1  0.405288  0.905723  0.420716  1
  O  O10  1  0.493195  0.508872  0.172621  1
  O  O11  1  0.099709  0.582551  0.078558  1
  O  O12  1  0.906715  0.402252  0.420799  1
  O  O13  1  0.005351  0.995587  0.827266  1
  O  O14  1  0.597748  0.093284  0.579201  1
  O  O15  1  0.491128  0.506805  0.827379  1
  O  O16  1  0.588422  0.105372  0.075273  1
  O  O17  1  0.417449  0.900291  0.921442  1
  O  O18  1  0.894628  0.411578  0.924727  1
