# generated using pymatgen
data_ThSc4CdPd14
_symmetry_space_group_name_H-M   'P 1'
_cell_length_a   4.09169900
_cell_length_b   4.02300000
_cell_length_c   20.52013100
_cell_angle_alpha   90.00000000
_cell_angle_beta   90.00000000
_cell_angle_gamma   90.00000000
_symmetry_Int_Tables_number   1
_chemical_formula_structural   ThSc4CdPd14
_chemical_formula_sum   'Th1 Sc4 Cd1 Pd14'
_cell_volume   337.77992856
_cell_formula_units_Z   1
loop_
 _symmetry_equiv_pos_site_id
 _symmetry_equiv_pos_as_xyz
  1  'x, y, z'
loop_
 _atom_site_type_symbol
 _atom_site_label
 _atom_site_symmetry_multiplicity
 _atom_site_fract_x
 _atom_site_fract_y
 _atom_site_fract_z
 _atom_site_occupancy
  Th  Th0  1  0.000000  0.000000  0.000000  1
  Sc  Sc1  1  0.000000  0.000000  0.201462  1
  Sc  Sc2  1  0.000000  0.000000  0.388614  1
  Sc  Sc3  1  0.000000  0.000000  0.611386  1
  Sc  Sc4  1  0.000000  0.000000  0.798538  1
  Cd  Cd5  1  0.500000  0.000000  0.500000  1
  Pd  Pd6  1  0.500000  0.500000  0.000000  1
  Pd  Pd7  1  0.500000  0.500000  0.202140  1
  Pd  Pd8  1  0.500000  0.500000  0.398513  1
  Pd  Pd9  1  0.500000  0.500000  0.601487  1
  Pd  Pd10  1  0.500000  0.500000  0.797860  1
  Pd  Pd11  1  0.500000  0.000000  0.104535  1
  Pd  Pd12  1  0.500000  0.000000  0.299554  1
  Pd  Pd13  1  0.500000  0.000000  0.700446  1
  Pd  Pd14  1  0.500000  0.000000  0.895465  1
  Pd  Pd15  1  0.000000  0.500000  0.104928  1
  Pd  Pd16  1  0.000000  0.500000  0.299220  1
  Pd  Pd17  1  0.000000  0.500000  0.500000  1
  Pd  Pd18  1  0.000000  0.500000  0.700780  1
  Pd  Pd19  1  0.000000  0.500000  0.895072  1
