# generated using pymatgen
data_Ti8Mn(Al2Ir)7
_symmetry_space_group_name_H-M   'P 1'
_cell_length_a   8.64110823
_cell_length_b   8.64110702
_cell_length_c   8.64110802
_cell_angle_alpha   120.17829779
_cell_angle_beta   119.80995113
_cell_angle_gamma   90.01047307
_symmetry_Int_Tables_number   1
_chemical_formula_structural   Ti8Mn(Al2Ir)7
_chemical_formula_sum   'Ti8 Mn1 Al14 Ir7'
_cell_volume   456.27451986
_cell_formula_units_Z   1
loop_
 _symmetry_equiv_pos_site_id
 _symmetry_equiv_pos_as_xyz
  1  'x, y, z'
loop_
 _atom_site_type_symbol
 _atom_site_label
 _atom_site_symmetry_multiplicity
 _atom_site_fract_x
 _atom_site_fract_y
 _atom_site_fract_z
 _atom_site_occupancy
  Ti  Ti0  1  0.804526  0.300574  0.096307  1
  Ti  Ti1  1  0.204267  0.300574  0.496050  1
  Ti  Ti2  1  0.194067  0.694067  0.500000  1
  Ti  Ti3  1  0.204267  0.708218  0.903693  1
  Ti  Ti4  1  0.804526  0.708218  0.503950  1
  Ti  Ti5  1  0.790253  0.290253  0.500000  1
  Ti  Ti6  1  0.378621  0.122507  0.743887  1
  Ti  Ti7  1  0.378621  0.634734  0.256113  1
  Mn  Mn8  1  0.994885  0.494885  0.500000  1
  Al  Al9  1  0.157152  0.340297  0.183143  1
  Al  Al10  1  0.157152  0.974010  0.816857  1
  Al  Al11  1  0.150110  0.347133  0.802977  1
  Al  Al12  1  0.544155  0.347133  0.197023  1
  Al  Al13  1  0.845175  0.652103  0.806929  1
  Al  Al14  1  0.845175  0.038247  0.193071  1
  Al  Al15  1  0.840753  0.656478  0.184275  1
  Al  Al16  1  0.472203  0.656478  0.815725  1
  Al  Al17  1  0.379914  0.120638  0.259276  1
  Al  Al18  1  0.861363  0.120638  0.740724  1
  Al  Al19  1  0.620956  0.878357  0.257401  1
  Al  Al20  1  0.620956  0.363556  0.742599  1
  Al  Al21  1  0.621410  0.878424  0.742986  1
  Al  Al22  1  0.135438  0.878424  0.257014  1
  Ir  Ir23  1  0.001857  0.999223  0.501877  1
  Ir  Ir24  1  0.497346  0.999223  0.997366  1
  Ir  Ir25  1  0.497489  0.497489  0.000000  1
  Ir  Ir26  1  0.497346  0.499979  0.498123  1
  Ir  Ir27  1  0.001857  0.499979  0.002634  1
  Ir  Ir28  1  0.999686  0.999686  0.000000  1
  Ir  Ir29  1  0.498470  0.998470  0.500000  1
