# generated using pymatgen
data_HoLuCo12AsP6
_symmetry_space_group_name_H-M   'P 1'
_cell_length_a   9.05151000
_cell_length_b   9.05151171
_cell_length_c   3.55932900
_cell_angle_alpha   90.00000000
_cell_angle_beta   90.00000000
_cell_angle_gamma   120.00000106
_symmetry_Int_Tables_number   1
_chemical_formula_structural   HoLuCo12AsP6
_chemical_formula_sum   'Ho1 Lu1 Co12 As1 P6'
_cell_volume   252.54624368
_cell_formula_units_Z   1
loop_
 _symmetry_equiv_pos_site_id
 _symmetry_equiv_pos_as_xyz
  1  'x, y, z'
loop_
 _atom_site_type_symbol
 _atom_site_label
 _atom_site_symmetry_multiplicity
 _atom_site_fract_x
 _atom_site_fract_y
 _atom_site_fract_z
 _atom_site_occupancy
  Ho  Ho0  1  0.666667  0.333333  0.500000  1
  Lu  Lu1  1  0.333333  0.666667  0.000000  1
  Co  Co2  1  0.124417  0.840717  0.000000  1
  Co  Co3  1  0.384414  0.439706  0.500000  1
  Co  Co4  1  0.716300  0.875583  0.000000  1
  Co  Co5  1  0.560294  0.944707  0.500000  1
  Co  Co6  1  0.250674  0.110453  0.500000  1
  Co  Co7  1  0.859779  0.749326  0.500000  1
  Co  Co8  1  0.889547  0.140221  0.500000  1
  Co  Co9  1  0.939615  0.376140  0.000000  1
  Co  Co10  1  0.623860  0.563477  0.000000  1
  Co  Co11  1  0.436523  0.060385  0.000000  1
  Co  Co12  1  0.055293  0.615586  0.500000  1
  Co  Co13  1  0.159283  0.283700  0.000000  1
  As  As14  1  0.000000  0.000000  0.000000  1
  P  P15  1  0.593916  0.707787  0.500000  1
  P  P16  1  0.706167  0.113280  0.000000  1
  P  P17  1  0.886720  0.592889  0.000000  1
  P  P18  1  0.407111  0.293833  0.000000  1
  P  P19  1  0.292213  0.886128  0.500000  1
  P  P20  1  0.113872  0.406084  0.500000  1
