# generated using pymatgen
data_Lu8Zr12Si15Sn
_symmetry_space_group_name_H-M   'P 1'
_cell_length_a   7.11892741
_cell_length_b   7.27047996
_cell_length_c   13.93779152
_cell_angle_alpha   89.89072230
_cell_angle_beta   89.42478757
_cell_angle_gamma   89.95327028
_symmetry_Int_Tables_number   1
_chemical_formula_structural   Lu8Zr12Si15Sn
_chemical_formula_sum   'Lu8 Zr12 Si15 Sn1'
_cell_volume   721.35458393
_cell_formula_units_Z   1
loop_
 _symmetry_equiv_pos_site_id
 _symmetry_equiv_pos_as_xyz
  1  'x, y, z'
loop_
 _atom_site_type_symbol
 _atom_site_label
 _atom_site_symmetry_multiplicity
 _atom_site_fract_x
 _atom_site_fract_y
 _atom_site_fract_z
 _atom_site_occupancy
  Lu  Lu0  1  0.516709  0.320514  0.096466  1
  Lu  Lu1  1  0.016310  0.179246  0.400443  1
  Lu  Lu2  1  0.484572  0.671505  0.598732  1
  Lu  Lu3  1  0.983341  0.822669  0.904781  1
  Lu  Lu4  1  0.482192  0.677922  0.904582  1
  Lu  Lu5  1  0.999971  0.814256  0.600750  1
  Lu  Lu6  1  0.508382  0.328456  0.399065  1
  Lu  Lu7  1  0.015520  0.178094  0.096797  1
  Zr  Zr8  1  0.839845  0.336371  0.630675  1
  Zr  Zr9  1  0.326845  0.178279  0.877044  1
  Zr  Zr10  1  0.170839  0.677629  0.123140  1
  Zr  Zr11  1  0.665282  0.811879  0.368965  1
  Zr  Zr12  1  0.169608  0.676438  0.372587  1
  Zr  Zr13  1  0.672664  0.822861  0.123940  1
  Zr  Zr14  1  0.826193  0.323107  0.876874  1
  Zr  Zr15  1  0.321327  0.179123  0.625968  1
  Zr  Zr16  1  0.655394  0.002290  0.755352  1
  Zr  Zr17  1  0.156345  0.501099  0.751788  1
  Zr  Zr18  1  0.343627  0.998461  0.248925  1
  Zr  Zr19  1  0.843879  0.498722  0.249264  1
  Si  Si20  1  0.152262  0.470466  0.959248  1
  Si  Si21  1  0.344596  0.970605  0.041108  1
  Si  Si22  1  0.842069  0.530861  0.460267  1
  Si  Si23  1  0.333249  0.966723  0.458320  1
  Si  Si24  1  0.844532  0.530008  0.040857  1
  Si  Si25  1  0.654030  0.029974  0.960374  1
  Si  Si26  1  0.160382  0.467897  0.536940  1
  Si  Si27  1  0.530988  0.385392  0.751106  1
  Si  Si28  1  0.031219  0.113791  0.752542  1
  Si  Si29  1  0.465693  0.610775  0.245833  1
  Si  Si30  1  0.967543  0.885757  0.248489  1
  Si  Si31  1  0.781107  0.634650  0.752881  1
  Si  Si32  1  0.285174  0.870700  0.751409  1
  Si  Si33  1  0.216583  0.369019  0.247773  1
  Si  Si34  1  0.716917  0.129430  0.249202  1
  Sn  Sn35  1  0.674811  0.035031  0.537512  1
