# generated using pymatgen
data_CaCo(Sb4Ru)3
_symmetry_space_group_name_H-M   'P 1'
_cell_length_a   8.07402136
_cell_length_b   8.07402167
_cell_length_c   8.12480700
_cell_angle_alpha   109.59868746
_cell_angle_beta   109.59868826
_cell_angle_gamma   109.34345908
_symmetry_Int_Tables_number   1
_chemical_formula_structural   CaCo(Sb4Ru)3
_chemical_formula_sum   'Ca1 Co1 Sb12 Ru3'
_cell_volume   407.08520647
_cell_formula_units_Z   1
loop_
 _symmetry_equiv_pos_site_id
 _symmetry_equiv_pos_as_xyz
  1  'x, y, z'
loop_
 _atom_site_type_symbol
 _atom_site_label
 _atom_site_symmetry_multiplicity
 _atom_site_fract_x
 _atom_site_fract_y
 _atom_site_fract_z
 _atom_site_occupancy
  Ca  Ca0  1  0.000000  0.000000  0.000000  1
  Co  Co1  1  0.000000  0.000000  0.500000  1
  Sb  Sb2  1  0.154628  0.821950  0.657896  1
  Sb  Sb3  1  0.845372  0.178050  0.342104  1
  Sb  Sb4  1  0.842663  0.502526  0.660466  1
  Sb  Sb5  1  0.157337  0.497474  0.339534  1
  Sb  Sb6  1  0.821950  0.667323  0.164054  1
  Sb  Sb7  1  0.178050  0.332677  0.835946  1
  Sb  Sb8  1  0.502526  0.659863  0.842059  1
  Sb  Sb9  1  0.497474  0.340137  0.157941  1
  Sb  Sb10  1  0.659863  0.157337  0.817804  1
  Sb  Sb11  1  0.340137  0.842663  0.182196  1
  Sb  Sb12  1  0.667323  0.845372  0.503269  1
  Sb  Sb13  1  0.332677  0.154628  0.496731  1
  Ru  Ru14  1  0.500000  0.000000  0.000000  1
  Ru  Ru15  1  0.000000  0.500000  0.000000  1
  Ru  Ru16  1  0.500000  0.500000  0.500000  1
