# generated using pymatgen
data_Ta8MnCr3Os4
_symmetry_space_group_name_H-M   'P 1'
_cell_length_a   6.30065525
_cell_length_b   4.43549502
_cell_length_c   8.90547431
_cell_angle_alpha   89.99914407
_cell_angle_beta   90.03029237
_cell_angle_gamma   89.98929610
_symmetry_Int_Tables_number   1
_chemical_formula_structural   Ta8MnCr3Os4
_chemical_formula_sum   'Ta8 Mn1 Cr3 Os4'
_cell_volume   248.87702106
_cell_formula_units_Z   1
loop_
 _symmetry_equiv_pos_site_id
 _symmetry_equiv_pos_as_xyz
  1  'x, y, z'
loop_
 _atom_site_type_symbol
 _atom_site_label
 _atom_site_symmetry_multiplicity
 _atom_site_fract_x
 _atom_site_fract_y
 _atom_site_fract_z
 _atom_site_occupancy
  Ta  Ta0  1  0.499309  0.749994  0.124983  1
  Ta  Ta1  1  0.000667  0.750006  0.125010  1
  Ta  Ta2  1  0.499353  0.250020  0.375749  1
  Ta  Ta3  1  0.000645  0.250007  0.375728  1
  Ta  Ta4  1  0.999802  0.750001  0.624998  1
  Ta  Ta5  1  0.500219  0.749989  0.624982  1
  Ta  Ta6  1  0.000601  0.250039  0.874269  1
  Ta  Ta7  1  0.499404  0.250054  0.874291  1
  Mn  Mn8  1  0.749846  0.249656  0.125250  1
  Cr  Cr9  1  0.249980  0.749638  0.373577  1
  Cr  Cr10  1  0.750364  0.249850  0.624753  1
  Cr  Cr11  1  0.249826  0.750712  0.876399  1
  Os  Os12  1  0.249956  0.250069  0.125034  1
  Os  Os13  1  0.750016  0.750000  0.373489  1
  Os  Os14  1  0.250020  0.250020  0.624951  1
  Os  Os15  1  0.749993  0.749936  0.876538  1
