# generated using pymatgen
data_Y3Zn(SiRh3)2
_symmetry_space_group_name_H-M   'P 1'
_cell_length_a   5.57638600
_cell_length_b   5.57638469
_cell_length_c   15.21992100
_cell_angle_alpha   90.00000000
_cell_angle_beta   90.00000000
_cell_angle_gamma   119.99999592
_symmetry_Int_Tables_number   1
_chemical_formula_structural   Y3Zn(SiRh3)2
_chemical_formula_sum   'Y6 Zn2 Si4 Rh12'
_cell_volume   409.87233132
_cell_formula_units_Z   2
loop_
 _symmetry_equiv_pos_site_id
 _symmetry_equiv_pos_as_xyz
  1  'x, y, z'
loop_
 _atom_site_type_symbol
 _atom_site_label
 _atom_site_symmetry_multiplicity
 _atom_site_fract_x
 _atom_site_fract_y
 _atom_site_fract_z
 _atom_site_occupancy
  Y  Y0  1  0.666667  0.333333  0.962931  1
  Y  Y1  1  0.666667  0.333333  0.537069  1
  Y  Y2  1  0.333333  0.666667  0.037069  1
  Y  Y3  1  0.666667  0.333333  0.750000  1
  Y  Y4  1  0.333333  0.666667  0.462931  1
  Y  Y5  1  0.333333  0.666667  0.250000  1
  Zn  Zn6  1  0.000000  0.000000  0.500000  1
  Zn  Zn7  1  0.000000  0.000000  0.000000  1
  Si  Si8  1  0.666667  0.333333  0.250000  1
  Si  Si9  1  0.000000  0.000000  0.250000  1
  Si  Si10  1  0.000000  0.000000  0.750000  1
  Si  Si11  1  0.333333  0.666667  0.750000  1
  Rh  Rh12  1  0.167995  0.335990  0.865475  1
  Rh  Rh13  1  0.167995  0.335990  0.634525  1
  Rh  Rh14  1  0.664010  0.832005  0.865475  1
  Rh  Rh15  1  0.335990  0.167995  0.365475  1
  Rh  Rh16  1  0.832005  0.664010  0.365475  1
  Rh  Rh17  1  0.832005  0.167995  0.365475  1
  Rh  Rh18  1  0.832005  0.167995  0.134525  1
  Rh  Rh19  1  0.335990  0.167995  0.134525  1
  Rh  Rh20  1  0.664010  0.832005  0.634525  1
  Rh  Rh21  1  0.167995  0.832005  0.634525  1
  Rh  Rh22  1  0.832005  0.664010  0.134525  1
  Rh  Rh23  1  0.167995  0.832005  0.865475  1
