# generated using pymatgen
data_DyCu3SiPd
_symmetry_space_group_name_H-M   'P 1'
_cell_length_a   4.95387940
_cell_length_b   4.95387925
_cell_length_c   4.95387987
_cell_angle_alpha   61.10407374
_cell_angle_beta   61.10407336
_cell_angle_gamma   61.10407282
_symmetry_Int_Tables_number   1
_chemical_formula_structural   DyCu3SiPd
_chemical_formula_sum   'Dy1 Cu3 Si1 Pd1'
_cell_volume   88.10129187
_cell_formula_units_Z   1
loop_
 _symmetry_equiv_pos_site_id
 _symmetry_equiv_pos_as_xyz
  1  'x, y, z'
loop_
 _atom_site_type_symbol
 _atom_site_label
 _atom_site_symmetry_multiplicity
 _atom_site_fract_x
 _atom_site_fract_y
 _atom_site_fract_z
 _atom_site_occupancy
  Dy  Dy0  1  0.248201  0.248201  0.248201  1
  Cu  Cu1  1  0.626523  0.626523  0.123349  1
  Cu  Cu2  1  0.626523  0.123349  0.626523  1
  Cu  Cu3  1  0.123349  0.626523  0.626523  1
  Si  Si4  1  0.628970  0.628970  0.628970  1
  Pd  Pd5  1  0.996435  0.996435  0.996435  1
