# generated using pymatgen
data_Y3Pu2ZrAl18
_symmetry_space_group_name_H-M   'P 1'
_cell_length_a   14.46233767
_cell_length_b   14.46233706
_cell_length_c   14.46233800
_cell_angle_alpha   24.49738805
_cell_angle_beta   24.49739342
_cell_angle_gamma   24.49738868
_symmetry_Int_Tables_number   1
_chemical_formula_structural   Y3Pu2ZrAl18
_chemical_formula_sum   'Y3 Pu2 Zr1 Al18'
_cell_volume   457.27264143
_cell_formula_units_Z   1
loop_
 _symmetry_equiv_pos_site_id
 _symmetry_equiv_pos_as_xyz
  1  'x, y, z'
loop_
 _atom_site_type_symbol
 _atom_site_label
 _atom_site_symmetry_multiplicity
 _atom_site_fract_x
 _atom_site_fract_y
 _atom_site_fract_z
 _atom_site_occupancy
  Y  Y0  1  0.108829  0.108829  0.108829  1
  Y  Y1  1  0.891646  0.891646  0.891646  1
  Y  Y2  1  0.390222  0.390222  0.390222  1
  Pu  Pu3  1  0.999469  0.999469  0.999469  1
  Pu  Pu4  1  0.500417  0.500417  0.500417  1
  Zr  Zr5  1  0.609016  0.609016  0.609016  1
  Al  Al6  1  0.919419  0.374479  0.374479  1
  Al  Al7  1  0.420572  0.871703  0.871703  1
  Al  Al8  1  0.374479  0.374479  0.919419  1
  Al  Al9  1  0.871703  0.871703  0.420572  1
  Al  Al10  1  0.374479  0.919419  0.374479  1
  Al  Al11  1  0.871703  0.420572  0.871703  1
  Al  Al12  1  0.579336  0.127916  0.127916  1
  Al  Al13  1  0.079730  0.627534  0.627534  1
  Al  Al14  1  0.127916  0.127916  0.579336  1
  Al  Al15  1  0.627534  0.627534  0.079730  1
  Al  Al16  1  0.127916  0.579336  0.127916  1
  Al  Al17  1  0.627534  0.079730  0.627534  1
  Al  Al18  1  0.501587  0.501587  0.993856  1
  Al  Al19  1  0.000128  0.000128  0.500798  1
  Al  Al20  1  0.501587  0.993856  0.501587  1
  Al  Al21  1  0.000128  0.500798  0.000128  1
  Al  Al22  1  0.993856  0.501587  0.501587  1
  Al  Al23  1  0.500798  0.000128  0.000128  1
