# generated using pymatgen
data_Na6LuInCl12
_symmetry_space_group_name_H-M   'P 1'
_cell_length_a   6.98987400
_cell_length_b   6.98987361
_cell_length_c   12.55789800
_cell_angle_alpha   90.00000000
_cell_angle_beta   90.00000000
_cell_angle_gamma   120.00000186
_symmetry_Int_Tables_number   1
_chemical_formula_structural   Na6LuInCl12
_chemical_formula_sum   'Na6 Lu1 In1 Cl12'
_cell_volume   531.35680243
_cell_formula_units_Z   1
loop_
 _symmetry_equiv_pos_site_id
 _symmetry_equiv_pos_as_xyz
  1  'x, y, z'
loop_
 _atom_site_type_symbol
 _atom_site_label
 _atom_site_symmetry_multiplicity
 _atom_site_fract_x
 _atom_site_fract_y
 _atom_site_fract_z
 _atom_site_occupancy
  Na  Na0  1  0.333333  0.666667  0.040696  1
  Na  Na1  1  0.333333  0.666667  0.459304  1
  Na  Na2  1  0.000000  0.000000  0.750000  1
  Na  Na3  1  0.000000  0.000000  0.250000  1
  Na  Na4  1  0.666667  0.333333  0.959263  1
  Na  Na5  1  0.666667  0.333333  0.540737  1
  Lu  Lu6  1  0.333333  0.666667  0.750000  1
  In  In7  1  0.666667  0.333333  0.250000  1
  Cl  Cl8  1  0.364820  0.047920  0.128622  1
  Cl  Cl9  1  0.952080  0.316902  0.128622  1
  Cl  Cl10  1  0.683098  0.635180  0.128622  1
  Cl  Cl11  1  0.638172  0.681528  0.628042  1
  Cl  Cl12  1  0.318472  0.956642  0.628042  1
  Cl  Cl13  1  0.638172  0.956642  0.871958  1
  Cl  Cl14  1  0.318472  0.361828  0.871958  1
  Cl  Cl15  1  0.043358  0.681528  0.871958  1
  Cl  Cl16  1  0.364820  0.316902  0.371378  1
  Cl  Cl17  1  0.952080  0.635180  0.371378  1
  Cl  Cl18  1  0.043358  0.361828  0.628042  1
  Cl  Cl19  1  0.683098  0.047920  0.371378  1
