# generated using pymatgen
data_Eu5Th3(Si3Ir)4
_symmetry_space_group_name_H-M   'P 1'
_cell_length_a   8.19960100
_cell_length_b   8.27010495
_cell_length_c   8.49209900
_cell_angle_alpha   90.00000000
_cell_angle_beta   90.00000000
_cell_angle_gamma   119.28887659
_symmetry_Int_Tables_number   1
_chemical_formula_structural   Eu5Th3(Si3Ir)4
_chemical_formula_sum   'Eu5 Th3 Si12 Ir4'
_cell_volume   502.24668306
_cell_formula_units_Z   1
loop_
 _symmetry_equiv_pos_site_id
 _symmetry_equiv_pos_as_xyz
  1  'x, y, z'
loop_
 _atom_site_type_symbol
 _atom_site_label
 _atom_site_symmetry_multiplicity
 _atom_site_fract_x
 _atom_site_fract_y
 _atom_site_fract_z
 _atom_site_occupancy
  Eu  Eu0  1  0.999808  0.499850  0.250000  1
  Eu  Eu1  1  0.499824  0.999633  0.750000  1
  Eu  Eu2  1  0.500187  0.000332  0.250000  1
  Eu  Eu3  1  0.000051  0.999953  0.750000  1
  Eu  Eu4  1  0.000042  0.000080  0.250000  1
  Th  Th5  1  0.500015  0.500091  0.750000  1
  Th  Th6  1  0.499984  0.500041  0.250000  1
  Th  Th7  1  0.000134  0.500109  0.750000  1
  Si  Si8  1  0.829997  0.167484  0.999384  1
  Si  Si9  1  0.169994  0.832504  0.999732  1
  Si  Si10  1  0.332263  0.163367  0.999549  1
  Si  Si11  1  0.169994  0.832504  0.500268  1
  Si  Si12  1  0.667753  0.836645  0.999721  1
  Si  Si13  1  0.829997  0.167484  0.500616  1
  Si  Si14  1  0.838379  0.673687  0.000174  1
  Si  Si15  1  0.667753  0.836645  0.500279  1
  Si  Si16  1  0.161590  0.326275  0.000183  1
  Si  Si17  1  0.332263  0.163367  0.500451  1
  Si  Si18  1  0.161590  0.326275  0.499817  1
  Si  Si19  1  0.838379  0.673687  0.499826  1
  Ir  Ir20  1  0.666834  0.343888  0.995353  1
  Ir  Ir21  1  0.333168  0.656106  0.995517  1
  Ir  Ir22  1  0.333168  0.656106  0.504483  1
  Ir  Ir23  1  0.666834  0.343888  0.504647  1
