# generated using pymatgen
data_CeSm(SiAu)2
_symmetry_space_group_name_H-M   'P 1'
_cell_length_a   4.31060400
_cell_length_b   4.31060437
_cell_length_c   8.17866500
_cell_angle_alpha   90.00000000
_cell_angle_beta   90.00000000
_cell_angle_gamma   119.99999714
_symmetry_Int_Tables_number   1
_chemical_formula_structural   CeSm(SiAu)2
_chemical_formula_sum   'Ce1 Sm1 Si2 Au2'
_cell_volume   131.61014169
_cell_formula_units_Z   1
loop_
 _symmetry_equiv_pos_site_id
 _symmetry_equiv_pos_as_xyz
  1  'x, y, z'
loop_
 _atom_site_type_symbol
 _atom_site_label
 _atom_site_symmetry_multiplicity
 _atom_site_fract_x
 _atom_site_fract_y
 _atom_site_fract_z
 _atom_site_occupancy
  Ce  Ce0  1  0.666667  0.333333  0.500000  1
  Sm  Sm1  1  0.666667  0.333333  0.000000  1
  Si  Si2  1  0.000000  0.000000  0.730506  1
  Si  Si3  1  0.000000  0.000000  0.269494  1
  Au  Au4  1  0.333333  0.666667  0.232622  1
  Au  Au5  1  0.333333  0.666667  0.767378  1
