# generated using pymatgen
data_Yb5Pb3F
_symmetry_space_group_name_H-M   'P 1'
_cell_length_a   9.43312768
_cell_length_b   9.43312766
_cell_length_c   9.43312739
_cell_angle_alpha   128.00223129
_cell_angle_beta   128.00223454
_cell_angle_gamma   76.62141098
_symmetry_Int_Tables_number   1
_chemical_formula_structural   Yb5Pb3F
_chemical_formula_sum   'Yb10 Pb6 F2'
_cell_volume   506.24198024
_cell_formula_units_Z   2
loop_
 _symmetry_equiv_pos_site_id
 _symmetry_equiv_pos_as_xyz
  1  'x, y, z'
loop_
 _atom_site_type_symbol
 _atom_site_label
 _atom_site_symmetry_multiplicity
 _atom_site_fract_x
 _atom_site_fract_y
 _atom_site_fract_z
 _atom_site_occupancy
  Yb  Yb0  1  0.500000  0.500000  0.000000  1
  Yb  Yb1  1  0.000000  0.000000  0.000000  1
  Yb  Yb2  1  0.501933  0.001933  0.812215  1
  Yb  Yb3  1  0.189718  0.689718  0.187785  1
  Yb  Yb4  1  0.001933  0.189718  0.500000  1
  Yb  Yb5  1  0.689718  0.501933  0.500000  1
  Yb  Yb6  1  0.498067  0.998067  0.187785  1
  Yb  Yb7  1  0.810282  0.310282  0.812215  1
  Yb  Yb8  1  0.998067  0.810282  0.500000  1
  Yb  Yb9  1  0.310282  0.498067  0.500000  1
  Pb  Pb10  1  0.250000  0.250000  0.000000  1
  Pb  Pb11  1  0.750000  0.750000  0.000000  1
  Pb  Pb12  1  0.865812  0.365812  0.231625  1
  Pb  Pb13  1  0.134188  0.634188  0.768376  1
  Pb  Pb14  1  0.365812  0.134188  0.500000  1
  Pb  Pb15  1  0.634188  0.865812  0.500000  1
  F  F16  1  0.250000  0.750000  0.500000  1
  F  F17  1  0.750000  0.250000  0.500000  1
