# generated using pymatgen
data_Nd8Si12PtRh2Au
_symmetry_space_group_name_H-M   'P 1'
_cell_length_a   8.26382900
_cell_length_b   8.26382802
_cell_length_c   8.53988600
_cell_angle_alpha   90.00000000
_cell_angle_beta   90.00000000
_cell_angle_gamma   119.99999993
_symmetry_Int_Tables_number   1
_chemical_formula_structural   Nd8Si12PtRh2Au
_chemical_formula_sum   'Nd8 Si12 Pt1 Rh2 Au1'
_cell_volume   505.06270160
_cell_formula_units_Z   1
loop_
 _symmetry_equiv_pos_site_id
 _symmetry_equiv_pos_as_xyz
  1  'x, y, z'
loop_
 _atom_site_type_symbol
 _atom_site_label
 _atom_site_symmetry_multiplicity
 _atom_site_fract_x
 _atom_site_fract_y
 _atom_site_fract_z
 _atom_site_occupancy
  Nd  Nd0  1  0.000000  0.000000  0.749431  1
  Nd  Nd1  1  0.000000  0.000000  0.250722  1
  Nd  Nd2  1  0.496416  0.503584  0.747364  1
  Nd  Nd3  1  0.496416  0.992834  0.747364  1
  Nd  Nd4  1  0.007166  0.503584  0.747364  1
  Nd  Nd5  1  0.497482  0.502518  0.252455  1
  Nd  Nd6  1  0.005035  0.502518  0.252455  1
  Nd  Nd7  1  0.497482  0.994965  0.252455  1
  Si  Si8  1  0.838557  0.161443  0.000570  1
  Si  Si9  1  0.838557  0.677113  0.000570  1
  Si  Si10  1  0.322887  0.161443  0.000570  1
  Si  Si11  1  0.834276  0.165724  0.499928  1
  Si  Si12  1  0.834276  0.668554  0.499928  1
  Si  Si13  1  0.331446  0.165724  0.499928  1
  Si  Si14  1  0.167414  0.832586  0.500142  1
  Si  Si15  1  0.665172  0.832586  0.500142  1
  Si  Si16  1  0.167414  0.334828  0.500142  1
  Si  Si17  1  0.168372  0.831628  0.999578  1
  Si  Si18  1  0.663255  0.831628  0.999578  1
  Si  Si19  1  0.168372  0.336745  0.999578  1
  Pt  Pt20  1  0.666667  0.333333  0.501765  1
  Rh  Rh21  1  0.333333  0.666667  0.497885  1
  Rh  Rh22  1  0.333333  0.666667  0.001826  1
  Au  Au23  1  0.666667  0.333333  0.998262  1
