# generated using pymatgen
data_LiEu2MgPb2
_symmetry_space_group_name_H-M   'P 1'
_cell_length_a   8.08973900
_cell_length_b   4.84785600
_cell_length_c   8.74697600
_cell_angle_alpha   90.00000000
_cell_angle_beta   90.00000000
_cell_angle_gamma   90.00000000
_symmetry_Int_Tables_number   1
_chemical_formula_structural   LiEu2MgPb2
_chemical_formula_sum   'Li2 Eu4 Mg2 Pb4'
_cell_volume   343.03794041
_cell_formula_units_Z   2
loop_
 _symmetry_equiv_pos_site_id
 _symmetry_equiv_pos_as_xyz
  1  'x, y, z'
loop_
 _atom_site_type_symbol
 _atom_site_label
 _atom_site_symmetry_multiplicity
 _atom_site_fract_x
 _atom_site_fract_y
 _atom_site_fract_z
 _atom_site_occupancy
  Li  Li0  1  0.149088  0.250000  0.935624  1
  Li  Li1  1  0.649088  0.250000  0.564376  1
  Eu  Eu2  1  0.011374  0.250000  0.307790  1
  Eu  Eu3  1  0.511374  0.250000  0.192210  1
  Eu  Eu4  1  0.993276  0.750000  0.696974  1
  Eu  Eu5  1  0.493276  0.750000  0.803026  1
  Mg  Mg6  1  0.846634  0.750000  0.070702  1
  Mg  Mg7  1  0.346634  0.750000  0.429298  1
  Pb  Pb8  1  0.275397  0.250000  0.613607  1
  Pb  Pb9  1  0.775397  0.250000  0.886393  1
  Pb  Pb10  1  0.724231  0.750000  0.398258  1
  Pb  Pb11  1  0.224231  0.750000  0.101742  1
