# generated using pymatgen
data_Nd8GaSnI12
_symmetry_space_group_name_H-M   'P 1'
_cell_length_a   4.40495100
_cell_length_b   14.59056917
_cell_length_c   15.40603200
_cell_angle_alpha   89.83140202
_cell_angle_beta   90.00000000
_cell_angle_gamma   90.00000000
_symmetry_Int_Tables_number   1
_chemical_formula_structural   Nd8GaSnI12
_chemical_formula_sum   'Nd8 Ga1 Sn1 I12'
_cell_volume   990.15282496
_cell_formula_units_Z   1
loop_
 _symmetry_equiv_pos_site_id
 _symmetry_equiv_pos_as_xyz
  1  'x, y, z'
loop_
 _atom_site_type_symbol
 _atom_site_label
 _atom_site_symmetry_multiplicity
 _atom_site_fract_x
 _atom_site_fract_y
 _atom_site_fract_z
 _atom_site_occupancy
  Nd  Nd0  1  0.500000  0.120512  0.338343  1
  Nd  Nd1  1  0.500000  0.879488  0.661657  1
  Nd  Nd2  1  0.500000  0.614363  0.153611  1
  Nd  Nd3  1  0.500000  0.385637  0.846389  1
  Nd  Nd4  1  0.000000  0.120918  0.580967  1
  Nd  Nd5  1  0.000000  0.879082  0.419033  1
  Nd  Nd6  1  0.000000  0.612896  0.924453  1
  Nd  Nd7  1  0.000000  0.387104  0.075547  1
  Ga  Ga8  1  0.500000  0.500000  0.000000  1
  Sn  Sn9  1  0.500000  0.000000  0.500000  1
  I  I10  1  0.500000  0.246763  0.161735  1
  I  I11  1  0.500000  0.753237  0.838265  1
  I  I12  1  0.500000  0.742319  0.335312  1
  I  I13  1  0.500000  0.257681  0.664688  1
  I  I14  1  0.000000  0.258440  0.413948  1
  I  I15  1  0.000000  0.741560  0.586052  1
  I  I16  1  0.000000  0.756774  0.084991  1
  I  I17  1  0.000000  0.243226  0.915009  1
  I  I18  1  0.000000  0.999299  0.240426  1
  I  I19  1  0.000000  0.000701  0.759574  1
  I  I20  1  0.000000  0.498594  0.257725  1
  I  I21  1  0.000000  0.501406  0.742275  1
