# generated using pymatgen
data_Cs2Ca(NbCl3)6
_symmetry_space_group_name_H-M   'P 1'
_cell_length_a   9.72662268
_cell_length_b   9.72834872
_cell_length_c   10.41671254
_cell_angle_alpha   62.20369193
_cell_angle_beta   117.78474543
_cell_angle_gamma   120.00585743
_symmetry_Int_Tables_number   1
_chemical_formula_structural   Cs2Ca(NbCl3)6
_chemical_formula_sum   'Cs2 Ca1 Nb6 Cl18'
_cell_volume   719.31673063
_cell_formula_units_Z   1
loop_
 _symmetry_equiv_pos_site_id
 _symmetry_equiv_pos_as_xyz
  1  'x, y, z'
loop_
 _atom_site_type_symbol
 _atom_site_label
 _atom_site_symmetry_multiplicity
 _atom_site_fract_x
 _atom_site_fract_y
 _atom_site_fract_z
 _atom_site_occupancy
  Cs  Cs0  1  0.725048  0.275243  0.174409  1
  Cs  Cs1  1  0.274953  0.724758  0.825591  1
  Ca  Ca2  1  0.000000  0.000000  0.000000  1
  Nb  Nb3  1  0.306392  0.352195  0.363062  1
  Nb  Nb4  1  0.647847  0.591098  0.363013  1
  Nb  Nb5  1  0.409009  0.693661  0.363107  1
  Nb  Nb6  1  0.590991  0.306339  0.636893  1
  Nb  Nb7  1  0.352154  0.408901  0.636987  1
  Nb  Nb8  1  0.693608  0.647805  0.636938  1
  Cl  Cl9  1  0.567747  0.835633  0.177522  1
  Cl  Cl10  1  0.164336  0.554414  0.177595  1
  Cl  Cl11  1  0.445693  0.432268  0.177610  1
  Cl  Cl12  1  0.299907  0.944357  0.184411  1
  Cl  Cl13  1  0.828818  0.700090  0.184564  1
  Cl  Cl14  1  0.055914  0.171243  0.184450  1
  Cl  Cl15  1  0.380410  0.100100  0.498436  1
  Cl  Cl16  1  0.218263  0.619559  0.498628  1
  Cl  Cl17  1  0.899746  0.781765  0.498462  1
  Cl  Cl18  1  0.100255  0.218234  0.501538  1
  Cl  Cl19  1  0.781737  0.380442  0.501372  1
  Cl  Cl20  1  0.619590  0.899900  0.501564  1
  Cl  Cl21  1  0.944087  0.828757  0.815550  1
  Cl  Cl22  1  0.171182  0.299910  0.815436  1
  Cl  Cl23  1  0.700094  0.055642  0.815589  1
  Cl  Cl24  1  0.554307  0.567731  0.822390  1
  Cl  Cl25  1  0.835664  0.445587  0.822405  1
  Cl  Cl26  1  0.432254  0.164368  0.822478  1
