# generated using pymatgen
data_Hf8V12Si15Ni
_symmetry_space_group_name_H-M   'P 1'
_cell_length_a   6.44968610
_cell_length_b   6.58525146
_cell_length_c   12.54209475
_cell_angle_alpha   90.06673645
_cell_angle_beta   90.05813442
_cell_angle_gamma   90.09632200
_symmetry_Int_Tables_number   1
_chemical_formula_structural   Hf8V12Si15Ni
_chemical_formula_sum   'Hf8 V12 Si15 Ni1'
_cell_volume   532.69655217
_cell_formula_units_Z   1
loop_
 _symmetry_equiv_pos_site_id
 _symmetry_equiv_pos_as_xyz
  1  'x, y, z'
loop_
 _atom_site_type_symbol
 _atom_site_label
 _atom_site_symmetry_multiplicity
 _atom_site_fract_x
 _atom_site_fract_y
 _atom_site_fract_z
 _atom_site_occupancy
  Hf  Hf0  1  0.993014  0.171565  0.094006  1
  Hf  Hf1  1  0.005867  0.830210  0.905525  1
  Hf  Hf2  1  0.506101  0.670834  0.906154  1
  Hf  Hf3  1  0.007581  0.826650  0.594369  1
  Hf  Hf4  1  0.494242  0.329236  0.094303  1
  Hf  Hf5  1  0.996232  0.170080  0.406078  1
  Hf  Hf6  1  0.496335  0.329104  0.405875  1
  Hf  Hf7  1  0.500705  0.665270  0.593357  1
  V  V8  1  0.163513  0.492147  0.753476  1
  V  V9  1  0.837115  0.506473  0.249031  1
  V  V10  1  0.334808  0.992788  0.249884  1
  V  V11  1  0.664155  0.007289  0.750196  1
  V  V12  1  0.337229  0.174763  0.624087  1
  V  V13  1  0.664766  0.829345  0.376106  1
  V  V14  1  0.164476  0.668985  0.374169  1
  V  V15  1  0.661943  0.833292  0.124135  1
  V  V16  1  0.830740  0.332316  0.625632  1
  V  V17  1  0.336943  0.168984  0.875106  1
  V  V18  1  0.837442  0.331674  0.875717  1
  V  V19  1  0.163505  0.668871  0.124224  1
  Si  Si20  1  0.037531  0.126651  0.748120  1
  Si  Si21  1  0.962186  0.874641  0.250033  1
  Si  Si22  1  0.464388  0.625151  0.249939  1
  Si  Si23  1  0.536307  0.375367  0.750423  1
  Si  Si24  1  0.302519  0.865440  0.749142  1
  Si  Si25  1  0.697884  0.134007  0.250973  1
  Si  Si26  1  0.197950  0.366234  0.250443  1
  Si  Si27  1  0.802444  0.633493  0.748935  1
  Si  Si28  1  0.839367  0.538984  0.460515  1
  Si  Si29  1  0.331049  0.957383  0.460190  1
  Si  Si30  1  0.831229  0.543446  0.040597  1
  Si  Si31  1  0.668792  0.040046  0.540857  1
  Si  Si32  1  0.168330  0.457744  0.959344  1
  Si  Si33  1  0.668293  0.043128  0.959302  1
  Si  Si34  1  0.330762  0.958526  0.040394  1
  Ni  Ni35  1  0.164258  0.459882  0.539364  1
