# generated using pymatgen
data_Y6Ho2Cd2IrPd
_symmetry_space_group_name_H-M   'P 1'
_cell_length_a   9.67840304
_cell_length_b   9.67840308
_cell_length_c   9.65308300
_cell_angle_alpha   60.08639438
_cell_angle_beta   60.08639199
_cell_angle_gamma   60.25076565
_symmetry_Int_Tables_number   1
_chemical_formula_structural   Y6Ho2Cd2IrPd
_chemical_formula_sum   'Y12 Ho4 Cd4 Ir2 Pd2'
_cell_volume   641.42043434
_cell_formula_units_Z   2
loop_
 _symmetry_equiv_pos_site_id
 _symmetry_equiv_pos_as_xyz
  1  'x, y, z'
loop_
 _atom_site_type_symbol
 _atom_site_label
 _atom_site_symmetry_multiplicity
 _atom_site_fract_x
 _atom_site_fract_y
 _atom_site_fract_z
 _atom_site_occupancy
  Y  Y0  1  0.805509  0.190606  0.190177  1
  Y  Y1  1  0.190608  0.805509  0.813709  1
  Y  Y2  1  0.190606  0.805509  0.190177  1
  Y  Y3  1  0.805509  0.190608  0.813709  1
  Y  Y4  1  0.191698  0.191698  0.808302  1
  Y  Y5  1  0.810888  0.810888  0.189110  1
  Y  Y6  1  0.937082  0.565745  0.561686  1
  Y  Y7  1  0.565746  0.937082  0.935488  1
  Y  Y8  1  0.565745  0.937082  0.561686  1
  Y  Y9  1  0.937082  0.565746  0.935488  1
  Y  Y10  1  0.563666  0.563666  0.936333  1
  Y  Y11  1  0.936360  0.936360  0.563639  1
  Ho  Ho12  1  0.351291  0.351291  0.344826  1
  Ho  Ho13  1  0.351291  0.351291  0.952593  1
  Ho  Ho14  1  0.358445  0.942182  0.349687  1
  Ho  Ho15  1  0.942182  0.358445  0.349687  1
  Cd  Cd16  1  0.581145  0.581145  0.582037  1
  Cd  Cd17  1  0.581146  0.581146  0.255673  1
  Cd  Cd18  1  0.580330  0.256193  0.581740  1
  Cd  Cd19  1  0.256193  0.580330  0.581740  1
  Ir  Ir20  1  0.141140  0.570370  0.144246  1
  Ir  Ir21  1  0.570370  0.141140  0.144246  1
  Pd  Pd22  1  0.142984  0.142984  0.146834  1
  Pd  Pd23  1  0.142985  0.142985  0.567195  1
