# generated using pymatgen
data_RbTa8CrS16
_symmetry_space_group_name_H-M   'P 1'
_cell_length_a   6.65351306
_cell_length_b   6.65376651
_cell_length_c   14.41202400
_cell_angle_alpha   89.99144925
_cell_angle_beta   90.00752633
_cell_angle_gamma   119.99619031
_symmetry_Int_Tables_number   1
_chemical_formula_structural   RbTa8CrS16
_chemical_formula_sum   'Rb1 Ta8 Cr1 S16'
_cell_volume   552.57450566
_cell_formula_units_Z   1
loop_
 _symmetry_equiv_pos_site_id
 _symmetry_equiv_pos_as_xyz
  1  'x, y, z'
loop_
 _atom_site_type_symbol
 _atom_site_label
 _atom_site_symmetry_multiplicity
 _atom_site_fract_x
 _atom_site_fract_y
 _atom_site_fract_z
 _atom_site_occupancy
  Rb  Rb0  1  0.000000  0.000000  0.500000  1
  Ta  Ta1  1  0.999984  0.000047  0.211615  1
  Ta  Ta2  1  0.000016  0.999953  0.788385  1
  Ta  Ta3  1  0.504136  0.008182  0.208492  1
  Ta  Ta4  1  0.991883  0.495882  0.208475  1
  Ta  Ta5  1  0.503963  0.496010  0.208426  1
  Ta  Ta6  1  0.495864  0.991818  0.791508  1
  Ta  Ta7  1  0.008117  0.504118  0.791525  1
  Ta  Ta8  1  0.496037  0.503990  0.791574  1
  Cr  Cr9  1  0.000000  0.000000  0.000000  1
  S  S10  1  0.333361  0.666617  0.900675  1
  S  S11  1  0.666639  0.333383  0.099325  1
  S  S12  1  0.666677  0.333332  0.319789  1
  S  S13  1  0.333323  0.666668  0.680211  1
  S  S14  1  0.168623  0.831377  0.317016  1
  S  S15  1  0.168627  0.337202  0.317002  1
  S  S16  1  0.662792  0.831374  0.317004  1
  S  S17  1  0.831377  0.168623  0.682984  1
  S  S18  1  0.831373  0.662798  0.682998  1
  S  S19  1  0.337208  0.168626  0.682996  1
  S  S20  1  0.834459  0.165541  0.899092  1
  S  S21  1  0.834361  0.668710  0.899110  1
  S  S22  1  0.331246  0.165615  0.899106  1
  S  S23  1  0.165541  0.834459  0.100908  1
  S  S24  1  0.165639  0.331290  0.100890  1
  S  S25  1  0.668754  0.834385  0.100894  1
