# generated using pymatgen
data_Dy4VSi8Tc5
_symmetry_space_group_name_H-M   'P 1'
_cell_length_a   6.81956033
_cell_length_b   6.71501970
_cell_length_c   6.80782436
_cell_angle_alpha   70.36082864
_cell_angle_beta   89.96524756
_cell_angle_gamma   90.19364325
_symmetry_Int_Tables_number   1
_chemical_formula_structural   Dy4VSi8Tc5
_chemical_formula_sum   'Dy4 V1 Si8 Tc5'
_cell_volume   293.61641755
_cell_formula_units_Z   1
loop_
 _symmetry_equiv_pos_site_id
 _symmetry_equiv_pos_as_xyz
  1  'x, y, z'
loop_
 _atom_site_type_symbol
 _atom_site_label
 _atom_site_symmetry_multiplicity
 _atom_site_fract_x
 _atom_site_fract_y
 _atom_site_fract_z
 _atom_site_occupancy
  Dy  Dy0  1  0.668337  0.440228  0.192658  1
  Dy  Dy1  1  0.168949  0.058150  0.810033  1
  Dy  Dy2  1  0.332886  0.558365  0.810978  1
  Dy  Dy3  1  0.831884  0.940628  0.192494  1
  V  V4  1  0.342769  0.744660  0.245328  1
  Si  Si5  1  0.449624  0.120714  0.099608  1
  Si  Si6  1  0.949309  0.380670  0.896556  1
  Si  Si7  1  0.548793  0.874699  0.902281  1
  Si  Si8  1  0.049559  0.624648  0.099418  1
  Si  Si9  1  0.861246  0.132073  0.511458  1
  Si  Si10  1  0.360072  0.369689  0.486974  1
  Si  Si11  1  0.137468  0.870319  0.490214  1
  Si  Si12  1  0.637338  0.629001  0.510422  1
  Tc  Tc13  1  0.500090  0.994861  0.497007  1
  Tc  Tc14  1  0.002795  0.503055  0.499173  1
  Tc  Tc15  1  0.156260  0.246513  0.236107  1
  Tc  Tc16  1  0.656452  0.253542  0.761303  1
  Tc  Tc17  1  0.846169  0.758185  0.757985  1
