# generated using pymatgen
data_La5TcPb2
_symmetry_space_group_name_H-M   'P 1'
_cell_length_a   8.44690200
_cell_length_b   9.44978000
_cell_length_c   13.07654400
_cell_angle_alpha   90.00000000
_cell_angle_beta   90.00000000
_cell_angle_gamma   90.00000000
_symmetry_Int_Tables_number   1
_chemical_formula_structural   La5TcPb2
_chemical_formula_sum   'La20 Tc4 Pb8'
_cell_volume   1043.78759917
_cell_formula_units_Z   4
loop_
 _symmetry_equiv_pos_site_id
 _symmetry_equiv_pos_as_xyz
  1  'x, y, z'
loop_
 _atom_site_type_symbol
 _atom_site_label
 _atom_site_symmetry_multiplicity
 _atom_site_fract_x
 _atom_site_fract_y
 _atom_site_fract_z
 _atom_site_occupancy
  La  La0  1  0.649055  0.750000  0.707598  1
  La  La1  1  0.350945  0.250000  0.292402  1
  La  La2  1  0.149055  0.250000  0.792402  1
  La  La3  1  0.850945  0.750000  0.207598  1
  La  La4  1  0.114322  0.750000  0.808442  1
  La  La5  1  0.885678  0.250000  0.191558  1
  La  La6  1  0.614322  0.250000  0.691558  1
  La  La7  1  0.385678  0.750000  0.308442  1
  La  La8  1  0.547833  0.750000  0.996696  1
  La  La9  1  0.452167  0.250000  0.003304  1
  La  La10  1  0.047833  0.250000  0.503304  1
  La  La11  1  0.952167  0.750000  0.496696  1
  La  La12  1  0.822169  0.471185  0.931037  1
  La  La13  1  0.177831  0.528815  0.068963  1
  La  La14  1  0.322169  0.528815  0.568963  1
  La  La15  1  0.177831  0.971185  0.068963  1
  La  La16  1  0.677831  0.471185  0.431037  1
  La  La17  1  0.822169  0.028815  0.931037  1
  La  La18  1  0.677831  0.028815  0.431037  1
  La  La19  1  0.322169  0.971185  0.568963  1
  Tc  Tc20  1  0.912845  0.750000  0.987716  1
  Tc  Tc21  1  0.087155  0.250000  0.012284  1
  Tc  Tc22  1  0.412845  0.250000  0.512284  1
  Tc  Tc23  1  0.587155  0.750000  0.487716  1
  Pb  Pb24  1  0.924103  0.006097  0.670781  1
  Pb  Pb25  1  0.075897  0.993903  0.329219  1
  Pb  Pb26  1  0.424103  0.993903  0.829219  1
  Pb  Pb27  1  0.075897  0.506097  0.329219  1
  Pb  Pb28  1  0.575897  0.006097  0.170781  1
  Pb  Pb29  1  0.924103  0.493903  0.670781  1
  Pb  Pb30  1  0.575897  0.493903  0.170781  1
  Pb  Pb31  1  0.424103  0.506097  0.829219  1
