# generated using pymatgen
data_LaSc2(H6Ir)2
_symmetry_space_group_name_H-M   'P 1'
_cell_length_a   4.72802700
_cell_length_b   4.72802856
_cell_length_c   8.05562400
_cell_angle_alpha   90.00000000
_cell_angle_beta   90.00000000
_cell_angle_gamma   119.99999611
_symmetry_Int_Tables_number   1
_chemical_formula_structural   LaSc2(H6Ir)2
_chemical_formula_sum   'La1 Sc2 H12 Ir2'
_cell_volume   155.95161434
_cell_formula_units_Z   1
loop_
 _symmetry_equiv_pos_site_id
 _symmetry_equiv_pos_as_xyz
  1  'x, y, z'
loop_
 _atom_site_type_symbol
 _atom_site_label
 _atom_site_symmetry_multiplicity
 _atom_site_fract_x
 _atom_site_fract_y
 _atom_site_fract_z
 _atom_site_occupancy
  La  La0  1  0.000000  0.000000  0.000000  1
  Sc  Sc1  1  0.666667  0.333333  0.363494  1
  Sc  Sc2  1  0.333333  0.666667  0.636506  1
  H  H3  1  0.163159  0.836841  0.390649  1
  H  H4  1  0.673683  0.836841  0.390649  1
  H  H5  1  0.163159  0.326317  0.390649  1
  H  H6  1  0.836841  0.163159  0.609351  1
  H  H7  1  0.326317  0.163159  0.609351  1
  H  H8  1  0.836841  0.673683  0.609351  1
  H  H9  1  0.493891  0.987781  0.854843  1
  H  H10  1  0.493891  0.506109  0.854843  1
  H  H11  1  0.012219  0.506109  0.854843  1
  H  H12  1  0.506109  0.012219  0.145157  1
  H  H13  1  0.506109  0.493891  0.145157  1
  H  H14  1  0.987781  0.493891  0.145157  1
  Ir  Ir15  1  0.666667  0.333333  0.729237  1
  Ir  Ir16  1  0.333333  0.666667  0.270763  1
