# generated using pymatgen
data_Pr2Nd2FeCo3I2
_symmetry_space_group_name_H-M   'P 1'
_cell_length_a   4.02509100
_cell_length_b   4.02508933
_cell_length_c   17.89230300
_cell_angle_alpha   90.00000000
_cell_angle_beta   90.00000000
_cell_angle_gamma   119.99998904
_symmetry_Int_Tables_number   1
_chemical_formula_structural   Pr2Nd2FeCo3I2
_chemical_formula_sum   'Pr2 Nd2 Fe1 Co3 I2'
_cell_volume   251.04302006
_cell_formula_units_Z   1
loop_
 _symmetry_equiv_pos_site_id
 _symmetry_equiv_pos_as_xyz
  1  'x, y, z'
loop_
 _atom_site_type_symbol
 _atom_site_label
 _atom_site_symmetry_multiplicity
 _atom_site_fract_x
 _atom_site_fract_y
 _atom_site_fract_z
 _atom_site_occupancy
  Pr  Pr0  1  0.000000  0.000000  0.104734  1
  Pr  Pr1  1  0.000000  0.000000  0.895173  1
  Nd  Nd2  1  0.000000  0.000000  0.606931  1
  Nd  Nd3  1  0.000000  0.000000  0.393449  1
  Fe  Fe4  1  0.333333  0.666667  0.500731  1
  Co  Co5  1  0.666667  0.333333  0.499440  1
  Co  Co6  1  0.666667  0.333333  0.999850  1
  Co  Co7  1  0.333333  0.666667  0.999997  1
  I  I8  1  0.333333  0.666667  0.249670  1
  I  I9  1  0.666667  0.333333  0.750026  1
