# generated using pymatgen
data_LaEuNi2(Sn2Pd)2
_symmetry_space_group_name_H-M   'P 1'
_cell_length_a   4.61247800
_cell_length_b   4.61247800
_cell_length_c   10.22431000
_cell_angle_alpha   90.00000000
_cell_angle_beta   90.00000000
_cell_angle_gamma   90.00000000
_symmetry_Int_Tables_number   1
_chemical_formula_structural   LaEuNi2(Sn2Pd)2
_chemical_formula_sum   'La1 Eu1 Ni2 Sn4 Pd2'
_cell_volume   217.52171778
_cell_formula_units_Z   1
loop_
 _symmetry_equiv_pos_site_id
 _symmetry_equiv_pos_as_xyz
  1  'x, y, z'
loop_
 _atom_site_type_symbol
 _atom_site_label
 _atom_site_symmetry_multiplicity
 _atom_site_fract_x
 _atom_site_fract_y
 _atom_site_fract_z
 _atom_site_occupancy
  La  La0  1  0.500000  0.000000  0.752599  1
  Eu  Eu1  1  0.000000  0.500000  0.246923  1
  Ni  Ni2  1  0.000000  0.500000  0.617344  1
  Ni  Ni3  1  0.500000  0.000000  0.383448  1
  Sn  Sn4  1  0.000000  0.000000  0.499807  1
  Sn  Sn5  1  0.500000  0.500000  0.499807  1
  Sn  Sn6  1  0.000000  0.500000  0.861996  1
  Sn  Sn7  1  0.500000  0.000000  0.137878  1
  Pd  Pd8  1  0.000000  0.000000  0.000099  1
  Pd  Pd9  1  0.500000  0.500000  0.000099  1
