# generated using pymatgen
data_Ta3Ti(MnP)4
_symmetry_space_group_name_H-M   'P 1'
_cell_length_a   3.53059500
_cell_length_b   6.16370274
_cell_length_c   7.19033380
_cell_angle_alpha   89.79911800
_cell_angle_beta   90.00000000
_cell_angle_gamma   90.00000000
_symmetry_Int_Tables_number   1
_chemical_formula_structural   Ta3Ti(MnP)4
_chemical_formula_sum   'Ta3 Ti1 Mn4 P4'
_cell_volume   156.47176106
_cell_formula_units_Z   1
loop_
 _symmetry_equiv_pos_site_id
 _symmetry_equiv_pos_as_xyz
  1  'x, y, z'
loop_
 _atom_site_type_symbol
 _atom_site_label
 _atom_site_symmetry_multiplicity
 _atom_site_fract_x
 _atom_site_fract_y
 _atom_site_fract_z
 _atom_site_occupancy
  Ta  Ta0  1  0.250000  0.532092  0.327868  1
  Ta  Ta1  1  0.250000  0.029702  0.171673  1
  Ta  Ta2  1  0.750000  0.471002  0.672731  1
  Ti  Ti3  1  0.750000  0.970547  0.826179  1
  Mn  Mn4  1  0.750000  0.360018  0.059676  1
  Mn  Mn5  1  0.250000  0.639305  0.939912  1
  Mn  Mn6  1  0.750000  0.857775  0.440387  1
  Mn  Mn7  1  0.250000  0.140358  0.560215  1
  P  P8  1  0.250000  0.774677  0.635533  1
  P  P9  1  0.750000  0.228696  0.371023  1
  P  P10  1  0.250000  0.263742  0.868427  1
  P  P11  1  0.750000  0.732085  0.126375  1
