# generated using pymatgen
data_Nd2DyMg3Ga2Hg
_symmetry_space_group_name_H-M   'P 1'
_cell_length_a   7.49385513
_cell_length_b   7.55882038
_cell_length_c   4.49276400
_cell_angle_alpha   90.00000000
_cell_angle_beta   90.00000000
_cell_angle_gamma   120.28718850
_symmetry_Int_Tables_number   1
_chemical_formula_structural   Nd2DyMg3Ga2Hg
_chemical_formula_sum   'Nd2 Dy1 Mg3 Ga2 Hg1'
_cell_volume   219.75535284
_cell_formula_units_Z   1
loop_
 _symmetry_equiv_pos_site_id
 _symmetry_equiv_pos_as_xyz
  1  'x, y, z'
loop_
 _atom_site_type_symbol
 _atom_site_label
 _atom_site_symmetry_multiplicity
 _atom_site_fract_x
 _atom_site_fract_y
 _atom_site_fract_z
 _atom_site_occupancy
  Nd  Nd0  1  0.574381  0.573509  0.000000  1
  Nd  Nd1  1  0.425619  0.999128  0.000000  1
  Dy  Dy2  1  0.000000  0.424903  0.000000  1
  Mg  Mg3  1  0.000000  0.751128  0.500000  1
  Mg  Mg4  1  0.246558  0.248060  0.500000  1
  Mg  Mg5  1  0.753442  0.001502  0.500000  1
  Ga  Ga6  1  0.671815  0.334380  0.500000  1
  Ga  Ga7  1  0.328185  0.662565  0.500000  1
  Hg  Hg8  1  0.000000  0.004826  0.000000  1
