# generated using pymatgen
data_Sr4LaU5O18
_symmetry_space_group_name_H-M   'P 1'
_cell_length_a   6.98974505
_cell_length_b   7.78050608
_cell_length_c   8.76742087
_cell_angle_alpha   100.71143636
_cell_angle_beta   98.27356952
_cell_angle_gamma   107.16516679
_symmetry_Int_Tables_number   1
_chemical_formula_structural   Sr4LaU5O18
_chemical_formula_sum   'Sr4 La1 U5 O18'
_cell_volume   437.48308247
_cell_formula_units_Z   1
loop_
 _symmetry_equiv_pos_site_id
 _symmetry_equiv_pos_as_xyz
  1  'x, y, z'
loop_
 _atom_site_type_symbol
 _atom_site_label
 _atom_site_symmetry_multiplicity
 _atom_site_fract_x
 _atom_site_fract_y
 _atom_site_fract_z
 _atom_site_occupancy
  Sr  Sr0  1  0.801666  0.104080  0.585379  1
  Sr  Sr1  1  0.598535  0.696539  0.195098  1
  Sr  Sr2  1  0.401465  0.303461  0.804902  1
  Sr  Sr3  1  0.198334  0.895920  0.414621  1
  La  La4  1  0.000000  0.500000  0.000000  1
  U  U5  1  0.000000  0.000000  0.000000  1
  U  U6  1  0.793908  0.581083  0.589040  1
  U  U7  1  0.621143  0.197544  0.197012  1
  U  U8  1  0.378857  0.802456  0.802988  1
  U  U9  1  0.206092  0.418917  0.410960  1
  O  O10  1  0.826984  0.784081  0.470265  1
  O  O11  1  0.006797  0.235994  0.176957  1
  O  O12  1  0.673924  0.400542  0.069515  1
  O  O13  1  0.453794  0.000267  0.682478  1
  O  O14  1  0.858712  0.349419  0.417099  1
  O  O15  1  0.492528  0.387045  0.346490  1
  O  O16  1  0.238448  0.604391  0.271538  1
  O  O17  1  0.974938  0.811605  0.142078  1
  O  O18  1  0.664072  0.941087  0.990372  1
  O  O19  1  0.335928  0.058913  0.009628  1
  O  O20  1  0.025062  0.188395  0.857922  1
  O  O21  1  0.761552  0.395609  0.728462  1
  O  O22  1  0.507472  0.612955  0.653510  1
  O  O23  1  0.141288  0.650581  0.582901  1
  O  O24  1  0.546206  0.999733  0.317522  1
  O  O25  1  0.326076  0.599458  0.930485  1
  O  O26  1  0.993203  0.764006  0.823043  1
  O  O27  1  0.173016  0.215919  0.529735  1
