# generated using pymatgen
data_La4Ir3Pd3O19
_symmetry_space_group_name_H-M   'P 1'
_cell_length_a   7.76599438
_cell_length_b   7.97599221
_cell_length_c   7.97599144
_cell_angle_alpha   109.99840342
_cell_angle_beta   108.93873472
_cell_angle_gamma   108.93875062
_symmetry_Int_Tables_number   1
_chemical_formula_structural   La4Ir3Pd3O19
_chemical_formula_sum   'La4 Ir3 Pd3 O19'
_cell_volume   382.78637428
_cell_formula_units_Z   1
loop_
 _symmetry_equiv_pos_site_id
 _symmetry_equiv_pos_as_xyz
  1  'x, y, z'
loop_
 _atom_site_type_symbol
 _atom_site_label
 _atom_site_symmetry_multiplicity
 _atom_site_fract_x
 _atom_site_fract_y
 _atom_site_fract_z
 _atom_site_occupancy
  La  La0  1  0.987673  0.971651  0.297799  1
  La  La1  1  0.016022  0.326148  0.028349  1
  La  La2  1  0.689873  0.702201  0.673852  1
  La  La3  1  0.325351  0.000000  0.000000  1
  Ir  Ir4  1  0.340166  0.505447  0.844414  1
  Ir  Ir5  1  0.834718  0.338966  0.494553  1
  Ir  Ir6  1  0.495752  0.155586  0.661034  1
  Pd  Pd7  1  0.162902  0.655995  0.501382  1
  Pd  Pd8  1  0.506907  0.845387  0.344005  1
  Pd  Pd9  1  0.661520  0.498618  0.154613  1
  O  O10  1  0.338770  0.001290  0.349093  1
  O  O11  1  0.337481  0.347804  0.998710  1
  O  O12  1  0.989677  0.650907  0.652196  1
  O  O13  1  0.655741  0.651863  0.988575  1
  O  O14  1  0.003878  0.336713  0.348137  1
  O  O15  1  0.667165  0.011425  0.663287  1
  O  O16  1  0.007563  0.000000  0.000000  1
  O  O17  1  0.322344  0.288893  0.624830  1
  O  O18  1  0.033452  0.335937  0.711107  1
  O  O19  1  0.697513  0.375170  0.664063  1
  O  O20  1  0.393507  0.706270  0.752158  1
  O  O21  1  0.258861  0.955627  0.646971  1
  O  O22  1  0.611889  0.353029  0.308657  1
  O  O23  1  0.336871  0.611795  0.369359  1
  O  O24  1  0.687237  0.045890  0.293730  1
  O  O25  1  0.967511  0.630641  0.242437  1
  O  O26  1  0.725076  0.757563  0.388205  1
  O  O27  1  0.641348  0.247842  0.954110  1
  O  O28  1  0.303232  0.691343  0.044373  1
