# generated using pymatgen
data_Zr6Zn22FeRh
_symmetry_space_group_name_H-M   'P 1'
_cell_length_a   8.78065760
_cell_length_b   8.78065741
_cell_length_c   8.78065800
_cell_angle_alpha   60.00000533
_cell_angle_beta   60.00000601
_cell_angle_gamma   60.00000115
_symmetry_Int_Tables_number   1
_chemical_formula_structural   Zr6Zn22FeRh
_chemical_formula_sum   'Zr6 Zn22 Fe1 Rh1'
_cell_volume   478.70303432
_cell_formula_units_Z   1
loop_
 _symmetry_equiv_pos_site_id
 _symmetry_equiv_pos_as_xyz
  1  'x, y, z'
loop_
 _atom_site_type_symbol
 _atom_site_label
 _atom_site_symmetry_multiplicity
 _atom_site_fract_x
 _atom_site_fract_y
 _atom_site_fract_z
 _atom_site_occupancy
  Zr  Zr0  1  0.701595  0.298405  0.298405  1
  Zr  Zr1  1  0.298405  0.701595  0.701595  1
  Zr  Zr2  1  0.298405  0.701595  0.298405  1
  Zr  Zr3  1  0.701595  0.298405  0.701595  1
  Zr  Zr4  1  0.298405  0.298405  0.701595  1
  Zr  Zr5  1  0.701595  0.701595  0.298405  1
  Zn  Zn6  1  0.120075  0.120075  0.120075  1
  Zn  Zn7  1  0.879925  0.879925  0.879925  1
  Zn  Zn8  1  0.120075  0.120075  0.639776  1
  Zn  Zn9  1  0.120075  0.639776  0.120075  1
  Zn  Zn10  1  0.879925  0.879925  0.360224  1
  Zn  Zn11  1  0.879925  0.360224  0.879925  1
  Zn  Zn12  1  0.639776  0.120075  0.120075  1
  Zn  Zn13  1  0.360224  0.879925  0.879925  1
  Zn  Zn14  1  0.500000  0.000000  0.000000  1
  Zn  Zn15  1  0.000000  0.500000  0.500000  1
  Zn  Zn16  1  0.000000  0.500000  0.000000  1
  Zn  Zn17  1  0.500000  0.000000  0.500000  1
  Zn  Zn18  1  0.000000  0.000000  0.500000  1
  Zn  Zn19  1  0.500000  0.500000  0.000000  1
  Zn  Zn20  1  0.333725  0.333725  0.333725  1
  Zn  Zn21  1  0.666275  0.666275  0.666275  1
  Zn  Zn22  1  0.333725  0.333725  0.998824  1
  Zn  Zn23  1  0.333725  0.998824  0.333725  1
  Zn  Zn24  1  0.666275  0.666275  0.001176  1
  Zn  Zn25  1  0.666275  0.001176  0.666275  1
  Zn  Zn26  1  0.998824  0.333725  0.333725  1
  Zn  Zn27  1  0.001176  0.666275  0.666275  1
  Fe  Fe28  1  0.500000  0.500000  0.500000  1
  Rh  Rh29  1  0.000000  0.000000  0.000000  1
