# generated using pymatgen
data_Ca8P5Br
_symmetry_space_group_name_H-M   'P 1'
_cell_length_a   7.62565158
_cell_length_b   7.62565157
_cell_length_c   7.62565113
_cell_angle_alpha   109.23284074
_cell_angle_beta   109.23283920
_cell_angle_gamma   109.94904090
_symmetry_Int_Tables_number   1
_chemical_formula_structural   Ca8P5Br
_chemical_formula_sum   'Ca8 P5 Br1'
_cell_volume   341.33929237
_cell_formula_units_Z   1
loop_
 _symmetry_equiv_pos_site_id
 _symmetry_equiv_pos_as_xyz
  1  'x, y, z'
loop_
 _atom_site_type_symbol
 _atom_site_label
 _atom_site_symmetry_multiplicity
 _atom_site_fract_x
 _atom_site_fract_y
 _atom_site_fract_z
 _atom_site_occupancy
  Ca  Ca0  1  0.735860  0.361119  0.239214  1
  Ca  Ca1  1  0.976813  0.735474  0.092995  1
  Ca  Ca2  1  0.642480  0.883818  0.907005  1
  Ca  Ca3  1  0.121905  0.496646  0.760786  1
  Ca  Ca4  1  0.638881  0.878095  0.374742  1
  Ca  Ca5  1  0.503354  0.264140  0.625258  1
  Ca  Ca6  1  0.264526  0.357520  0.241338  1
  Ca  Ca7  1  0.116182  0.023187  0.758662  1
  P  P8  1  0.745560  0.633020  0.617469  1
  P  P9  1  0.366980  0.984450  0.112541  1
  P  P10  1  0.015550  0.128091  0.382531  1
  P  P11  1  0.500000  0.500000  0.000000  1
  P  P12  1  0.871909  0.254440  0.887459  1
  Br  Br13  1  0.250000  0.750000  0.500000  1
