# generated using pymatgen
data_Pr8Ho9Si16Ag3
_symmetry_space_group_name_H-M   'P 1'
_cell_length_a   7.26645829
_cell_length_b   7.79554768
_cell_length_c   14.83031300
_cell_angle_alpha   90.00000000
_cell_angle_beta   90.00000000
_cell_angle_gamma   89.83838792
_symmetry_Int_Tables_number   1
_chemical_formula_structural   Pr8Ho9Si16Ag3
_chemical_formula_sum   'Pr8 Ho9 Si16 Ag3'
_cell_volume   840.07489609
_cell_formula_units_Z   1
loop_
 _symmetry_equiv_pos_site_id
 _symmetry_equiv_pos_as_xyz
  1  'x, y, z'
loop_
 _atom_site_type_symbol
 _atom_site_label
 _atom_site_symmetry_multiplicity
 _atom_site_fract_x
 _atom_site_fract_y
 _atom_site_fract_z
 _atom_site_occupancy
  Pr  Pr0  1  0.975495  0.815713  0.104871  1
  Pr  Pr1  1  0.476559  0.686287  0.396907  1
  Pr  Pr2  1  0.527570  0.325785  0.899245  1
  Pr  Pr3  1  0.016538  0.187840  0.599800  1
  Pr  Pr4  1  0.016538  0.187840  0.900200  1
  Pr  Pr5  1  0.527570  0.325785  0.600755  1
  Pr  Pr6  1  0.476559  0.686287  0.103093  1
  Pr  Pr7  1  0.975495  0.815713  0.395129  1
  Ho  Ho8  1  0.349998  0.005832  0.750000  1
  Ho  Ho9  1  0.683330  0.810511  0.874655  1
  Ho  Ho10  1  0.168562  0.674549  0.625487  1
  Ho  Ho11  1  0.823333  0.316416  0.128214  1
  Ho  Ho12  1  0.326340  0.179105  0.373425  1
  Ho  Ho13  1  0.326340  0.179105  0.126575  1
  Ho  Ho14  1  0.823333  0.316416  0.371786  1
  Ho  Ho15  1  0.168562  0.674549  0.874513  1
  Ho  Ho16  1  0.683330  0.810511  0.625345  1
  Si  Si17  1  0.768773  0.612232  0.250000  1
  Si  Si18  1  0.271334  0.887416  0.250000  1
  Si  Si19  1  0.725134  0.111956  0.750000  1
  Si  Si20  1  0.230550  0.379742  0.750000  1
  Si  Si21  1  0.024290  0.093253  0.250000  1
  Si  Si22  1  0.521147  0.406320  0.250000  1
  Si  Si23  1  0.468588  0.608223  0.750000  1
  Si  Si24  1  0.976350  0.905720  0.750000  1
  Si  Si25  1  0.851324  0.536931  0.971599  1
  Si  Si26  1  0.353645  0.971288  0.540101  1
  Si  Si27  1  0.652196  0.035561  0.031507  1
  Si  Si28  1  0.151634  0.464507  0.463958  1
  Si  Si29  1  0.151634  0.464507  0.036042  1
  Si  Si30  1  0.652196  0.035561  0.468493  1
  Si  Si31  1  0.353645  0.971288  0.959899  1
  Si  Si32  1  0.851324  0.536931  0.528401  1
  Ag  Ag33  1  0.650133  0.983772  0.250000  1
  Ag  Ag34  1  0.149871  0.513769  0.250000  1
  Ag  Ag35  1  0.850779  0.482777  0.750000  1
