# generated using pymatgen
data_InFeCu(Sb6Os)2
_symmetry_space_group_name_H-M   'P 1'
_cell_length_a   8.14075751
_cell_length_b   8.10678380
_cell_length_c   8.16428743
_cell_angle_alpha   109.51993663
_cell_angle_beta   109.44782406
_cell_angle_gamma   109.50867572
_symmetry_Int_Tables_number   1
_chemical_formula_structural   InFeCu(Sb6Os)2
_chemical_formula_sum   'In1 Fe1 Cu1 Sb12 Os2'
_cell_volume   414.45056997
_cell_formula_units_Z   1
loop_
 _symmetry_equiv_pos_site_id
 _symmetry_equiv_pos_as_xyz
  1  'x, y, z'
loop_
 _atom_site_type_symbol
 _atom_site_label
 _atom_site_symmetry_multiplicity
 _atom_site_fract_x
 _atom_site_fract_y
 _atom_site_fract_z
 _atom_site_occupancy
  In  In0  1  0.000000  0.000000  0.000000  1
  Fe  Fe1  1  0.000000  0.000000  0.500000  1
  Cu  Cu2  1  0.500000  0.000000  0.000000  1
  Sb  Sb3  1  0.845294  0.671969  0.506874  1
  Sb  Sb4  1  0.154706  0.328031  0.493126  1
  Sb  Sb5  1  0.151177  0.653274  0.809445  1
  Sb  Sb6  1  0.848823  0.346726  0.190555  1
  Sb  Sb7  1  0.661778  0.504576  0.843039  1
  Sb  Sb8  1  0.338222  0.495424  0.156961  1
  Sb  Sb9  1  0.670886  0.817376  0.166936  1
  Sb  Sb10  1  0.329114  0.182624  0.833064  1
  Sb  Sb11  1  0.501212  0.844181  0.653146  1
  Sb  Sb12  1  0.498788  0.155819  0.346854  1
  Sb  Sb13  1  0.173051  0.845860  0.339833  1
  Sb  Sb14  1  0.826949  0.154140  0.660167  1
  Os  Os15  1  0.500000  0.500000  0.500000  1
  Os  Os16  1  0.000000  0.500000  0.000000  1
