# generated using pymatgen
data_DyEr3Al15(SiIr2)3
_symmetry_space_group_name_H-M   'P 1'
_cell_length_a   7.53289892
_cell_length_b   7.51421824
_cell_length_c   9.30107202
_cell_angle_alpha   89.99682961
_cell_angle_beta   89.91032745
_cell_angle_gamma   119.74209517
_symmetry_Int_Tables_number   1
_chemical_formula_structural   DyEr3Al15(SiIr2)3
_chemical_formula_sum   'Dy1 Er3 Al15 Si3 Ir6'
_cell_volume   457.12150053
_cell_formula_units_Z   1
loop_
 _symmetry_equiv_pos_site_id
 _symmetry_equiv_pos_as_xyz
  1  'x, y, z'
loop_
 _atom_site_type_symbol
 _atom_site_label
 _atom_site_symmetry_multiplicity
 _atom_site_fract_x
 _atom_site_fract_y
 _atom_site_fract_z
 _atom_site_occupancy
  Dy  Dy0  1  0.325590  0.005655  0.249553  1
  Er  Er1  1  0.993685  0.668937  0.748398  1
  Er  Er2  1  0.004973  0.325230  0.253374  1
  Er  Er3  1  0.679671  0.000356  0.747988  1
  Al  Al4  1  0.997942  0.668083  0.422197  1
  Al  Al5  1  0.999036  0.663744  0.075177  1
  Al  Al6  1  0.336094  0.999831  0.923841  1
  Al  Al7  1  0.001469  0.336320  0.928484  1
  Al  Al8  1  0.663735  0.999243  0.075222  1
  Al  Al9  1  0.659438  0.994298  0.422460  1
  Al  Al10  1  0.335707  0.999861  0.576567  1
  Al  Al11  1  0.335607  0.335419  0.058124  1
  Al  Al12  1  0.665310  0.665921  0.941404  1
  Al  Al13  1  0.664673  0.665498  0.559910  1
  Al  Al14  1  0.338582  0.335462  0.441724  1
  Al  Al15  1  0.334609  0.547129  0.750329  1
  Al  Al16  1  0.665745  0.451304  0.250137  1
  Al  Al17  1  0.546553  0.335756  0.750266  1
  Al  Al18  1  0.450130  0.662819  0.249374  1
  Si  Si19  1  0.131852  0.127534  0.750854  1
  Si  Si20  1  0.870670  0.872491  0.249733  1
  Si  Si21  1  0.000920  0.337972  0.573235  1
  Ir  Ir22  1  0.679489  0.328551  0.501834  1
  Ir  Ir23  1  0.319882  0.663849  0.500283  1
  Ir  Ir24  1  0.327805  0.671224  0.999237  1
  Ir  Ir25  1  0.672309  0.328576  0.998980  1
  Ir  Ir26  1  0.999022  0.008344  0.502042  1
  Ir  Ir27  1  0.999502  0.000597  0.999274  1
