# generated using pymatgen
data_LaCe3Cd2(SnRu2)2
_symmetry_space_group_name_H-M   'P 1'
_cell_length_a   6.36969937
_cell_length_b   6.36969981
_cell_length_c   10.01227061
_cell_angle_alpha   76.06084009
_cell_angle_beta   76.06083891
_cell_angle_gamma   44.97868103
_symmetry_Int_Tables_number   1
_chemical_formula_structural   LaCe3Cd2(SnRu2)2
_chemical_formula_sum   'La1 Ce3 Cd2 Sn2 Ru4'
_cell_volume   277.20927395
_cell_formula_units_Z   1
loop_
 _symmetry_equiv_pos_site_id
 _symmetry_equiv_pos_as_xyz
  1  'x, y, z'
loop_
 _atom_site_type_symbol
 _atom_site_label
 _atom_site_symmetry_multiplicity
 _atom_site_fract_x
 _atom_site_fract_y
 _atom_site_fract_z
 _atom_site_occupancy
  La  La0  1  0.124646  0.124646  0.591950  1
  Ce  Ce1  1  0.863661  0.863661  0.419067  1
  Ce  Ce2  1  0.866415  0.866415  0.919886  1
  Ce  Ce3  1  0.140111  0.140111  0.087613  1
  Cd  Cd4  1  0.429684  0.429684  0.152584  1
  Cd  Cd5  1  0.417718  0.417718  0.655965  1
  Sn  Sn6  1  0.580460  0.580460  0.853769  1
  Sn  Sn7  1  0.580812  0.580812  0.356096  1
  Ru  Ru8  1  0.806884  0.806884  0.158932  1
  Ru  Ru9  1  0.193781  0.193781  0.303002  1
  Ru  Ru10  1  0.192869  0.192869  0.842204  1
  Ru  Ru11  1  0.802960  0.802960  0.658935  1
