# generated using pymatgen
data_La3TbCoI5
_symmetry_space_group_name_H-M   'P 1'
_cell_length_a   9.91615763
_cell_length_b   9.91615826
_cell_length_c   9.35341399
_cell_angle_alpha   76.69818252
_cell_angle_beta   76.69818223
_cell_angle_gamma   25.29686913
_symmetry_Int_Tables_number   1
_chemical_formula_structural   La3TbCoI5
_chemical_formula_sum   'La3 Tb1 Co1 I5'
_cell_volume   381.92298670
_cell_formula_units_Z   1
loop_
 _symmetry_equiv_pos_site_id
 _symmetry_equiv_pos_as_xyz
  1  'x, y, z'
loop_
 _atom_site_type_symbol
 _atom_site_label
 _atom_site_symmetry_multiplicity
 _atom_site_fract_x
 _atom_site_fract_y
 _atom_site_fract_z
 _atom_site_occupancy
  La  La0  1  0.867927  0.867927  0.062625  1
  La  La1  1  0.132408  0.132408  0.926195  1
  La  La2  1  0.500814  0.500814  0.225317  1
  Tb  Tb3  1  0.499532  0.499532  0.797124  1
  Co  Co4  1  0.000256  0.000256  0.000352  1
  I  I5  1  0.675407  0.675407  0.164398  1
  I  I6  1  0.331904  0.331904  0.818528  1
  I  I7  1  0.662343  0.662343  0.653318  1
  I  I8  1  0.330121  0.330121  0.337458  1
  I  I9  1  0.999289  0.999289  0.514683  1
