# generated using pymatgen
data_Eu3Lu(SbAu)4
_symmetry_space_group_name_H-M   'P 1'
_cell_length_a   4.68679500
_cell_length_b   4.68679616
_cell_length_c   17.01442800
_cell_angle_alpha   90.00000000
_cell_angle_beta   90.00000000
_cell_angle_gamma   120.00001302
_symmetry_Int_Tables_number   1
_chemical_formula_structural   Eu3Lu(SbAu)4
_chemical_formula_sum   'Eu3 Lu1 Sb4 Au4'
_cell_volume   323.66813914
_cell_formula_units_Z   1
loop_
 _symmetry_equiv_pos_site_id
 _symmetry_equiv_pos_as_xyz
  1  'x, y, z'
loop_
 _atom_site_type_symbol
 _atom_site_label
 _atom_site_symmetry_multiplicity
 _atom_site_fract_x
 _atom_site_fract_y
 _atom_site_fract_z
 _atom_site_occupancy
  Eu  Eu0  1  0.000000  0.000000  0.504322  1
  Eu  Eu1  1  0.000000  0.000000  0.995678  1
  Eu  Eu2  1  0.000000  0.000000  0.250000  1
  Lu  Lu3  1  0.000000  0.000000  0.750000  1
  Sb  Sb4  1  0.333333  0.666667  0.383542  1
  Sb  Sb5  1  0.666667  0.333333  0.615636  1
  Sb  Sb6  1  0.666667  0.333333  0.884364  1
  Sb  Sb7  1  0.333333  0.666667  0.116458  1
  Au  Au8  1  0.666667  0.333333  0.369301  1
  Au  Au9  1  0.333333  0.666667  0.665182  1
  Au  Au10  1  0.333333  0.666667  0.834818  1
  Au  Au11  1  0.666667  0.333333  0.130699  1
