# generated using pymatgen
data_DyY5U4O20
_symmetry_space_group_name_H-M   'P 1'
_cell_length_a   6.65890148
_cell_length_b   7.51570614
_cell_length_c   8.42706504
_cell_angle_alpha   100.94796718
_cell_angle_beta   97.66834930
_cell_angle_gamma   107.24857286
_symmetry_Int_Tables_number   1
_chemical_formula_structural   DyY5U4O20
_chemical_formula_sum   'Dy1 Y5 U4 O20'
_cell_volume   387.26412373
_cell_formula_units_Z   1
loop_
 _symmetry_equiv_pos_site_id
 _symmetry_equiv_pos_as_xyz
  1  'x, y, z'
loop_
 _atom_site_type_symbol
 _atom_site_label
 _atom_site_symmetry_multiplicity
 _atom_site_fract_x
 _atom_site_fract_y
 _atom_site_fract_z
 _atom_site_occupancy
  Dy  Dy0  1  0.000000  0.000000  0.500000  1
  Y  Y1  1  0.614572  0.703611  0.699346  1
  Y  Y2  1  0.385428  0.296389  0.300654  1
  Y  Y3  1  0.197514  0.896456  0.891509  1
  Y  Y4  1  0.000000  0.500000  0.500000  1
  Y  Y5  1  0.802486  0.103544  0.108491  1
  U  U6  1  0.401521  0.804195  0.301787  1
  U  U7  1  0.199157  0.399918  0.899348  1
  U  U8  1  0.800843  0.600082  0.100652  1
  U  U9  1  0.598479  0.195805  0.698213  1
  O  O10  1  0.440009  0.532244  0.137151  1
  O  O11  1  0.555706  0.987779  0.841284  1
  O  O12  1  0.268197  0.144457  0.744474  1
  O  O13  1  0.360356  0.594819  0.442276  1
  O  O14  1  0.054293  0.729679  0.332533  1
  O  O15  1  0.444294  0.012221  0.158716  1
  O  O16  1  0.150278  0.183922  0.031902  1
  O  O17  1  0.559991  0.467756  0.862849  1
  O  O18  1  0.854253  0.337140  0.950396  1
  O  O19  1  0.257588  0.606085  0.759260  1
  O  O20  1  0.953571  0.772134  0.651894  1
  O  O21  1  0.353499  0.062087  0.453639  1
  O  O22  1  0.646501  0.937913  0.546361  1
  O  O23  1  0.046429  0.227866  0.348106  1
  O  O24  1  0.742412  0.393915  0.240740  1
  O  O25  1  0.145747  0.662860  0.049604  1
  O  O26  1  0.849722  0.816078  0.968098  1
  O  O27  1  0.945707  0.270321  0.667467  1
  O  O28  1  0.639644  0.405181  0.557724  1
  O  O29  1  0.731803  0.855543  0.255526  1
