# generated using pymatgen
data_Ba2TbGaS5
_symmetry_space_group_name_H-M   'P 1'
_cell_length_a   7.14522108
_cell_length_b   8.47408678
_cell_length_c   9.18203540
_cell_angle_alpha   103.60060121
_cell_angle_beta   103.17225233
_cell_angle_gamma   107.45249612
_symmetry_Int_Tables_number   1
_chemical_formula_structural   Ba2TbGaS5
_chemical_formula_sum   'Ba4 Tb2 Ga2 S10'
_cell_volume   488.07363288
_cell_formula_units_Z   2
loop_
 _symmetry_equiv_pos_site_id
 _symmetry_equiv_pos_as_xyz
  1  'x, y, z'
loop_
 _atom_site_type_symbol
 _atom_site_label
 _atom_site_symmetry_multiplicity
 _atom_site_fract_x
 _atom_site_fract_y
 _atom_site_fract_z
 _atom_site_occupancy
  Ba  Ba0  1  0.633161  0.977335  0.289213  1
  Ba  Ba1  1  0.366839  0.022665  0.710787  1
  Ba  Ba2  1  0.339021  0.509782  0.705516  1
  Ba  Ba3  1  0.660979  0.490218  0.294484  1
  Tb  Tb4  1  0.997350  0.729379  0.998060  1
  Tb  Tb5  1  0.002650  0.270621  0.001940  1
  Ga  Ga6  1  0.806480  0.872209  0.688832  1
  Ga  Ga7  1  0.193520  0.127791  0.311168  1
  S  S8  1  0.988086  0.689515  0.688017  1
  S  S9  1  0.011914  0.310485  0.311983  1
  S  S10  1  0.984597  0.148606  0.691230  1
  S  S11  1  0.015403  0.851394  0.308770  1
  S  S12  1  0.716364  0.908285  0.922842  1
  S  S13  1  0.283636  0.091715  0.077158  1
  S  S14  1  0.712147  0.412857  0.947532  1
  S  S15  1  0.287853  0.587143  0.052468  1
  S  S16  1  0.497899  0.744683  0.496027  1
  S  S17  1  0.502101  0.255317  0.503973  1
