# generated using pymatgen
data_U8Re3B24W
_symmetry_space_group_name_H-M   'P 1'
_cell_length_a   3.65216200
_cell_length_b   9.28506506
_cell_length_c   11.37887908
_cell_angle_alpha   90.01315181
_cell_angle_beta   90.00000000
_cell_angle_gamma   90.00000000
_symmetry_Int_Tables_number   1
_chemical_formula_structural   U8Re3B24W
_chemical_formula_sum   'U8 Re3 B24 W1'
_cell_volume   385.86417174
_cell_formula_units_Z   1
loop_
 _symmetry_equiv_pos_site_id
 _symmetry_equiv_pos_as_xyz
  1  'x, y, z'
loop_
 _atom_site_type_symbol
 _atom_site_label
 _atom_site_symmetry_multiplicity
 _atom_site_fract_x
 _atom_site_fract_y
 _atom_site_fract_z
 _atom_site_occupancy
  U  U0  1  0.000000  0.335916  0.407273  1
  U  U1  1  0.000000  0.664163  0.592147  1
  U  U2  1  0.000000  0.835163  0.092957  1
  U  U3  1  0.000000  0.163749  0.907688  1
  U  U4  1  0.000000  0.956015  0.395506  1
  U  U5  1  0.000000  0.044083  0.604628  1
  U  U6  1  0.000000  0.456680  0.104449  1
  U  U7  1  0.000000  0.543622  0.895094  1
  Re  Re8  1  0.000000  0.355413  0.679940  1
  Re  Re9  1  0.000000  0.144419  0.179635  1
  Re  Re10  1  0.000000  0.855879  0.820489  1
  B  B11  1  0.500000  0.549196  0.433798  1
  B  B12  1  0.500000  0.449759  0.567438  1
  B  B13  1  0.500000  0.049671  0.067201  1
  B  B14  1  0.500000  0.950027  0.933063  1
  B  B15  1  0.500000  0.743487  0.424934  1
  B  B16  1  0.500000  0.257112  0.576306  1
  B  B17  1  0.500000  0.242797  0.076180  1
  B  B18  1  0.500000  0.757043  0.923468  1
  B  B19  1  0.500000  0.804707  0.272743  1
  B  B20  1  0.500000  0.196136  0.726952  1
  B  B21  1  0.500000  0.303256  0.226636  1
  B  B22  1  0.500000  0.696223  0.772997  1
  B  B23  1  0.500000  0.645187  0.186924  1
  B  B24  1  0.500000  0.355252  0.811949  1
  B  B25  1  0.500000  0.144719  0.311727  1
  B  B26  1  0.500000  0.855530  0.688372  1
  B  B27  1  0.500000  0.986236  0.218689  1
  B  B28  1  0.500000  0.014300  0.781374  1
  B  B29  1  0.500000  0.484491  0.280832  1
  B  B30  1  0.500000  0.514121  0.718840  1
  B  B31  1  0.500000  0.643066  0.038812  1
  B  B32  1  0.500000  0.356870  0.960341  1
  B  B33  1  0.500000  0.143344  0.460232  1
  B  B34  1  0.500000  0.857666  0.540271  1
  W  W35  1  0.000000  0.644701  0.320113  1
