# generated using pymatgen
data_TiNb5Ga4(CuC)2
_symmetry_space_group_name_H-M   'P 1'
_cell_length_a   8.28893634
_cell_length_b   8.26403611
_cell_length_c   8.28894257
_cell_angle_alpha   60.09542523
_cell_angle_beta   59.79569800
_cell_angle_gamma   60.09538265
_symmetry_Int_Tables_number   1
_chemical_formula_structural   TiNb5Ga4(CuC)2
_chemical_formula_sum   'Ti2 Nb10 Ga8 Cu4 C4'
_cell_volume   401.44212447
_cell_formula_units_Z   2
loop_
 _symmetry_equiv_pos_site_id
 _symmetry_equiv_pos_as_xyz
  1  'x, y, z'
loop_
 _atom_site_type_symbol
 _atom_site_label
 _atom_site_symmetry_multiplicity
 _atom_site_fract_x
 _atom_site_fract_y
 _atom_site_fract_z
 _atom_site_occupancy
  Ti  Ti0  1  0.682069  0.317842  0.682069  1
  Ti  Ti1  1  0.932024  0.567924  0.932024  1
  Nb  Nb2  1  0.566337  0.933663  0.566337  1
  Nb  Nb3  1  0.314275  0.685911  0.685295  1
  Nb  Nb4  1  0.685343  0.314453  0.314270  1
  Nb  Nb5  1  0.316292  0.683704  0.316292  1
  Nb  Nb6  1  0.685295  0.685911  0.314274  1
  Nb  Nb7  1  0.314270  0.314453  0.685343  1
  Nb  Nb8  1  0.564062  0.564651  0.935542  1
  Nb  Nb9  1  0.935541  0.564651  0.564062  1
  Nb  Nb10  1  0.564074  0.935728  0.935517  1
  Nb  Nb11  1  0.935517  0.935728  0.564074  1
  Ga  Ga12  1  0.915458  0.911547  0.915457  1
  Ga  Ga13  1  0.992531  0.334515  0.338506  1
  Ga  Ga14  1  0.334737  0.996072  0.334738  1
  Ga  Ga15  1  0.338505  0.334515  0.992531  1
  Ga  Ga16  1  0.915515  0.257426  0.915514  1
  Ga  Ga17  1  0.915613  0.915289  0.253949  1
  Ga  Ga18  1  0.253949  0.915289  0.915612  1
  Ga  Ga19  1  0.334753  0.334485  0.334754  1
  Cu  Cu20  1  0.124901  0.126680  0.124901  1
  Cu  Cu21  1  0.626331  0.125719  0.122659  1
  Cu  Cu22  1  0.124471  0.623695  0.124471  1
  Cu  Cu23  1  0.122659  0.125719  0.626331  1
  C  C24  1  0.626370  0.618513  0.626370  1
  C  C25  1  0.121221  0.623607  0.631523  1
  C  C26  1  0.626362  0.128706  0.626362  1
  C  C27  1  0.631523  0.623607  0.121221  1
