# generated using pymatgen
data_SbI9
_symmetry_space_group_name_H-M   'P 1'
_cell_length_a   10.36914733
_cell_length_b   10.39468548
_cell_length_c   10.43037995
_cell_angle_alpha   89.44493555
_cell_angle_beta   89.45548085
_cell_angle_gamma   89.33849606
_symmetry_Int_Tables_number   1
_chemical_formula_structural   SbI9
_chemical_formula_sum   'Sb2 I18'
_cell_volume   1124.05107006
_cell_formula_units_Z   2
loop_
 _symmetry_equiv_pos_site_id
 _symmetry_equiv_pos_as_xyz
  1  'x, y, z'
loop_
 _atom_site_type_symbol
 _atom_site_label
 _atom_site_symmetry_multiplicity
 _atom_site_fract_x
 _atom_site_fract_y
 _atom_site_fract_z
 _atom_site_occupancy
  Sb  Sb0  1  0.500000  0.500000  0.500000  1
  Sb  Sb1  1  0.000000  0.000000  0.000000  1
  I  I2  1  0.794542  0.468306  0.502891  1
  I  I3  1  0.500772  0.793665  0.468264  1
  I  I4  1  0.468158  0.501737  0.792802  1
  I  I5  1  0.205458  0.531694  0.497109  1
  I  I6  1  0.499228  0.206335  0.531736  1
  I  I7  1  0.531842  0.498263  0.207198  1
  I  I8  1  0.896547  0.378997  0.748901  1
  I  I9  1  0.747542  0.895119  0.377910  1
  I  I10  1  0.379030  0.748126  0.895707  1
  I  I11  1  0.103453  0.621003  0.251099  1
  I  I12  1  0.252458  0.104881  0.622090  1
  I  I13  1  0.620970  0.251874  0.104293  1
  I  I14  1  0.012830  0.979340  0.705887  1
  I  I15  1  0.704393  0.012574  0.978185  1
  I  I16  1  0.977958  0.704922  0.012267  1
  I  I17  1  0.987170  0.020660  0.294113  1
  I  I18  1  0.295607  0.987426  0.021815  1
  I  I19  1  0.022042  0.295078  0.987733  1
