# generated using pymatgen
data_CaNd5Cd4Pd13
_symmetry_space_group_name_H-M   'P 1'
_cell_length_a   8.55996602
_cell_length_b   8.55996516
_cell_length_c   8.55996476
_cell_angle_alpha   109.36428183
_cell_angle_beta   109.52471930
_cell_angle_gamma   109.52471270
_symmetry_Int_Tables_number   1
_chemical_formula_structural   CaNd5Cd4Pd13
_chemical_formula_sum   'Ca1 Nd5 Cd4 Pd13'
_cell_volume   482.82860836
_cell_formula_units_Z   1
loop_
 _symmetry_equiv_pos_site_id
 _symmetry_equiv_pos_as_xyz
  1  'x, y, z'
loop_
 _atom_site_type_symbol
 _atom_site_label
 _atom_site_symmetry_multiplicity
 _atom_site_fract_x
 _atom_site_fract_y
 _atom_site_fract_z
 _atom_site_occupancy
  Ca  Ca0  1  0.000000  0.301164  0.301164  1
  Nd  Nd1  1  0.000000  0.693716  0.693716  1
  Nd  Nd2  1  0.302272  0.000243  0.302514  1
  Nd  Nd3  1  0.697728  0.697971  0.000243  1
  Nd  Nd4  1  0.697728  0.000243  0.697971  1
  Nd  Nd5  1  0.302272  0.302514  0.000243  1
  Cd  Cd6  1  0.000000  0.000893  0.499492  1
  Cd  Cd7  1  0.501403  0.000893  0.000893  1
  Cd  Cd8  1  0.000000  0.499492  0.000893  1
  Cd  Cd9  1  0.498597  0.499492  0.499492  1
  Pd  Pd10  1  0.341225  0.657918  0.999143  1
  Pd  Pd11  1  0.000000  0.340348  0.660197  1
  Pd  Pd12  1  0.657193  0.000285  0.343092  1
  Pd  Pd13  1  0.319847  0.660197  0.660197  1
  Pd  Pd14  1  0.658775  0.316690  0.657918  1
  Pd  Pd15  1  0.680153  0.340348  0.340348  1
  Pd  Pd16  1  0.342807  0.685900  0.343092  1
  Pd  Pd17  1  0.342807  0.343092  0.685900  1
  Pd  Pd18  1  0.000000  0.660197  0.340348  1
  Pd  Pd19  1  0.658775  0.657918  0.316690  1
  Pd  Pd20  1  0.341225  0.999143  0.657918  1
  Pd  Pd21  1  0.000000  0.998249  0.998249  1
  Pd  Pd22  1  0.657193  0.343092  0.000285  1
