# generated using pymatgen
data_KPr2PuB24
_symmetry_space_group_name_H-M   'P 1'
_cell_length_a   7.20019700
_cell_length_b   7.20019742
_cell_length_c   5.90486200
_cell_angle_alpha   90.00000000
_cell_angle_beta   90.00000000
_cell_angle_gamma   109.31788493
_symmetry_Int_Tables_number   1
_chemical_formula_structural   KPr2PuB24
_chemical_formula_sum   'K1 Pr2 Pu1 B24'
_cell_volume   288.88929475
_cell_formula_units_Z   1
loop_
 _symmetry_equiv_pos_site_id
 _symmetry_equiv_pos_as_xyz
  1  'x, y, z'
loop_
 _atom_site_type_symbol
 _atom_site_label
 _atom_site_symmetry_multiplicity
 _atom_site_fract_x
 _atom_site_fract_y
 _atom_site_fract_z
 _atom_site_occupancy
  K  K0  1  0.749825  0.250175  0.500000  1
  Pr  Pr1  1  0.501526  0.498474  0.000000  1
  Pr  Pr2  1  0.250393  0.749607  0.500000  1
  Pu  Pu3  1  0.998302  0.001698  0.000000  1
  B  B4  1  0.175187  0.325411  0.648929  1
  B  B5  1  0.926173  0.575843  0.149590  1
  B  B6  1  0.674589  0.824813  0.648929  1
  B  B7  1  0.424157  0.073827  0.149590  1
  B  B8  1  0.175187  0.325411  0.351071  1
  B  B9  1  0.926173  0.575843  0.850410  1
  B  B10  1  0.674589  0.824813  0.351071  1
  B  B11  1  0.424157  0.073827  0.850410  1
  B  B12  1  0.400568  0.398087  0.500000  1
  B  B13  1  0.149834  0.650563  0.000000  1
  B  B14  1  0.898873  0.901111  0.500000  1
  B  B15  1  0.649327  0.148771  0.000000  1
  B  B16  1  0.323999  0.173853  0.649061  1
  B  B17  1  0.075596  0.425904  0.149564  1
  B  B18  1  0.826147  0.676001  0.649061  1
  B  B19  1  0.574096  0.924404  0.149564  1
  B  B20  1  0.098889  0.101127  0.500000  1
  B  B21  1  0.851229  0.350673  0.000000  1
  B  B22  1  0.601913  0.599432  0.500000  1
  B  B23  1  0.349437  0.850166  0.000000  1
  B  B24  1  0.323999  0.173853  0.350939  1
  B  B25  1  0.075596  0.425904  0.850436  1
  B  B26  1  0.826147  0.676001  0.350939  1
  B  B27  1  0.574096  0.924404  0.850436  1
