# generated using pymatgen
data_CaYb3Ho2(Si3Os)8
_symmetry_space_group_name_H-M   'P 1'
_cell_length_a   10.16819281
_cell_length_b   10.16819339
_cell_length_c   8.15682000
_cell_angle_alpha   89.97255416
_cell_angle_beta   90.02744215
_cell_angle_gamma   132.69867385
_symmetry_Int_Tables_number   1
_chemical_formula_structural   CaYb3Ho2(Si3Os)8
_chemical_formula_sum   'Ca1 Yb3 Ho2 Si24 Os8'
_cell_volume   619.80423194
_cell_formula_units_Z   1
loop_
 _symmetry_equiv_pos_site_id
 _symmetry_equiv_pos_as_xyz
  1  'x, y, z'
loop_
 _atom_site_type_symbol
 _atom_site_label
 _atom_site_symmetry_multiplicity
 _atom_site_fract_x
 _atom_site_fract_y
 _atom_site_fract_z
 _atom_site_occupancy
  Ca  Ca0  1  0.499426  0.999426  0.750000  1
  Yb  Yb1  1  0.499991  0.499856  0.499979  1
  Yb  Yb2  1  0.999856  0.999991  0.000021  1
  Yb  Yb3  1  0.000138  0.500138  0.250000  1
  Ho  Ho4  1  0.501438  0.001438  0.250000  1
  Ho  Ho5  1  0.998833  0.498833  0.750000  1
  Si  Si6  1  0.796359  0.203958  0.499979  1
  Si  Si7  1  0.295105  0.704148  0.000503  1
  Si  Si8  1  0.204148  0.795105  0.499497  1
  Si  Si9  1  0.703958  0.296359  0.000021  1
  Si  Si10  1  0.331080  0.336240  0.831781  1
  Si  Si11  1  0.663291  0.669479  0.168293  1
  Si  Si12  1  0.169479  0.163291  0.331707  1
  Si  Si13  1  0.836240  0.831080  0.668219  1
  Si  Si14  1  0.123545  0.890419  0.730548  1
  Si  Si15  1  0.108899  0.875606  0.269611  1
  Si  Si16  1  0.608494  0.375115  0.230506  1
  Si  Si17  1  0.626029  0.392726  0.769140  1
  Si  Si18  1  0.875115  0.108494  0.269494  1
  Si  Si19  1  0.892726  0.126029  0.730860  1
  Si  Si20  1  0.390419  0.623545  0.769452  1
  Si  Si21  1  0.375606  0.608899  0.230389  1
  Si  Si22  1  0.347344  0.113449  0.506617  1
  Si  Si23  1  0.886681  0.652887  0.493177  1
  Si  Si24  1  0.385411  0.152058  0.010044  1
  Si  Si25  1  0.847537  0.614238  0.990982  1
  Si  Si26  1  0.652058  0.885411  0.489956  1
  Si  Si27  1  0.114238  0.347537  0.509018  1
  Si  Si28  1  0.613449  0.847344  0.993383  1
  Si  Si29  1  0.152887  0.386681  0.006823  1
  Os  Os30  1  0.671968  0.329133  0.499571  1
  Os  Os31  1  0.169948  0.828875  0.000600  1
  Os  Os32  1  0.328875  0.669948  0.499400  1
  Os  Os33  1  0.829133  0.171968  0.000429  1
  Os  Os34  1  0.127007  0.127649  0.625401  1
  Os  Os35  1  0.872439  0.873201  0.374607  1
  Os  Os36  1  0.373201  0.372439  0.125393  1
  Os  Os37  1  0.627649  0.627007  0.874599  1
