# generated using pymatgen
data_LaHo3(Si5Pt3)2
_symmetry_space_group_name_H-M   'P 1'
_cell_length_a   8.18996606
_cell_length_b   8.19778504
_cell_length_c   8.19778451
_cell_angle_alpha   136.35924400
_cell_angle_beta   104.83839964
_cell_angle_gamma   91.17401613
_symmetry_Int_Tables_number   1
_chemical_formula_structural   LaHo3(Si5Pt3)2
_chemical_formula_sum   'La1 Ho3 Si10 Pt6'
_cell_volume   349.26827541
_cell_formula_units_Z   1
loop_
 _symmetry_equiv_pos_site_id
 _symmetry_equiv_pos_as_xyz
  1  'x, y, z'
loop_
 _atom_site_type_symbol
 _atom_site_label
 _atom_site_symmetry_multiplicity
 _atom_site_fract_x
 _atom_site_fract_y
 _atom_site_fract_z
 _atom_site_occupancy
  La  La0  1  0.897965  0.129468  0.768497  1
  Ho  Ho1  1  0.642251  0.370322  0.271928  1
  Ho  Ho2  1  0.358304  0.629642  0.728662  1
  Ho  Ho3  1  0.099394  0.870576  0.228818  1
  Si  Si4  1  0.273255  0.521700  0.250328  1
  Si  Si5  1  0.728322  0.479041  0.750025  1
  Si  Si6  1  0.728322  0.978297  0.249282  1
  Si  Si7  1  0.273255  0.022927  0.751554  1
  Si  Si8  1  0.461267  0.111545  0.349722  1
  Si  Si9  1  0.534605  0.884696  0.649909  1
  Si  Si10  1  0.762702  0.611509  0.151194  1
  Si  Si11  1  0.239118  0.390451  0.848666  1
  Si  Si12  1  0.000145  0.248511  0.249361  1
  Si  Si13  1  0.000145  0.750784  0.751633  1
  Pt  Pt14  1  0.251952  0.137766  0.114185  1
  Pt  Pt15  1  0.747741  0.860182  0.887559  1
  Pt  Pt16  1  0.027051  0.637695  0.389357  1
  Pt  Pt17  1  0.976805  0.365702  0.611102  1
  Pt  Pt18  1  0.498702  0.249968  0.749484  1
  Pt  Pt19  1  0.498702  0.749218  0.248734  1
