# generated using pymatgen
data_AgTe19
_symmetry_space_group_name_H-M   'P 1'
_cell_length_a   7.96740280
_cell_length_b   8.94102754
_cell_length_c   10.12016500
_cell_angle_alpha   103.09486428
_cell_angle_beta   96.93454965
_cell_angle_gamma   107.31739481
_symmetry_Int_Tables_number   1
_chemical_formula_structural   AgTe19
_chemical_formula_sum   'Ag1 Te19'
_cell_volume   656.48094483
_cell_formula_units_Z   1
loop_
 _symmetry_equiv_pos_site_id
 _symmetry_equiv_pos_as_xyz
  1  'x, y, z'
loop_
 _atom_site_type_symbol
 _atom_site_label
 _atom_site_symmetry_multiplicity
 _atom_site_fract_x
 _atom_site_fract_y
 _atom_site_fract_z
 _atom_site_occupancy
  Ag  Ag0  1  0.000000  0.500000  0.000000  1
  Te  Te1  1  0.796757  0.578372  0.615062  1
  Te  Te2  1  0.622792  0.202306  0.198631  1
  Te  Te3  1  0.377208  0.797694  0.801369  1
  Te  Te4  1  0.598471  0.686075  0.191010  1
  Te  Te5  1  0.203243  0.421628  0.384938  1
  Te  Te6  1  0.401529  0.313925  0.808990  1
  Te  Te7  1  0.000000  0.000000  0.000000  1
  Te  Te8  1  0.197869  0.912607  0.393813  1
  Te  Te9  1  0.802131  0.087393  0.606187  1
  Te  Te10  1  0.709712  0.627558  0.907832  1
  Te  Te11  1  0.513534  0.254063  0.498310  1
  Te  Te12  1  0.711729  0.145968  0.907816  1
  Te  Te13  1  0.288271  0.854032  0.092184  1
  Te  Te14  1  0.486466  0.745937  0.501690  1
  Te  Te15  1  0.095921  0.469178  0.721186  1
  Te  Te16  1  0.290288  0.372442  0.092168  1
  Te  Te17  1  0.910508  0.038479  0.298263  1
  Te  Te18  1  0.089492  0.961521  0.701737  1
  Te  Te19  1  0.904079  0.530822  0.278814  1
