# generated using pymatgen
data_Pr16Cd4IrPt3
_symmetry_space_group_name_H-M   'P 1'
_cell_length_a   10.10772543
_cell_length_b   10.10050847
_cell_length_c   10.10050900
_cell_angle_alpha   60.00000153
_cell_angle_beta   60.02361780
_cell_angle_gamma   60.02362233
_symmetry_Int_Tables_number   1
_chemical_formula_structural   Pr16Cd4IrPt3
_chemical_formula_sum   'Pr16 Cd4 Ir1 Pt3'
_cell_volume   729.42374789
_cell_formula_units_Z   1
loop_
 _symmetry_equiv_pos_site_id
 _symmetry_equiv_pos_as_xyz
  1  'x, y, z'
loop_
 _atom_site_type_symbol
 _atom_site_label
 _atom_site_symmetry_multiplicity
 _atom_site_fract_x
 _atom_site_fract_y
 _atom_site_fract_z
 _atom_site_occupancy
  Pr  Pr0  1  0.351406  0.346684  0.346684  1
  Pr  Pr1  1  0.351406  0.346684  0.955226  1
  Pr  Pr2  1  0.351406  0.955226  0.346684  1
  Pr  Pr3  1  0.950981  0.349673  0.349673  1
  Pr  Pr4  1  0.805284  0.190940  0.190940  1
  Pr  Pr5  1  0.192630  0.807886  0.807886  1
  Pr  Pr6  1  0.192630  0.807886  0.191599  1
  Pr  Pr7  1  0.805284  0.190940  0.812836  1
  Pr  Pr8  1  0.192630  0.191599  0.807886  1
  Pr  Pr9  1  0.805284  0.812836  0.190940  1
  Pr  Pr10  1  0.936276  0.564621  0.564621  1
  Pr  Pr11  1  0.565610  0.935998  0.935998  1
  Pr  Pr12  1  0.565610  0.935998  0.562393  1
  Pr  Pr13  1  0.936276  0.564621  0.934482  1
  Pr  Pr14  1  0.565610  0.562393  0.935998  1
  Pr  Pr15  1  0.936276  0.934482  0.564621  1
  Cd  Cd16  1  0.579269  0.579680  0.579680  1
  Cd  Cd17  1  0.579269  0.579680  0.261369  1
  Cd  Cd18  1  0.579269  0.261369  0.579680  1
  Cd  Cd19  1  0.261512  0.579496  0.579496  1
  Ir  Ir20  1  0.573359  0.142214  0.142214  1
  Pt  Pt21  1  0.140907  0.142945  0.142945  1
  Pt  Pt22  1  0.140907  0.142945  0.573203  1
  Pt  Pt23  1  0.140907  0.573203  0.142945  1
