# generated using pymatgen
data_Er5PuTc2
_symmetry_space_group_name_H-M   'P 1'
_cell_length_a   6.18512000
_cell_length_b   7.21046400
_cell_length_c   9.25691800
_cell_angle_alpha   90.00000000
_cell_angle_beta   90.00000000
_cell_angle_gamma   90.00000000
_symmetry_Int_Tables_number   1
_chemical_formula_structural   Er5PuTc2
_chemical_formula_sum   'Er10 Pu2 Tc4'
_cell_volume   412.83618823
_cell_formula_units_Z   2
loop_
 _symmetry_equiv_pos_site_id
 _symmetry_equiv_pos_as_xyz
  1  'x, y, z'
loop_
 _atom_site_type_symbol
 _atom_site_label
 _atom_site_symmetry_multiplicity
 _atom_site_fract_x
 _atom_site_fract_y
 _atom_site_fract_z
 _atom_site_occupancy
  Er  Er0  1  0.338930  0.682038  0.062384  1
  Er  Er1  1  0.161070  0.182038  0.437616  1
  Er  Er2  1  0.665664  0.323753  0.565462  1
  Er  Er3  1  0.834336  0.823753  0.934538  1
  Er  Er4  1  0.665664  0.323753  0.934538  1
  Er  Er5  1  0.834336  0.823753  0.565462  1
  Er  Er6  1  0.338930  0.682038  0.437616  1
  Er  Er7  1  0.161070  0.182038  0.062384  1
  Er  Er8  1  0.128922  0.464898  0.750000  1
  Er  Er9  1  0.371078  0.964898  0.750000  1
  Pu  Pu10  1  0.851911  0.545783  0.250000  1
  Pu  Pu11  1  0.648089  0.045783  0.250000  1
  Tc  Tc12  1  0.998186  0.862781  0.250000  1
  Tc  Tc13  1  0.501814  0.362781  0.250000  1
  Tc  Tc14  1  0.960782  0.114957  0.750000  1
  Tc  Tc15  1  0.539218  0.614957  0.750000  1
