# generated using pymatgen
data_La2Nb3Ni9P7
_symmetry_space_group_name_H-M   'P 1'
_cell_length_a   3.79245600
_cell_length_b   9.41421358
_cell_length_c   9.41421400
_cell_angle_alpha   120.00000146
_cell_angle_beta   90.00000000
_cell_angle_gamma   90.00000000
_symmetry_Int_Tables_number   1
_chemical_formula_structural   La2Nb3Ni9P7
_chemical_formula_sum   'La2 Nb3 Ni9 P7'
_cell_volume   291.08464023
_cell_formula_units_Z   1
loop_
 _symmetry_equiv_pos_site_id
 _symmetry_equiv_pos_as_xyz
  1  'x, y, z'
loop_
 _atom_site_type_symbol
 _atom_site_label
 _atom_site_symmetry_multiplicity
 _atom_site_fract_x
 _atom_site_fract_y
 _atom_site_fract_z
 _atom_site_occupancy
  La  La0  1  0.000000  0.666667  0.333333  1
  La  La1  1  0.500000  0.333333  0.666667  1
  Nb  Nb2  1  0.500000  0.778628  0.894200  1
  Nb  Nb3  1  0.500000  0.115571  0.221372  1
  Nb  Nb4  1  0.500000  0.105800  0.884429  1
  Ni  Ni5  1  0.000000  0.573056  0.938077  1
  Ni  Ni6  1  0.000000  0.365019  0.426944  1
  Ni  Ni7  1  0.000000  0.061923  0.634981  1
  Ni  Ni8  1  0.000000  0.871731  0.153176  1
  Ni  Ni9  1  0.000000  0.281446  0.128269  1
  Ni  Ni10  1  0.000000  0.846824  0.718554  1
  Ni  Ni11  1  0.500000  0.943946  0.382550  1
  Ni  Ni12  1  0.500000  0.438604  0.056054  1
  Ni  Ni13  1  0.500000  0.617450  0.561396  1
  P  P14  1  0.500000  0.707261  0.111528  1
  P  P15  1  0.500000  0.404270  0.292739  1
  P  P16  1  0.500000  0.888472  0.595730  1
  P  P17  1  0.000000  0.000000  0.000000  1
  P  P18  1  0.000000  0.590130  0.692072  1
  P  P19  1  0.000000  0.101942  0.409870  1
  P  P20  1  0.000000  0.307928  0.898058  1
