# generated using pymatgen
data_Cs13Ta2In5HgP10
_symmetry_space_group_name_H-M   'P 1'
_cell_length_a   9.65882488
_cell_length_b   9.75721308
_cell_length_c   13.83887396
_cell_angle_alpha   84.83010703
_cell_angle_beta   79.97381478
_cell_angle_gamma   65.59210328
_symmetry_Int_Tables_number   1
_chemical_formula_structural   Cs13Ta2In5HgP10
_chemical_formula_sum   'Cs13 Ta2 In5 Hg1 P10'
_cell_volume   1169.27993268
_cell_formula_units_Z   1
loop_
 _symmetry_equiv_pos_site_id
 _symmetry_equiv_pos_as_xyz
  1  'x, y, z'
loop_
 _atom_site_type_symbol
 _atom_site_label
 _atom_site_symmetry_multiplicity
 _atom_site_fract_x
 _atom_site_fract_y
 _atom_site_fract_z
 _atom_site_occupancy
  Cs  Cs0  1  0.502822  0.869941  0.359093  1
  Cs  Cs1  1  0.504036  0.123018  0.642521  1
  Cs  Cs2  1  0.853432  0.596235  0.872842  1
  Cs  Cs3  1  0.155862  0.410144  0.118888  1
  Cs  Cs4  1  0.085577  0.781268  0.434826  1
  Cs  Cs5  1  0.915565  0.220484  0.575201  1
  Cs  Cs6  1  0.753142  0.673865  0.596018  1
  Cs  Cs7  1  0.247986  0.323386  0.406835  1
  Cs  Cs8  1  0.504975  0.499940  0.997349  1
  Cs  Cs9  1  0.320842  0.919658  0.085222  1
  Cs  Cs10  1  0.676984  0.079846  0.909664  1
  Cs  Cs11  1  0.898587  0.858618  0.159930  1
  Cs  Cs12  1  0.106449  0.137984  0.833466  1
  Ta  Ta13  1  0.376504  0.736592  0.773650  1
  Ta  Ta14  1  0.622970  0.262164  0.226516  1
  In  In15  1  0.964759  0.196442  0.292412  1
  In  In16  1  0.602481  0.449105  0.413074  1
  In  In17  1  0.384246  0.554016  0.593866  1
  In  In18  1  0.728153  0.553191  0.174668  1
  In  In19  1  0.270569  0.447176  0.825223  1
  Hg  Hg20  1  0.999442  0.841889  0.707350  1
  P  P21  1  0.452288  0.529621  0.254690  1
  P  P22  1  0.548166  0.468548  0.744855  1
  P  P23  1  0.153912  0.742083  0.888882  1
  P  P24  1  0.850299  0.254485  0.115329  1
  P  P25  1  0.706867  0.147133  0.382065  1
  P  P26  1  0.303440  0.851295  0.615469  1
  P  P27  1  0.851839  0.503194  0.350820  1
  P  P28  1  0.155560  0.472665  0.648204  1
  P  P29  1  0.496386  0.862662  0.839264  1
  P  P30  1  0.505858  0.133354  0.161803  1
