# generated using pymatgen
data_SrLa3(In2Au)8
_symmetry_space_group_name_H-M   'P 1'
_cell_length_a   4.80737500
_cell_length_b   7.42989519
_cell_length_c   19.00709648
_cell_angle_alpha   90.02582702
_cell_angle_beta   90.00000000
_cell_angle_gamma   90.00000000
_symmetry_Int_Tables_number   1
_chemical_formula_structural   SrLa3(In2Au)8
_chemical_formula_sum   'Sr1 La3 In16 Au8'
_cell_volume   678.90096055
_cell_formula_units_Z   1
loop_
 _symmetry_equiv_pos_site_id
 _symmetry_equiv_pos_as_xyz
  1  'x, y, z'
loop_
 _atom_site_type_symbol
 _atom_site_label
 _atom_site_symmetry_multiplicity
 _atom_site_fract_x
 _atom_site_fract_y
 _atom_site_fract_z
 _atom_site_occupancy
  Sr  Sr0  1  0.750000  0.981257  0.641167  1
  La  La1  1  0.250000  0.018936  0.359672  1
  La  La2  1  0.250000  0.481735  0.858382  1
  La  La3  1  0.750000  0.518418  0.140700  1
  In  In4  1  0.250000  0.272643  0.688486  1
  In  In5  1  0.750000  0.729444  0.310578  1
  In  In6  1  0.750000  0.771962  0.812147  1
  In  In7  1  0.250000  0.229651  0.188796  1
  In  In8  1  0.250000  0.676058  0.683517  1
  In  In9  1  0.750000  0.320904  0.315640  1
  In  In10  1  0.750000  0.178915  0.816532  1
  In  In11  1  0.250000  0.820397  0.184029  1
  In  In12  1  0.250000  0.153362  0.534729  1
  In  In13  1  0.750000  0.847402  0.465114  1
  In  In14  1  0.750000  0.650626  0.965280  1
  In  In15  1  0.250000  0.348924  0.034635  1
  In  In16  1  0.250000  0.489910  0.430041  1
  In  In17  1  0.750000  0.508723  0.569755  1
  In  In18  1  0.750000  0.989611  0.069459  1
  In  In19  1  0.250000  0.010468  0.930861  1
  Au  Au20  1  0.250000  0.757983  0.537764  1
  Au  Au21  1  0.750000  0.240928  0.460959  1
  Au  Au22  1  0.750000  0.260420  0.962001  1
  Au  Au23  1  0.250000  0.739957  0.038471  1
  Au  Au24  1  0.250000  0.971047  0.781862  1
  Au  Au25  1  0.750000  0.029154  0.218034  1
  Au  Au26  1  0.750000  0.472021  0.719794  1
  Au  Au27  1  0.250000  0.529143  0.281594  1
