# generated using pymatgen
data_Tm2Si4Tc5Os3
_symmetry_space_group_name_H-M   'P 1'
_cell_length_a   7.46613017
_cell_length_b   7.36886313
_cell_length_c   4.01949800
_cell_angle_alpha   90.00000000
_cell_angle_beta   90.00000000
_cell_angle_gamma   89.97719064
_symmetry_Int_Tables_number   1
_chemical_formula_structural   Tm2Si4Tc5Os3
_chemical_formula_sum   'Tm2 Si4 Tc5 Os3'
_cell_volume   221.14026701
_cell_formula_units_Z   1
loop_
 _symmetry_equiv_pos_site_id
 _symmetry_equiv_pos_as_xyz
  1  'x, y, z'
loop_
 _atom_site_type_symbol
 _atom_site_label
 _atom_site_symmetry_multiplicity
 _atom_site_fract_x
 _atom_site_fract_y
 _atom_site_fract_z
 _atom_site_occupancy
  Tm  Tm0  1  0.499218  0.499299  0.500000  1
  Tm  Tm1  1  0.999838  0.998186  0.000000  1
  Si  Si2  1  0.790187  0.209739  0.500000  1
  Si  Si3  1  0.209008  0.787444  0.500000  1
  Si  Si4  1  0.290586  0.287544  0.000000  1
  Si  Si5  1  0.707220  0.710638  0.000000  1
  Tc  Tc6  1  0.844866  0.413652  0.000000  1
  Tc  Tc7  1  0.911075  0.658654  0.500000  1
  Tc  Tc8  1  0.085773  0.343786  0.500000  1
  Tc  Tc9  1  0.590158  0.158738  0.000000  1
  Tc  Tc10  1  0.412899  0.845298  0.000000  1
  Os  Os11  1  0.657485  0.911841  0.500000  1
  Os  Os12  1  0.339031  0.087307  0.500000  1
  Os  Os13  1  0.162656  0.587876  0.000000  1
