# generated using pymatgen
data_Tb5Y3Re3B24Ir
_symmetry_space_group_name_H-M   'P 1'
_cell_length_a   3.68957700
_cell_length_b   9.19962933
_cell_length_c   11.58889500
_cell_angle_alpha   89.84908361
_cell_angle_beta   90.00000000
_cell_angle_gamma   90.00000000
_symmetry_Int_Tables_number   1
_chemical_formula_structural   Tb5Y3Re3B24Ir
_chemical_formula_sum   'Tb5 Y3 Re3 B24 Ir1'
_cell_volume   393.35749472
_cell_formula_units_Z   1
loop_
 _symmetry_equiv_pos_site_id
 _symmetry_equiv_pos_as_xyz
  1  'x, y, z'
loop_
 _atom_site_type_symbol
 _atom_site_label
 _atom_site_symmetry_multiplicity
 _atom_site_fract_x
 _atom_site_fract_y
 _atom_site_fract_z
 _atom_site_occupancy
  Tb  Tb0  1  0.000000  0.818424  0.084547  1
  Tb  Tb1  1  0.000000  0.178646  0.908966  1
  Tb  Tb2  1  0.000000  0.326877  0.418613  1
  Tb  Tb3  1  0.000000  0.677146  0.587457  1
  Tb  Tb4  1  0.000000  0.443837  0.129506  1
  Y  Y5  1  0.000000  0.556010  0.871210  1
  Y  Y6  1  0.000000  0.941026  0.371760  1
  Y  Y7  1  0.000000  0.056839  0.628329  1
  Re  Re8  1  0.000000  0.862990  0.822459  1
  Re  Re9  1  0.000000  0.637994  0.320198  1
  Re  Re10  1  0.000000  0.362197  0.678808  1
  B  B11  1  0.500000  0.053863  0.066544  1
  B  B12  1  0.500000  0.946744  0.932907  1
  B  B13  1  0.500000  0.553329  0.433003  1
  B  B14  1  0.500000  0.447035  0.567698  1
  B  B15  1  0.500000  0.248430  0.080113  1
  B  B16  1  0.500000  0.751450  0.918580  1
  B  B17  1  0.500000  0.748083  0.418423  1
  B  B18  1  0.500000  0.252437  0.581480  1
  B  B19  1  0.500000  0.290210  0.234570  1
  B  B20  1  0.500000  0.709180  0.766016  1
  B  B21  1  0.500000  0.791008  0.265119  1
  B  B22  1  0.500000  0.208850  0.733914  1
  B  B23  1  0.500000  0.131519  0.315412  1
  B  B24  1  0.500000  0.869536  0.686331  1
  B  B25  1  0.500000  0.631005  0.185548  1
  B  B26  1  0.500000  0.368611  0.814042  1
  B  B27  1  0.500000  0.483304  0.288273  1
  B  B28  1  0.500000  0.517227  0.712841  1
  B  B29  1  0.500000  0.982957  0.212063  1
  B  B30  1  0.500000  0.017895  0.787623  1
  B  B31  1  0.500000  0.104391  0.470240  1
  B  B32  1  0.500000  0.896472  0.528375  1
  B  B33  1  0.500000  0.603110  0.029113  1
  B  B34  1  0.500000  0.394332  0.971269  1
  Ir  Ir35  1  0.000000  0.137040  0.178651  1
