# generated using pymatgen
data_SbRhS4
_symmetry_space_group_name_H-M   'P 1'
_cell_length_a   7.24750578
_cell_length_b   7.24750611
_cell_length_c   6.21860570
_cell_angle_alpha   64.18797612
_cell_angle_beta   64.18798604
_cell_angle_gamma   28.99200913
_symmetry_Int_Tables_number   1
_chemical_formula_structural   SbRhS4
_chemical_formula_sum   'Sb1 Rh1 S4'
_cell_volume   141.40403977
_cell_formula_units_Z   1
loop_
 _symmetry_equiv_pos_site_id
 _symmetry_equiv_pos_as_xyz
  1  'x, y, z'
loop_
 _atom_site_type_symbol
 _atom_site_label
 _atom_site_symmetry_multiplicity
 _atom_site_fract_x
 _atom_site_fract_y
 _atom_site_fract_z
 _atom_site_occupancy
  Sb  Sb0  1  0.000000  0.000000  0.000000  1
  Rh  Rh1  1  0.500000  0.500000  0.500000  1
  S  S2  1  0.898591  0.898591  0.452850  1
  S  S3  1  0.612220  0.612220  0.074788  1
  S  S4  1  0.101409  0.101409  0.547150  1
  S  S5  1  0.387780  0.387780  0.925212  1
