# generated using pymatgen
data_Sc11Tc4
_symmetry_space_group_name_H-M   'P 1'
_cell_length_a   9.51574893
_cell_length_b   9.51574960
_cell_length_c   9.51574900
_cell_angle_alpha   59.99999862
_cell_angle_beta   59.99999628
_cell_angle_gamma   59.99999986
_symmetry_Int_Tables_number   1
_chemical_formula_structural   Sc11Tc4
_chemical_formula_sum   'Sc22 Tc8'
_cell_volume   609.27582058
_cell_formula_units_Z   2
loop_
 _symmetry_equiv_pos_site_id
 _symmetry_equiv_pos_as_xyz
  1  'x, y, z'
loop_
 _atom_site_type_symbol
 _atom_site_label
 _atom_site_symmetry_multiplicity
 _atom_site_fract_x
 _atom_site_fract_y
 _atom_site_fract_z
 _atom_site_occupancy
  Sc  Sc0  1  0.801291  0.801291  0.198709  1
  Sc  Sc1  1  0.198709  0.801291  0.198709  1
  Sc  Sc2  1  0.801291  0.198709  0.198709  1
  Sc  Sc3  1  0.198709  0.198709  0.801291  1
  Sc  Sc4  1  0.801291  0.198709  0.801291  1
  Sc  Sc5  1  0.198709  0.801291  0.801291  1
  Sc  Sc6  1  0.617296  0.617296  0.148110  1
  Sc  Sc7  1  0.617296  0.148110  0.617296  1
  Sc  Sc8  1  0.148110  0.617296  0.617296  1
  Sc  Sc9  1  0.617296  0.617296  0.617296  1
  Sc  Sc10  1  0.382704  0.382704  0.851890  1
  Sc  Sc11  1  0.382704  0.851890  0.382704  1
  Sc  Sc12  1  0.851890  0.382704  0.382704  1
  Sc  Sc13  1  0.382704  0.382704  0.382704  1
  Sc  Sc14  1  0.843667  0.843667  0.468998  1
  Sc  Sc15  1  0.843667  0.468998  0.843667  1
  Sc  Sc16  1  0.468998  0.843667  0.843667  1
  Sc  Sc17  1  0.843667  0.843667  0.843667  1
  Sc  Sc18  1  0.156333  0.156333  0.531002  1
  Sc  Sc19  1  0.156333  0.531002  0.156333  1
  Sc  Sc20  1  0.531002  0.156333  0.156333  1
  Sc  Sc21  1  0.156333  0.156333  0.156333  1
  Tc  Tc22  1  0.000000  0.000000  0.000000  1
  Tc  Tc23  1  0.500000  0.500000  0.500000  1
  Tc  Tc24  1  0.000000  0.000000  0.500000  1
  Tc  Tc25  1  0.500000  0.000000  0.500000  1
  Tc  Tc26  1  0.000000  0.500000  0.500000  1
  Tc  Tc27  1  0.500000  0.500000  0.000000  1
  Tc  Tc28  1  0.000000  0.500000  0.000000  1
  Tc  Tc29  1  0.500000  0.000000  0.000000  1
