# generated using pymatgen
data_Zr9Sc11(As2P)4
_symmetry_space_group_name_H-M   'P 1'
_cell_length_a   7.11625031
_cell_length_b   8.20756100
_cell_length_c   10.57042945
_cell_angle_alpha   90.00000000
_cell_angle_beta   90.03365477
_cell_angle_gamma   90.00000000
_symmetry_Int_Tables_number   1
_chemical_formula_structural   Zr9Sc11(As2P)4
_chemical_formula_sum   'Zr9 Sc11 As8 P4'
_cell_volume   617.38758494
_cell_formula_units_Z   1
loop_
 _symmetry_equiv_pos_site_id
 _symmetry_equiv_pos_as_xyz
  1  'x, y, z'
loop_
 _atom_site_type_symbol
 _atom_site_label
 _atom_site_symmetry_multiplicity
 _atom_site_fract_x
 _atom_site_fract_y
 _atom_site_fract_z
 _atom_site_occupancy
  Zr  Zr0  1  0.819002  0.948359  0.065652  1
  Zr  Zr1  1  0.314959  0.050523  0.436059  1
  Zr  Zr2  1  0.184360  0.447962  0.936518  1
  Zr  Zr3  1  0.683554  0.551166  0.563072  1
  Zr  Zr4  1  0.184360  0.052038  0.936518  1
  Zr  Zr5  1  0.683554  0.948834  0.563072  1
  Zr  Zr6  1  0.819002  0.551641  0.065652  1
  Zr  Zr7  1  0.314959  0.449477  0.436059  1
  Zr  Zr8  1  0.159843  0.750000  0.219589  1
  Sc  Sc9  1  0.660668  0.250000  0.279847  1
  Sc  Sc10  1  0.840110  0.250000  0.782054  1
  Sc  Sc11  1  0.339225  0.750000  0.718382  1
  Sc  Sc12  1  0.466153  0.750000  0.002275  1
  Sc  Sc13  1  0.965464  0.250000  0.498384  1
  Sc  Sc14  1  0.533577  0.250000  0.997089  1
  Sc  Sc15  1  0.032765  0.750000  0.502065  1
  Sc  Sc16  1  0.641942  0.750000  0.295902  1
  Sc  Sc17  1  0.141014  0.250000  0.204430  1
  Sc  Sc18  1  0.359345  0.250000  0.703757  1
  Sc  Sc19  1  0.857771  0.750000  0.796301  1
  As  As20  1  0.930505  0.509483  0.328106  1
  As  As21  1  0.432265  0.489540  0.172172  1
  As  As22  1  0.068406  0.010297  0.673124  1
  As  As23  1  0.568855  0.989430  0.826606  1
  As  As24  1  0.068406  0.489703  0.673124  1
  As  As25  1  0.568855  0.510570  0.826606  1
  As  As26  1  0.930505  0.990517  0.328106  1
  As  As27  1  0.432265  0.010460  0.172172  1
  P  P28  1  0.410119  0.750000  0.480934  1
  P  P29  1  0.909062  0.250000  0.019435  1
  P  P30  1  0.588643  0.250000  0.516936  1
  P  P31  1  0.090491  0.750000  0.980004  1
