# generated using pymatgen
data_Er6Sc4Sn5Bi
_symmetry_space_group_name_H-M   'P 1'
_cell_length_a   8.76771200
_cell_length_b   8.76593433
_cell_length_c   6.24355100
_cell_angle_alpha   90.00000000
_cell_angle_beta   90.00000000
_cell_angle_gamma   120.00671612
_symmetry_Int_Tables_number   1
_chemical_formula_structural   Er6Sc4Sn5Bi
_chemical_formula_sum   'Er6 Sc4 Sn5 Bi1'
_cell_volume   415.54435641
_cell_formula_units_Z   1
loop_
 _symmetry_equiv_pos_site_id
 _symmetry_equiv_pos_as_xyz
  1  'x, y, z'
loop_
 _atom_site_type_symbol
 _atom_site_label
 _atom_site_symmetry_multiplicity
 _atom_site_fract_x
 _atom_site_fract_y
 _atom_site_fract_z
 _atom_site_occupancy
  Er  Er0  1  0.994291  0.756757  0.750000  1
  Er  Er1  1  0.000245  0.239684  0.250000  1
  Er  Er2  1  0.760561  0.760316  0.250000  1
  Er  Er3  1  0.764196  0.000000  0.750000  1
  Er  Er4  1  0.237534  0.243243  0.750000  1
  Er  Er5  1  0.238381  0.000000  0.250000  1
  Sc  Sc6  1  0.332534  0.662404  0.497761  1
  Sc  Sc7  1  0.670131  0.337596  0.002239  1
  Sc  Sc8  1  0.670131  0.337596  0.497761  1
  Sc  Sc9  1  0.332534  0.662404  0.002239  1
  Sn  Sn10  1  0.399599  0.398254  0.250000  1
  Sn  Sn11  1  0.001346  0.601746  0.250000  1
  Sn  Sn12  1  0.999581  0.399951  0.750000  1
  Sn  Sn13  1  0.599630  0.600049  0.750000  1
  Sn  Sn14  1  0.601788  0.000000  0.250000  1
  Bi  Bi15  1  0.397518  0.000000  0.750000  1
