# generated using pymatgen
data_Tb5HoAl24GaOs7
_symmetry_space_group_name_H-M   'P 1'
_cell_length_a   8.86218972
_cell_length_b   8.86218879
_cell_length_c   9.55270075
_cell_angle_alpha   90.14638037
_cell_angle_beta   89.85361623
_cell_angle_gamma   119.85894533
_symmetry_Int_Tables_number   1
_chemical_formula_structural   Tb5HoAl24GaOs7
_chemical_formula_sum   'Tb5 Ho1 Al24 Ga1 Os7'
_cell_volume   650.65757322
_cell_formula_units_Z   1
loop_
 _symmetry_equiv_pos_site_id
 _symmetry_equiv_pos_as_xyz
  1  'x, y, z'
loop_
 _atom_site_type_symbol
 _atom_site_label
 _atom_site_symmetry_multiplicity
 _atom_site_fract_x
 _atom_site_fract_y
 _atom_site_fract_z
 _atom_site_occupancy
  Tb  Tb0  1  0.191299  0.384850  0.246064  1
  Tb  Tb1  1  0.808660  0.614963  0.753884  1
  Tb  Tb2  1  0.615150  0.808701  0.246064  1
  Tb  Tb3  1  0.385037  0.191340  0.753884  1
  Tb  Tb4  1  0.194181  0.805819  0.255084  1
  Ho  Ho5  1  0.805348  0.194652  0.744834  1
  Al  Al6  1  0.327238  0.672762  0.021321  1
  Al  Al7  1  0.672948  0.327052  0.978361  1
  Al  Al8  1  0.666122  0.333878  0.518071  1
  Al  Al9  1  0.334045  0.665955  0.482240  1
  Al  Al10  1  0.162383  0.325451  0.572291  1
  Al  Al11  1  0.837371  0.674440  0.427871  1
  Al  Al12  1  0.674549  0.837617  0.572291  1
  Al  Al13  1  0.852405  0.678771  0.081622  1
  Al  Al14  1  0.325560  0.162629  0.427871  1
  Al  Al15  1  0.147223  0.321031  0.918188  1
  Al  Al16  1  0.162997  0.837003  0.576051  1
  Al  Al17  1  0.321229  0.147595  0.081622  1
  Al  Al18  1  0.836999  0.163001  0.424324  1
  Al  Al19  1  0.678969  0.852777  0.918188  1
  Al  Al20  1  0.836782  0.163218  0.076836  1
  Al  Al21  1  0.163218  0.836782  0.922834  1
  Al  Al22  1  0.562019  0.121652  0.249397  1
  Al  Al23  1  0.438464  0.878740  0.750596  1
  Al  Al24  1  0.878348  0.437981  0.249397  1
  Al  Al25  1  0.121260  0.561536  0.750596  1
  Al  Al26  1  0.565540  0.434460  0.258074  1
  Al  Al27  1  0.434432  0.565568  0.741925  1
  Al  Al28  1  0.998832  0.001168  0.250759  1
  Al  Al29  1  0.000918  0.999082  0.749280  1
  Ga  Ga30  1  0.500031  0.499969  0.000056  1
  Os  Os31  1  0.500359  0.000179  0.999757  1
  Os  Os32  1  0.999821  0.499641  0.999757  1
  Os  Os33  1  0.500409  0.000219  0.500280  1
  Os  Os34  1  0.999781  0.499591  0.500280  1
  Os  Os35  1  0.500071  0.499929  0.500004  1
  Os  Os36  1  0.000024  0.999976  0.999946  1
  Os  Os37  1  0.999978  0.000022  0.500098  1
