# generated using pymatgen
data_Tb7Th7(Ir2Rh)2
_symmetry_space_group_name_H-M   'P 1'
_cell_length_a   9.99123029
_cell_length_b   9.88437753
_cell_length_c   6.34467501
_cell_angle_alpha   90.06565296
_cell_angle_beta   89.97830347
_cell_angle_gamma   120.48479550
_symmetry_Int_Tables_number   1
_chemical_formula_structural   Tb7Th7(Ir2Rh)2
_chemical_formula_sum   'Tb7 Th7 Ir4 Rh2'
_cell_volume   539.96502761
_cell_formula_units_Z   1
loop_
 _symmetry_equiv_pos_site_id
 _symmetry_equiv_pos_as_xyz
  1  'x, y, z'
loop_
 _atom_site_type_symbol
 _atom_site_label
 _atom_site_symmetry_multiplicity
 _atom_site_fract_x
 _atom_site_fract_y
 _atom_site_fract_z
 _atom_site_occupancy
  Tb  Tb0  1  0.873963  0.745556  0.741994  1
  Tb  Tb1  1  0.538777  0.462264  0.443719  1
  Tb  Tb2  1  0.924315  0.463050  0.444795  1
  Tb  Tb3  1  0.537203  0.076540  0.446644  1
  Tb  Tb4  1  0.463638  0.538797  0.942737  1
  Tb  Tb5  1  0.075656  0.538821  0.942281  1
  Tb  Tb6  1  0.463535  0.926913  0.944890  1
  Th  Th7  1  0.333641  0.667062  0.466019  1
  Th  Th8  1  0.666670  0.333521  0.965553  1
  Th  Th9  1  0.126604  0.870267  0.242142  1
  Th  Th10  1  0.744777  0.870643  0.241393  1
  Th  Th11  1  0.127686  0.255200  0.239851  1
  Th  Th12  1  0.868935  0.125779  0.741027  1
  Th  Th13  1  0.254942  0.124940  0.740077  1
  Ir  Ir14  1  0.813020  0.185441  0.190124  1
  Ir  Ir15  1  0.372299  0.186035  0.190515  1
  Ir  Ir16  1  0.812490  0.626573  0.195799  1
  Ir  Ir17  1  0.192688  0.815009  0.687465  1
  Rh  Rh18  1  0.623514  0.817170  0.686647  1
  Rh  Rh19  1  0.185649  0.370419  0.692891  1
