# generated using pymatgen
data_Nd4Ga23CuPt2
_symmetry_space_group_name_H-M   'P 1'
_cell_length_a   6.12262300
_cell_length_b   6.12262300
_cell_length_c   15.63231700
_cell_angle_alpha   90.00000000
_cell_angle_beta   90.00000000
_cell_angle_gamma   90.00000000
_symmetry_Int_Tables_number   1
_chemical_formula_structural   Nd4Ga23CuPt2
_chemical_formula_sum   'Nd4 Ga23 Cu1 Pt2'
_cell_volume   586.00104506
_cell_formula_units_Z   1
loop_
 _symmetry_equiv_pos_site_id
 _symmetry_equiv_pos_as_xyz
  1  'x, y, z'
loop_
 _atom_site_type_symbol
 _atom_site_label
 _atom_site_symmetry_multiplicity
 _atom_site_fract_x
 _atom_site_fract_y
 _atom_site_fract_z
 _atom_site_occupancy
  Nd  Nd0  1  0.750000  0.250000  0.244839  1
  Nd  Nd1  1  0.250000  0.750000  0.244839  1
  Nd  Nd2  1  0.250000  0.750000  0.755300  1
  Nd  Nd3  1  0.750000  0.250000  0.755300  1
  Ga  Ga4  1  0.750000  0.750000  0.184909  1
  Ga  Ga5  1  0.750000  0.750000  0.811800  1
  Ga  Ga6  1  0.250000  0.250000  0.811329  1
  Ga  Ga7  1  0.250000  0.250000  0.335847  1
  Ga  Ga8  1  0.750000  0.750000  0.344867  1
  Ga  Ga9  1  0.750000  0.750000  0.654027  1
  Ga  Ga10  1  0.250000  0.250000  0.653297  1
  Ga  Ga11  1  0.499713  0.000291  0.912143  1
  Ga  Ga12  1  0.000291  0.000287  0.912143  1
  Ga  Ga13  1  0.499709  0.499713  0.912143  1
  Ga  Ga14  1  0.000287  0.499709  0.912143  1
  Ga  Ga15  1  0.489041  0.010993  0.093306  1
  Ga  Ga16  1  0.010993  0.010959  0.093306  1
  Ga  Ga17  1  0.489007  0.489041  0.093306  1
  Ga  Ga18  1  0.010959  0.489007  0.093306  1
  Ga  Ga19  1  0.571718  0.081294  0.430603  1
  Ga  Ga20  1  0.081294  0.928282  0.430603  1
  Ga  Ga21  1  0.418706  0.571718  0.430603  1
  Ga  Ga22  1  0.928282  0.418706  0.430603  1
  Ga  Ga23  1  0.413301  0.911223  0.568476  1
  Ga  Ga24  1  0.911223  0.086699  0.568476  1
  Ga  Ga25  1  0.588777  0.413301  0.568476  1
  Ga  Ga26  1  0.086699  0.588777  0.568476  1
  Cu  Cu27  1  0.250000  0.250000  0.184671  1
  Pt  Pt28  1  0.750000  0.250000  0.000433  1
  Pt  Pt29  1  0.250000  0.750000  0.000433  1
