# generated using pymatgen
data_Ho2Th3Ge3C
_symmetry_space_group_name_H-M   'P 1'
_cell_length_a   8.81540100
_cell_length_b   8.81539970
_cell_length_c   6.40769500
_cell_angle_alpha   90.00000000
_cell_angle_beta   90.00000000
_cell_angle_gamma   120.00000112
_symmetry_Int_Tables_number   1
_chemical_formula_structural   Ho2Th3Ge3C
_chemical_formula_sum   'Ho4 Th6 Ge6 C2'
_cell_volume   431.23751966
_cell_formula_units_Z   2
loop_
 _symmetry_equiv_pos_site_id
 _symmetry_equiv_pos_as_xyz
  1  'x, y, z'
loop_
 _atom_site_type_symbol
 _atom_site_label
 _atom_site_symmetry_multiplicity
 _atom_site_fract_x
 _atom_site_fract_y
 _atom_site_fract_z
 _atom_site_occupancy
  Ho  Ho0  1  0.666667  0.333333  0.000000  1
  Ho  Ho1  1  0.333333  0.666667  0.000000  1
  Ho  Ho2  1  0.333333  0.666667  0.500000  1
  Ho  Ho3  1  0.666667  0.333333  0.500000  1
  Th  Th4  1  0.768606  0.768606  0.750000  1
  Th  Th5  1  0.231394  0.000000  0.750000  1
  Th  Th6  1  0.000000  0.231394  0.750000  1
  Th  Th7  1  0.231394  0.231394  0.250000  1
  Th  Th8  1  0.768606  0.000000  0.250000  1
  Th  Th9  1  0.000000  0.768606  0.250000  1
  Ge  Ge10  1  0.403126  0.403126  0.750000  1
  Ge  Ge11  1  0.596874  0.000000  0.750000  1
  Ge  Ge12  1  0.000000  0.596874  0.750000  1
  Ge  Ge13  1  0.596874  0.596874  0.250000  1
  Ge  Ge14  1  0.403126  0.000000  0.250000  1
  Ge  Ge15  1  0.000000  0.403126  0.250000  1
  C  C16  1  0.000000  0.000000  0.000000  1
  C  C17  1  0.000000  0.000000  0.500000  1
