# generated using pymatgen
data_La2Tb2ErPt4
_symmetry_space_group_name_H-M   'P 1'
_cell_length_a   7.67606600
_cell_length_b   7.82945400
_cell_length_c   14.80528400
_cell_angle_alpha   90.00000000
_cell_angle_beta   90.00000000
_cell_angle_gamma   90.00000000
_symmetry_Int_Tables_number   1
_chemical_formula_structural   La2Tb2ErPt4
_chemical_formula_sum   'La8 Tb8 Er4 Pt16'
_cell_volume   889.78876885
_cell_formula_units_Z   4
loop_
 _symmetry_equiv_pos_site_id
 _symmetry_equiv_pos_as_xyz
  1  'x, y, z'
loop_
 _atom_site_type_symbol
 _atom_site_label
 _atom_site_symmetry_multiplicity
 _atom_site_fract_x
 _atom_site_fract_y
 _atom_site_fract_z
 _atom_site_occupancy
  La  La0  1  0.514839  0.325179  0.901017  1
  La  La1  1  0.014839  0.174821  0.598983  1
  La  La2  1  0.485161  0.674821  0.401017  1
  La  La3  1  0.985161  0.825179  0.098983  1
  La  La4  1  0.485161  0.674821  0.098983  1
  La  La5  1  0.985161  0.825179  0.401017  1
  La  La6  1  0.514839  0.325179  0.598983  1
  La  La7  1  0.014839  0.174821  0.901017  1
  Tb  Tb8  1  0.357325  0.834734  0.877176  1
  Tb  Tb9  1  0.857325  0.665266  0.622824  1
  Tb  Tb10  1  0.642675  0.165266  0.377176  1
  Tb  Tb11  1  0.142675  0.334734  0.122824  1
  Tb  Tb12  1  0.642675  0.165266  0.122824  1
  Tb  Tb13  1  0.142675  0.334734  0.377176  1
  Tb  Tb14  1  0.357325  0.834734  0.622824  1
  Tb  Tb15  1  0.857325  0.665266  0.877176  1
  Er  Er16  1  0.195737  0.495920  0.750000  1
  Er  Er17  1  0.695737  0.004080  0.750000  1
  Er  Er18  1  0.804263  0.504080  0.250000  1
  Er  Er19  1  0.304263  0.995920  0.250000  1
  Pt  Pt20  1  0.309036  0.033552  0.045533  1
  Pt  Pt21  1  0.809036  0.466448  0.454467  1
  Pt  Pt22  1  0.690964  0.966448  0.545533  1
  Pt  Pt23  1  0.190964  0.533552  0.954467  1
  Pt  Pt24  1  0.690964  0.966448  0.954467  1
  Pt  Pt25  1  0.190964  0.533552  0.545533  1
  Pt  Pt26  1  0.309036  0.033552  0.454467  1
  Pt  Pt27  1  0.809036  0.466448  0.045533  1
  Pt  Pt28  1  0.561833  0.626173  0.750000  1
  Pt  Pt29  1  0.061833  0.873827  0.750000  1
  Pt  Pt30  1  0.438167  0.373827  0.250000  1
  Pt  Pt31  1  0.938167  0.126173  0.250000  1
  Pt  Pt32  1  0.328932  0.137862  0.750000  1
  Pt  Pt33  1  0.828932  0.362138  0.750000  1
  Pt  Pt34  1  0.671068  0.862138  0.250000  1
  Pt  Pt35  1  0.171068  0.637862  0.250000  1
