# generated using pymatgen
data_Sr(MnSb3)4
_symmetry_space_group_name_H-M   'P 1'
_cell_length_a   8.12611213
_cell_length_b   8.12611149
_cell_length_c   8.12611200
_cell_angle_alpha   109.47122191
_cell_angle_beta   109.47122032
_cell_angle_gamma   109.47122254
_symmetry_Int_Tables_number   1
_chemical_formula_structural   Sr(MnSb3)4
_chemical_formula_sum   'Sr1 Mn4 Sb12'
_cell_volume   413.07269177
_cell_formula_units_Z   1
loop_
 _symmetry_equiv_pos_site_id
 _symmetry_equiv_pos_as_xyz
  1  'x, y, z'
loop_
 _atom_site_type_symbol
 _atom_site_label
 _atom_site_symmetry_multiplicity
 _atom_site_fract_x
 _atom_site_fract_y
 _atom_site_fract_z
 _atom_site_occupancy
  Sr  Sr0  1  0.000000  0.000000  0.000000  1
  Mn  Mn1  1  0.500000  0.500000  0.500000  1
  Mn  Mn2  1  0.000000  0.000000  0.500000  1
  Mn  Mn3  1  0.500000  0.000000  0.000000  1
  Mn  Mn4  1  0.000000  0.500000  0.000000  1
  Sb  Sb5  1  0.335998  0.160304  0.496301  1
  Sb  Sb6  1  0.664002  0.839696  0.503699  1
  Sb  Sb7  1  0.664002  0.160304  0.824306  1
  Sb  Sb8  1  0.335998  0.839696  0.175694  1
  Sb  Sb9  1  0.496301  0.335998  0.160304  1
  Sb  Sb10  1  0.160304  0.496301  0.335998  1
  Sb  Sb11  1  0.175694  0.335998  0.839696  1
  Sb  Sb12  1  0.839696  0.503699  0.664002  1
  Sb  Sb13  1  0.503699  0.664002  0.839696  1
  Sb  Sb14  1  0.160304  0.824306  0.664002  1
  Sb  Sb15  1  0.824306  0.664002  0.160304  1
  Sb  Sb16  1  0.839696  0.175694  0.335998  1
