# generated using pymatgen
data_AcNd(BIr)8
_symmetry_space_group_name_H-M   'P 1'
_cell_length_a   7.77331900
_cell_length_b   7.77331900
_cell_length_c   3.98715900
_cell_angle_alpha   90.00000000
_cell_angle_beta   90.00000000
_cell_angle_gamma   90.00000000
_symmetry_Int_Tables_number   1
_chemical_formula_structural   AcNd(BIr)8
_chemical_formula_sum   'Ac1 Nd1 B8 Ir8'
_cell_volume   240.92204225
_cell_formula_units_Z   1
loop_
 _symmetry_equiv_pos_site_id
 _symmetry_equiv_pos_as_xyz
  1  'x, y, z'
loop_
 _atom_site_type_symbol
 _atom_site_label
 _atom_site_symmetry_multiplicity
 _atom_site_fract_x
 _atom_site_fract_y
 _atom_site_fract_z
 _atom_site_occupancy
  Ac  Ac0  1  0.500000  0.500000  0.000000  1
  Nd  Nd1  1  0.000000  0.000000  0.500000  1
  B  B2  1  0.659811  0.783147  0.603888  1
  B  B3  1  0.157067  0.276843  0.891800  1
  B  B4  1  0.276843  0.842933  0.108200  1
  B  B5  1  0.723157  0.157067  0.108200  1
  B  B6  1  0.340189  0.216853  0.603888  1
  B  B7  1  0.842933  0.723157  0.891800  1
  B  B8  1  0.216853  0.659811  0.396112  1
  B  B9  1  0.783147  0.340189  0.396112  1
  Ir  Ir10  1  0.337568  0.108377  0.106487  1
  Ir  Ir11  1  0.662432  0.891623  0.106487  1
  Ir  Ir12  1  0.610023  0.155639  0.606258  1
  Ir  Ir13  1  0.108377  0.662432  0.893513  1
  Ir  Ir14  1  0.155639  0.389977  0.393742  1
  Ir  Ir15  1  0.844361  0.610023  0.393742  1
  Ir  Ir16  1  0.891623  0.337568  0.893513  1
  Ir  Ir17  1  0.389977  0.844361  0.606258  1
