# generated using pymatgen
data_Ac5Ce(SnIr)6
_symmetry_space_group_name_H-M   'P 1'
_cell_length_a   7.61986700
_cell_length_b   7.66051040
_cell_length_c   8.59436900
_cell_angle_alpha   90.00000000
_cell_angle_beta   90.00000000
_cell_angle_gamma   120.18041350
_symmetry_Int_Tables_number   1
_chemical_formula_structural   Ac5Ce(SnIr)6
_chemical_formula_sum   'Ac5 Ce1 Sn6 Ir6'
_cell_volume   433.66794174
_cell_formula_units_Z   1
loop_
 _symmetry_equiv_pos_site_id
 _symmetry_equiv_pos_as_xyz
  1  'x, y, z'
loop_
 _atom_site_type_symbol
 _atom_site_label
 _atom_site_symmetry_multiplicity
 _atom_site_fract_x
 _atom_site_fract_y
 _atom_site_fract_z
 _atom_site_occupancy
  Ac  Ac0  1  0.418921  0.001562  0.250000  1
  Ac  Ac1  1  0.581636  0.582803  0.250000  1
  Ac  Ac2  1  0.413952  0.997820  0.750000  1
  Ac  Ac3  1  0.585670  0.584416  0.750000  1
  Ac  Ac4  1  0.999626  0.418053  0.750000  1
  Ce  Ce5  1  0.001150  0.411075  0.250000  1
  Sn  Sn6  1  0.756946  0.001833  0.000574  1
  Sn  Sn7  1  0.243829  0.244698  0.499737  1
  Sn  Sn8  1  0.999841  0.753969  0.491713  1
  Sn  Sn9  1  0.999841  0.753969  0.008287  1
  Sn  Sn10  1  0.243829  0.244698  0.000263  1
  Sn  Sn11  1  0.756946  0.001833  0.499426  1
  Ir  Ir12  1  0.316811  0.655167  0.008818  1
  Ir  Ir13  1  0.316811  0.655167  0.491182  1
  Ir  Ir14  1  0.681943  0.338203  0.008263  1
  Ir  Ir15  1  0.681943  0.338203  0.491737  1
  Ir  Ir16  1  0.000341  0.016188  0.250000  1
  Ir  Ir17  1  0.999962  0.000347  0.750000  1
