# generated using pymatgen
data_Ba4Ce3PbF24
_symmetry_space_group_name_H-M   'P 1'
_cell_length_a   7.64020380
_cell_length_b   8.82143258
_cell_length_c   8.96774000
_cell_angle_alpha   102.87967898
_cell_angle_beta   94.92889809
_cell_angle_gamma   115.07800513
_symmetry_Int_Tables_number   1
_chemical_formula_structural   Ba4Ce3PbF24
_chemical_formula_sum   'Ba4 Ce3 Pb1 F24'
_cell_volume   522.39712072
_cell_formula_units_Z   1
loop_
 _symmetry_equiv_pos_site_id
 _symmetry_equiv_pos_as_xyz
  1  'x, y, z'
loop_
 _atom_site_type_symbol
 _atom_site_label
 _atom_site_symmetry_multiplicity
 _atom_site_fract_x
 _atom_site_fract_y
 _atom_site_fract_z
 _atom_site_occupancy
  Ba  Ba0  1  0.289098  0.762502  0.545499  1
  Ba  Ba1  1  0.295973  0.312662  0.770327  1
  Ba  Ba2  1  0.707848  0.240593  0.457419  1
  Ba  Ba3  1  0.703475  0.689846  0.233933  1
  Ce  Ce4  1  0.763920  0.214641  0.934414  1
  Ce  Ce5  1  0.186045  0.264098  0.280461  1
  Ce  Ce6  1  0.236529  0.780604  0.061761  1
  Pb  Pb7  1  0.804567  0.735874  0.715881  1
  F  F8  1  0.076991  0.945292  0.707665  1
  F  F9  1  0.406776  0.631462  0.008169  1
  F  F10  1  0.918113  0.045144  0.307463  1
  F  F11  1  0.226934  0.036182  0.144206  1
  F  F12  1  0.767719  0.957662  0.852331  1
  F  F13  1  0.082009  0.753749  0.263685  1
  F  F14  1  0.882949  0.615557  0.506363  1
  F  F15  1  0.153668  0.708227  0.805548  1
  F  F16  1  0.488248  0.624603  0.701634  1
  F  F17  1  0.317999  0.194074  0.475478  1
  F  F18  1  0.105968  0.242791  0.022302  1
  F  F19  1  0.305128  0.545445  0.291072  1
  F  F20  1  0.704159  0.466216  0.711660  1
  F  F21  1  0.596891  0.364660  0.992365  1
  F  F22  1  0.861491  0.280485  0.196249  1
  F  F23  1  0.522318  0.105044  0.713025  1
  F  F24  1  0.500735  0.001086  0.999011  1
  F  F25  1  0.893866  0.758625  0.961063  1
  F  F26  1  0.913582  0.243101  0.731598  1
  F  F27  1  0.476359  0.898815  0.284503  1
  F  F28  1  0.513202  0.374768  0.295603  1
  F  F29  1  0.998697  0.497800  0.000443  1
  F  F30  1  0.112767  0.394452  0.497836  1
  F  F31  1  0.685974  0.813937  0.531031  1
