# generated using pymatgen
data_Ho2Hf3Co9As7
_symmetry_space_group_name_H-M   'P 1'
_cell_length_a   3.80294700
_cell_length_b   9.67698042
_cell_length_c   9.67698100
_cell_angle_alpha   119.99999856
_cell_angle_beta   90.00000000
_cell_angle_gamma   90.00000000
_symmetry_Int_Tables_number   1
_chemical_formula_structural   Ho2Hf3Co9As7
_chemical_formula_sum   'Ho2 Hf3 Co9 As7'
_cell_volume   308.41156967
_cell_formula_units_Z   1
loop_
 _symmetry_equiv_pos_site_id
 _symmetry_equiv_pos_as_xyz
  1  'x, y, z'
loop_
 _atom_site_type_symbol
 _atom_site_label
 _atom_site_symmetry_multiplicity
 _atom_site_fract_x
 _atom_site_fract_y
 _atom_site_fract_z
 _atom_site_occupancy
  Ho  Ho0  1  0.000000  0.666667  0.333333  1
  Ho  Ho1  1  0.500000  0.333333  0.666667  1
  Hf  Hf2  1  0.500000  0.768631  0.887994  1
  Hf  Hf3  1  0.500000  0.119362  0.231369  1
  Hf  Hf4  1  0.500000  0.112006  0.880638  1
  Co  Co5  1  0.000000  0.577061  0.935692  1
  Co  Co6  1  0.000000  0.358632  0.422939  1
  Co  Co7  1  0.000000  0.064308  0.641368  1
  Co  Co8  1  0.000000  0.878355  0.163020  1
  Co  Co9  1  0.000000  0.284665  0.121645  1
  Co  Co10  1  0.000000  0.836980  0.715335  1
  Co  Co11  1  0.500000  0.948101  0.390662  1
  Co  Co12  1  0.500000  0.442560  0.051899  1
  Co  Co13  1  0.500000  0.609338  0.557440  1
  As  As14  1  0.000000  0.000000  0.000000  1
  As  As15  1  0.500000  0.713062  0.133187  1
  As  As16  1  0.500000  0.420124  0.286938  1
  As  As17  1  0.500000  0.866813  0.579876  1
  As  As18  1  0.000000  0.572358  0.681289  1
  As  As19  1  0.000000  0.108932  0.427642  1
  As  As20  1  0.000000  0.318711  0.891068  1
