# generated using pymatgen
data_PrYGa3SiIr4
_symmetry_space_group_name_H-M   'P 1'
_cell_length_a   4.22070300
_cell_length_b   4.22070300
_cell_length_c   10.25705500
_cell_angle_alpha   90.00000000
_cell_angle_beta   90.00000000
_cell_angle_gamma   90.00000000
_symmetry_Int_Tables_number   1
_chemical_formula_structural   PrYGa3SiIr4
_chemical_formula_sum   'Pr1 Y1 Ga3 Si1 Ir4'
_cell_volume   182.72260172
_cell_formula_units_Z   1
loop_
 _symmetry_equiv_pos_site_id
 _symmetry_equiv_pos_as_xyz
  1  'x, y, z'
loop_
 _atom_site_type_symbol
 _atom_site_label
 _atom_site_symmetry_multiplicity
 _atom_site_fract_x
 _atom_site_fract_y
 _atom_site_fract_z
 _atom_site_occupancy
  Pr  Pr0  1  0.500000  0.000000  0.245821  1
  Y  Y1  1  0.000000  0.500000  0.754813  1
  Ga  Ga2  1  0.500000  0.500000  0.506771  1
  Ga  Ga3  1  0.000000  0.000000  0.506771  1
  Ga  Ga4  1  0.000000  0.500000  0.124241  1
  Si  Si5  1  0.500000  0.000000  0.874474  1
  Ir  Ir6  1  0.000000  0.500000  0.368829  1
  Ir  Ir7  1  0.500000  0.000000  0.645872  1
  Ir  Ir8  1  0.500000  0.500000  0.986205  1
  Ir  Ir9  1  0.000000  0.000000  0.986205  1
