# generated using pymatgen
data_Yb3(PIr)2
_symmetry_space_group_name_H-M   'P 1'
_cell_length_a   5.54941500
_cell_length_b   7.71517200
_cell_length_c   12.86329500
_cell_angle_alpha   90.00000000
_cell_angle_beta   90.00000000
_cell_angle_gamma   90.00000000
_symmetry_Int_Tables_number   1
_chemical_formula_structural   Yb3(PIr)2
_chemical_formula_sum   'Yb12 P8 Ir8'
_cell_volume   550.73800355
_cell_formula_units_Z   4
loop_
 _symmetry_equiv_pos_site_id
 _symmetry_equiv_pos_as_xyz
  1  'x, y, z'
loop_
 _atom_site_type_symbol
 _atom_site_label
 _atom_site_symmetry_multiplicity
 _atom_site_fract_x
 _atom_site_fract_y
 _atom_site_fract_z
 _atom_site_occupancy
  Yb  Yb0  1  0.133521  0.614673  0.105174  1
  Yb  Yb1  1  0.133521  0.885327  0.894826  1
  Yb  Yb2  1  0.866479  0.114673  0.394826  1
  Yb  Yb3  1  0.866479  0.385327  0.605174  1
  Yb  Yb4  1  0.866479  0.385327  0.894826  1
  Yb  Yb5  1  0.866479  0.114673  0.105174  1
  Yb  Yb6  1  0.133521  0.885327  0.605174  1
  Yb  Yb7  1  0.133521  0.614673  0.394826  1
  Yb  Yb8  1  0.365922  0.256689  0.250000  1
  Yb  Yb9  1  0.365922  0.243311  0.750000  1
  Yb  Yb10  1  0.634078  0.756689  0.250000  1
  Yb  Yb11  1  0.634078  0.743311  0.750000  1
  P  P12  1  0.416178  0.250000  0.000000  1
  P  P13  1  0.583822  0.750000  0.500000  1
  P  P14  1  0.583822  0.750000  0.000000  1
  P  P15  1  0.416178  0.250000  0.500000  1
  P  P16  1  0.847244  0.404309  0.250000  1
  P  P17  1  0.847244  0.095691  0.750000  1
  P  P18  1  0.152756  0.904309  0.250000  1
  P  P19  1  0.152756  0.595691  0.750000  1
  Ir  Ir20  1  0.638075  0.478534  0.087969  1
  Ir  Ir21  1  0.638075  0.021466  0.912031  1
  Ir  Ir22  1  0.361925  0.978534  0.412031  1
  Ir  Ir23  1  0.361925  0.521466  0.587969  1
  Ir  Ir24  1  0.361925  0.521466  0.912031  1
  Ir  Ir25  1  0.361925  0.978534  0.087969  1
  Ir  Ir26  1  0.638075  0.021466  0.587969  1
  Ir  Ir27  1  0.638075  0.478534  0.412031  1
