# generated using pymatgen
data_La14Ni5Os
_symmetry_space_group_name_H-M   'P 1'
_cell_length_a   10.07713906
_cell_length_b   10.07713912
_cell_length_c   6.48590576
_cell_angle_alpha   89.30811430
_cell_angle_beta   90.69189400
_cell_angle_gamma   120.11070794
_symmetry_Int_Tables_number   1
_chemical_formula_structural   La14Ni5Os
_chemical_formula_sum   'La14 Ni5 Os1'
_cell_volume   569.70237535
_cell_formula_units_Z   1
loop_
 _symmetry_equiv_pos_site_id
 _symmetry_equiv_pos_as_xyz
  1  'x, y, z'
loop_
 _atom_site_type_symbol
 _atom_site_label
 _atom_site_symmetry_multiplicity
 _atom_site_fract_x
 _atom_site_fract_y
 _atom_site_fract_z
 _atom_site_occupancy
  La  La0  1  0.335974  0.664026  0.471914  1
  La  La1  1  0.666120  0.333880  0.971845  1
  La  La2  1  0.128342  0.871658  0.241491  1
  La  La3  1  0.750999  0.878821  0.238924  1
  La  La4  1  0.121179  0.249001  0.238924  1
  La  La5  1  0.873995  0.126005  0.738764  1
  La  La6  1  0.252015  0.125298  0.743027  1
  La  La7  1  0.874702  0.747985  0.743027  1
  La  La8  1  0.537582  0.462418  0.441548  1
  La  La9  1  0.920579  0.463665  0.433081  1
  La  La10  1  0.536335  0.079421  0.433081  1
  La  La11  1  0.463892  0.536108  0.938576  1
  La  La12  1  0.078370  0.537379  0.934240  1
  La  La13  1  0.462621  0.921630  0.934240  1
  Ni  Ni14  1  0.371044  0.188484  0.198444  1
  Ni  Ni15  1  0.811516  0.628956  0.198444  1
  Ni  Ni16  1  0.187473  0.812527  0.695253  1
  Ni  Ni17  1  0.625138  0.809815  0.700299  1
  Ni  Ni18  1  0.190185  0.374862  0.700299  1
  Os  Os19  1  0.811940  0.188060  0.190370  1
