# generated using pymatgen
data_Cs4MgMnI8
_symmetry_space_group_name_H-M   'P 1'
_cell_length_a   8.27679769
_cell_length_b   8.60489804
_cell_length_c   11.03826272
_cell_angle_alpha   90.00223029
_cell_angle_beta   109.29645573
_cell_angle_gamma   90.00920014
_symmetry_Int_Tables_number   1
_chemical_formula_structural   Cs4MgMnI8
_chemical_formula_sum   'Cs4 Mg1 Mn1 I8'
_cell_volume   741.99094493
_cell_formula_units_Z   1
loop_
 _symmetry_equiv_pos_site_id
 _symmetry_equiv_pos_as_xyz
  1  'x, y, z'
loop_
 _atom_site_type_symbol
 _atom_site_label
 _atom_site_symmetry_multiplicity
 _atom_site_fract_x
 _atom_site_fract_y
 _atom_site_fract_z
 _atom_site_occupancy
  Cs  Cs0  1  0.201987  0.740072  0.039696  1
  Cs  Cs1  1  0.288811  0.739450  0.581639  1
  Cs  Cs2  1  0.711436  0.239467  0.418641  1
  Cs  Cs3  1  0.797977  0.240070  0.960019  1
  Mg  Mg4  1  0.796003  0.745117  0.211016  1
  Mn  Mn5  1  0.203821  0.245200  0.789053  1
  I  I6  1  0.631746  0.750530  0.950633  1
  I  I7  1  0.586700  0.747584  0.357641  1
  I  I8  1  0.008963  0.492343  0.270554  1
  I  I9  1  0.366062  0.250470  0.045892  1
  I  I10  1  0.987355  0.490519  0.726043  1
  I  I11  1  0.410200  0.247586  0.644321  1
  I  I12  1  0.993645  0.995423  0.730153  1
  I  I13  1  0.015293  0.993567  0.274697  1
