# generated using pymatgen
data_CaGa4PbBr16
_symmetry_space_group_name_H-M   'P 1'
_cell_length_a   7.73114026
_cell_length_b   7.89351652
_cell_length_c   14.53895122
_cell_angle_alpha   87.66798260
_cell_angle_beta   89.79353474
_cell_angle_gamma   89.91212923
_symmetry_Int_Tables_number   1
_chemical_formula_structural   CaGa4PbBr16
_chemical_formula_sum   'Ca1 Ga4 Pb1 Br16'
_cell_volume   886.51092078
_cell_formula_units_Z   1
loop_
 _symmetry_equiv_pos_site_id
 _symmetry_equiv_pos_as_xyz
  1  'x, y, z'
loop_
 _atom_site_type_symbol
 _atom_site_label
 _atom_site_symmetry_multiplicity
 _atom_site_fract_x
 _atom_site_fract_y
 _atom_site_fract_z
 _atom_site_occupancy
  Ca  Ca0  1  0.245042  0.078381  0.313308  1
  Ga  Ga1  1  0.939380  0.223607  0.575368  1
  Ga  Ga2  1  0.066944  0.220145  0.080996  1
  Ga  Ga3  1  0.566516  0.639738  0.777324  1
  Ga  Ga4  1  0.426751  0.640864  0.277569  1
  Pb  Pb5  1  0.756356  0.079302  0.815428  1
  Br  Br6  1  0.426223  0.614235  0.639594  1
  Br  Br7  1  0.574490  0.613588  0.141514  1
  Br  Br8  1  0.864483  0.723580  0.760778  1
  Br  Br9  1  0.132395  0.733854  0.262351  1
  Br  Br10  1  0.940071  0.478984  0.493831  1
  Br  Br11  1  0.058464  0.472979  0.996774  1
  Br  Br12  1  0.928132  0.992998  0.005706  1
  Br  Br13  1  0.081227  0.000721  0.495955  1
  Br  Br14  1  0.651011  0.128006  0.612886  1
  Br  Br15  1  0.355677  0.128633  0.119260  1
  Br  Br16  1  0.553021  0.392313  0.877868  1
  Br  Br17  1  0.433591  0.383709  0.373013  1
  Br  Br18  1  0.439917  0.860080  0.865894  1
  Br  Br19  1  0.547719  0.864927  0.365393  1
  Br  Br20  1  0.934104  0.230654  0.230889  1
  Br  Br21  1  0.078489  0.233506  0.722701  1
