# generated using pymatgen
data_Dy13Lu7Bi12
_symmetry_space_group_name_H-M   'P 1'
_cell_length_a   8.20249526
_cell_length_b   9.47079087
_cell_length_c   12.01416001
_cell_angle_alpha   89.98368293
_cell_angle_beta   90.10255988
_cell_angle_gamma   89.98216164
_symmetry_Int_Tables_number   1
_chemical_formula_structural   Dy13Lu7Bi12
_chemical_formula_sum   'Dy13 Lu7 Bi12'
_cell_volume   933.30783603
_cell_formula_units_Z   1
loop_
 _symmetry_equiv_pos_site_id
 _symmetry_equiv_pos_as_xyz
  1  'x, y, z'
loop_
 _atom_site_type_symbol
 _atom_site_label
 _atom_site_symmetry_multiplicity
 _atom_site_fract_x
 _atom_site_fract_y
 _atom_site_fract_z
 _atom_site_occupancy
  Dy  Dy0  1  0.185995  0.750418  0.719183  1
  Dy  Dy1  1  0.686506  0.750734  0.781669  1
  Dy  Dy2  1  0.813780  0.249634  0.281387  1
  Dy  Dy3  1  0.313991  0.250278  0.218793  1
  Dy  Dy4  1  0.192219  0.564092  0.440603  1
  Dy  Dy5  1  0.693447  0.562541  0.059347  1
  Dy  Dy6  1  0.193568  0.937004  0.440009  1
  Dy  Dy7  1  0.306384  0.062439  0.940572  1
  Dy  Dy8  1  0.807047  0.437206  0.559448  1
  Dy  Dy9  1  0.356522  0.752076  0.215912  1
  Dy  Dy10  1  0.853357  0.750809  0.283325  1
  Dy  Dy11  1  0.645398  0.250679  0.783727  1
  Dy  Dy12  1  0.145892  0.250386  0.716538  1
  Lu  Lu13  1  0.024322  0.750359  0.989147  1
  Lu  Lu14  1  0.525778  0.750495  0.511010  1
  Lu  Lu15  1  0.975325  0.250506  0.010698  1
  Lu  Lu16  1  0.476019  0.249920  0.488991  1
  Lu  Lu17  1  0.307064  0.431749  0.940589  1
  Lu  Lu18  1  0.806380  0.067612  0.559791  1
  Lu  Lu19  1  0.692789  0.932074  0.059009  1
  Bi  Bi20  1  0.434477  0.003715  0.671993  1
  Bi  Bi21  1  0.934071  0.496655  0.828341  1
  Bi  Bi22  1  0.566089  0.503758  0.327734  1
  Bi  Bi23  1  0.065615  0.996811  0.171676  1
  Bi  Bi24  1  0.566659  0.996763  0.328262  1
  Bi  Bi25  1  0.066490  0.504392  0.171287  1
  Bi  Bi26  1  0.433132  0.496611  0.671770  1
  Bi  Bi27  1  0.933328  0.004452  0.828523  1
  Bi  Bi28  1  0.405355  0.745831  0.957196  1
  Bi  Bi29  1  0.905735  0.754377  0.542533  1
  Bi  Bi30  1  0.594426  0.246187  0.042478  1
  Bi  Bi31  1  0.092839  0.249442  0.458464  1
