# generated using pymatgen
data_LaAl4Si2Pt
_symmetry_space_group_name_H-M   'P 1'
_cell_length_a   4.35480500
_cell_length_b   4.35480800
_cell_length_c   7.84002400
_cell_angle_alpha   90.00000000
_cell_angle_beta   90.00000000
_cell_angle_gamma   90.00000000
_symmetry_Int_Tables_number   1
_chemical_formula_structural   LaAl4Si2Pt
_chemical_formula_sum   'La1 Al4 Si2 Pt1'
_cell_volume   148.68087802
_cell_formula_units_Z   1
loop_
 _symmetry_equiv_pos_site_id
 _symmetry_equiv_pos_as_xyz
  1  'x, y, z'
loop_
 _atom_site_type_symbol
 _atom_site_label
 _atom_site_symmetry_multiplicity
 _atom_site_fract_x
 _atom_site_fract_y
 _atom_site_fract_z
 _atom_site_occupancy
  La  La0  1  0.000000  0.000000  0.500001  1
  Al  Al1  1  0.000000  0.500000  0.174071  1
  Al  Al2  1  0.000000  0.500000  0.825929  1
  Al  Al3  1  0.500000  0.000000  0.174074  1
  Al  Al4  1  0.500000  0.000000  0.825927  1
  Si  Si5  1  0.500000  0.500000  0.351953  1
  Si  Si6  1  0.500000  0.500000  0.648046  1
  Pt  Pt7  1  0.000000  0.000000  0.000000  1
