# generated using pymatgen
data_KSr(NdB12)2
_symmetry_space_group_name_H-M   'P 1'
_cell_length_a   7.20249689
_cell_length_b   7.20249739
_cell_length_c   5.92101600
_cell_angle_alpha   90.00000000
_cell_angle_beta   90.00000000
_cell_angle_gamma   109.28824268
_symmetry_Int_Tables_number   1
_chemical_formula_structural   KSr(NdB12)2
_chemical_formula_sum   'K1 Sr1 Nd2 B24'
_cell_volume   289.91723455
_cell_formula_units_Z   1
loop_
 _symmetry_equiv_pos_site_id
 _symmetry_equiv_pos_as_xyz
  1  'x, y, z'
loop_
 _atom_site_type_symbol
 _atom_site_label
 _atom_site_symmetry_multiplicity
 _atom_site_fract_x
 _atom_site_fract_y
 _atom_site_fract_z
 _atom_site_occupancy
  K  K0  1  0.000000  0.000000  0.000000  1
  Sr  Sr1  1  0.500000  0.500000  0.000000  1
  Nd  Nd2  1  0.751471  0.248529  0.500000  1
  Nd  Nd3  1  0.248529  0.751471  0.500000  1
  B  B4  1  0.175774  0.325422  0.648919  1
  B  B5  1  0.924604  0.574459  0.148381  1
  B  B6  1  0.674578  0.824226  0.648919  1
  B  B7  1  0.425541  0.075396  0.148381  1
  B  B8  1  0.175774  0.325422  0.351081  1
  B  B9  1  0.924604  0.574459  0.851619  1
  B  B10  1  0.674578  0.824226  0.351081  1
  B  B11  1  0.425541  0.075396  0.851619  1
  B  B12  1  0.399524  0.399524  0.500000  1
  B  B13  1  0.148271  0.650143  0.000000  1
  B  B14  1  0.898724  0.898724  0.500000  1
  B  B15  1  0.650143  0.148271  0.000000  1
  B  B16  1  0.325422  0.175774  0.648919  1
  B  B17  1  0.075396  0.425541  0.148381  1
  B  B18  1  0.824226  0.674578  0.648919  1
  B  B19  1  0.574459  0.924604  0.148381  1
  B  B20  1  0.101276  0.101276  0.500000  1
  B  B21  1  0.851729  0.349857  0.000000  1
  B  B22  1  0.600476  0.600476  0.500000  1
  B  B23  1  0.349857  0.851729  0.000000  1
  B  B24  1  0.325422  0.175774  0.351081  1
  B  B25  1  0.075396  0.425541  0.851619  1
  B  B26  1  0.824226  0.674578  0.351081  1
  B  B27  1  0.574459  0.924604  0.851619  1
