# generated using pymatgen
data_Pm4Mn3SnO12
_symmetry_space_group_name_H-M   'P 1'
_cell_length_a   5.52211531
_cell_length_b   5.92946287
_cell_length_c   7.86189541
_cell_angle_alpha   90.86718931
_cell_angle_beta   89.84084609
_cell_angle_gamma   90.24291437
_symmetry_Int_Tables_number   1
_chemical_formula_structural   Pm4Mn3SnO12
_chemical_formula_sum   'Pm4 Mn3 Sn1 O12'
_cell_volume   257.39069307
_cell_formula_units_Z   1
loop_
 _symmetry_equiv_pos_site_id
 _symmetry_equiv_pos_as_xyz
  1  'x, y, z'
loop_
 _atom_site_type_symbol
 _atom_site_label
 _atom_site_symmetry_multiplicity
 _atom_site_fract_x
 _atom_site_fract_y
 _atom_site_fract_z
 _atom_site_occupancy
  Pm  Pm0  1  0.979379  0.076727  0.258786  1
  Pm  Pm1  1  0.514576  0.566422  0.259575  1
  Pm  Pm2  1  0.485424  0.433578  0.740425  1
  Pm  Pm3  1  0.020621  0.923273  0.741214  1
  Mn  Mn4  1  0.000000  0.499999  0.000000  1
  Mn  Mn5  1  0.500001  0.000000  0.500000  1
  Mn  Mn6  1  0.000000  0.499999  0.500000  1
  Sn  Sn7  1  0.500001  0.000000  0.000000  1
  O  O8  1  0.682506  0.299818  0.062830  1
  O  O9  1  0.803582  0.815282  0.059622  1
  O  O10  1  0.107584  0.461548  0.261569  1
  O  O11  1  0.385257  0.958877  0.255163  1
  O  O12  1  0.707155  0.317839  0.448472  1
  O  O13  1  0.786227  0.822956  0.447202  1
  O  O14  1  0.213773  0.177044  0.552798  1
  O  O15  1  0.292845  0.682160  0.551528  1
  O  O16  1  0.614743  0.041124  0.744837  1
  O  O17  1  0.892416  0.538452  0.738431  1
  O  O18  1  0.196418  0.184718  0.940379  1
  O  O19  1  0.317494  0.700181  0.937171  1
