# generated using pymatgen
data_Hf2Mg(NbRe12)2
_symmetry_space_group_name_H-M   'P 1'
_cell_length_a   8.44678765
_cell_length_b   8.44678647
_cell_length_c   8.43194916
_cell_angle_alpha   109.49246391
_cell_angle_beta   109.49246596
_cell_angle_gamma   109.49998376
_symmetry_Int_Tables_number   1
_chemical_formula_structural   Hf2Mg(NbRe12)2
_chemical_formula_sum   'Hf2 Mg1 Nb2 Re24'
_cell_volume   462.70766810
_cell_formula_units_Z   1
loop_
 _symmetry_equiv_pos_site_id
 _symmetry_equiv_pos_as_xyz
  1  'x, y, z'
loop_
 _atom_site_type_symbol
 _atom_site_label
 _atom_site_symmetry_multiplicity
 _atom_site_fract_x
 _atom_site_fract_y
 _atom_site_fract_z
 _atom_site_occupancy
  Hf  Hf0  1  0.000384  0.000384  0.634028  1
  Hf  Hf1  1  0.366356  0.366356  0.365972  1
  Mg  Mg2  1  0.999142  0.999142  0.000000  1
  Nb  Nb3  1  0.633734  0.000076  0.000000  1
  Nb  Nb4  1  0.000076  0.633734  0.000000  1
  Re  Re5  1  0.398218  0.680953  0.000000  1
  Re  Re6  1  0.716954  0.320061  0.318771  1
  Re  Re7  1  0.398182  0.001290  0.681229  1
  Re  Re8  1  0.680953  0.398218  0.000000  1
  Re  Re9  1  0.001290  0.398182  0.681229  1
  Re  Re10  1  0.320061  0.716954  0.318771  1
  Re  Re11  1  0.324205  0.324205  0.718647  1
  Re  Re12  1  0.000852  0.676346  0.395584  1
  Re  Re13  1  0.676346  0.000852  0.395584  1
  Re  Re14  1  0.605559  0.605559  0.281353  1
  Re  Re15  1  0.280761  0.605268  0.604416  1
  Re  Re16  1  0.605268  0.280761  0.604416  1
  Re  Re17  1  0.376117  0.192362  0.000000  1
  Re  Re18  1  0.181232  0.805155  0.805951  1
  Re  Re19  1  0.375281  0.999204  0.194049  1
  Re  Re20  1  0.192362  0.376117  0.000000  1
  Re  Re21  1  0.999204  0.375281  0.194049  1
  Re  Re22  1  0.805155  0.181232  0.805951  1
  Re  Re23  1  0.805911  0.805911  0.181544  1
  Re  Re24  1  0.998919  0.192421  0.375326  1
  Re  Re25  1  0.192421  0.998919  0.375326  1
  Re  Re26  1  0.624367  0.624367  0.818456  1
  Re  Re27  1  0.817095  0.623593  0.624674  1
  Re  Re28  1  0.623593  0.817095  0.624674  1
