# generated using pymatgen
data_Dy3In4PtRh
_symmetry_space_group_name_H-M   'P 1'
_cell_length_a   7.90413000
_cell_length_b   7.90412981
_cell_length_c   3.82005100
_cell_angle_alpha   90.00000000
_cell_angle_beta   90.00000000
_cell_angle_gamma   120.00001754
_symmetry_Int_Tables_number   1
_chemical_formula_structural   Dy3In4PtRh
_chemical_formula_sum   'Dy3 In4 Pt1 Rh1'
_cell_volume   206.68447429
_cell_formula_units_Z   1
loop_
 _symmetry_equiv_pos_site_id
 _symmetry_equiv_pos_as_xyz
  1  'x, y, z'
loop_
 _atom_site_type_symbol
 _atom_site_label
 _atom_site_symmetry_multiplicity
 _atom_site_fract_x
 _atom_site_fract_y
 _atom_site_fract_z
 _atom_site_occupancy
  Dy  Dy0  1  0.048331  0.304098  0.500000  1
  Dy  Dy1  1  0.695902  0.744232  0.500000  1
  Dy  Dy2  1  0.255768  0.951669  0.500000  1
  In  In3  1  0.661942  0.076909  0.000000  1
  In  In4  1  0.923091  0.585034  0.000000  1
  In  In5  1  0.414966  0.338058  0.000000  1
  In  In6  1  0.333333  0.666667  0.000000  1
  Pt  Pt7  1  0.000000  0.000000  0.000000  1
  Rh  Rh8  1  0.666667  0.333333  0.500000  1
