# generated using pymatgen
data_Hf9CuMoW3
_symmetry_space_group_name_H-M   'P 1'
_cell_length_a   8.71864900
_cell_length_b   8.72732595
_cell_length_c   8.52084900
_cell_angle_alpha   90.00000000
_cell_angle_beta   90.00000000
_cell_angle_gamma   119.96710530
_symmetry_Int_Tables_number   1
_chemical_formula_structural   Hf9CuMoW3
_chemical_formula_sum   'Hf18 Cu2 Mo2 W6'
_cell_volume   561.67843587
_cell_formula_units_Z   2
loop_
 _symmetry_equiv_pos_site_id
 _symmetry_equiv_pos_as_xyz
  1  'x, y, z'
loop_
 _atom_site_type_symbol
 _atom_site_label
 _atom_site_symmetry_multiplicity
 _atom_site_fract_x
 _atom_site_fract_y
 _atom_site_fract_z
 _atom_site_occupancy
  Hf  Hf0  1  0.197689  0.802836  0.055251  1
  Hf  Hf1  1  0.605146  0.802836  0.055251  1
  Hf  Hf2  1  0.801950  0.603900  0.554371  1
  Hf  Hf3  1  0.197467  0.394934  0.055150  1
  Hf  Hf4  1  0.802661  0.198049  0.554871  1
  Hf  Hf5  1  0.395387  0.198049  0.554871  1
  Hf  Hf6  1  0.801950  0.603900  0.945629  1
  Hf  Hf7  1  0.802661  0.198049  0.945129  1
  Hf  Hf8  1  0.395387  0.198049  0.945129  1
  Hf  Hf9  1  0.605146  0.802836  0.444749  1
  Hf  Hf10  1  0.197689  0.802836  0.444749  1
  Hf  Hf11  1  0.197467  0.394934  0.444850  1
  Hf  Hf12  1  0.541744  0.083489  0.250000  1
  Hf  Hf13  1  0.457906  0.915809  0.750000  1
  Hf  Hf14  1  0.916613  0.458145  0.250000  1
  Hf  Hf15  1  0.541531  0.458145  0.250000  1
  Hf  Hf16  1  0.457272  0.541486  0.750000  1
  Hf  Hf17  1  0.084216  0.541486  0.750000  1
  Cu  Cu18  1  0.666812  0.333622  0.750000  1
  Cu  Cu19  1  0.333283  0.666567  0.250000  1
  Mo  Mo20  1  0.112148  0.888412  0.750000  1
  Mo  Mo21  1  0.776264  0.888412  0.750000  1
  W  W22  1  0.999885  0.999772  0.999048  1
  W  W23  1  0.999885  0.999772  0.500952  1
  W  W24  1  0.888320  0.776640  0.250000  1
  W  W25  1  0.112131  0.224261  0.750000  1
  W  W26  1  0.222934  0.111387  0.250000  1
  W  W27  1  0.888452  0.111387  0.250000  1
