# generated using pymatgen
data_Zr4Hg(AsO4)6
_symmetry_space_group_name_H-M   'P 1'
_cell_length_a   9.22690350
_cell_length_b   9.22690355
_cell_length_c   9.52574656
_cell_angle_alpha   61.03246200
_cell_angle_beta   61.03246388
_cell_angle_gamma   60.00000131
_symmetry_Int_Tables_number   1
_chemical_formula_structural   Zr4Hg(AsO4)6
_chemical_formula_sum   'Zr4 Hg1 As6 O24'
_cell_volume   582.23730212
_cell_formula_units_Z   1
loop_
 _symmetry_equiv_pos_site_id
 _symmetry_equiv_pos_as_xyz
  1  'x, y, z'
loop_
 _atom_site_type_symbol
 _atom_site_label
 _atom_site_symmetry_multiplicity
 _atom_site_fract_x
 _atom_site_fract_y
 _atom_site_fract_z
 _atom_site_occupancy
  Zr  Zr0  1  0.141071  0.141071  0.576786  1
  Zr  Zr1  1  0.858929  0.858929  0.423214  1
  Zr  Zr2  1  0.646817  0.646817  0.059551  1
  Zr  Zr3  1  0.353183  0.353183  0.940449  1
  Hg  Hg4  1  0.500000  0.500000  0.500000  1
  As  As5  1  0.957783  0.256792  0.259464  1
  As  As6  1  0.256792  0.525960  0.259464  1
  As  As7  1  0.525960  0.957783  0.259464  1
  As  As8  1  0.042217  0.743208  0.740536  1
  As  As9  1  0.743208  0.474040  0.740536  1
  As  As10  1  0.474040  0.042217  0.740536  1
  O  O11  1  0.983809  0.268392  0.417855  1
  O  O12  1  0.268392  0.329945  0.417855  1
  O  O13  1  0.329945  0.983809  0.417855  1
  O  O14  1  0.016191  0.731608  0.582145  1
  O  O15  1  0.731608  0.670055  0.582145  1
  O  O16  1  0.670055  0.016191  0.582145  1
  O  O17  1  0.502138  0.883523  0.928352  1
  O  O18  1  0.883523  0.685988  0.928352  1
  O  O19  1  0.685988  0.502138  0.928352  1
  O  O20  1  0.497862  0.116477  0.071648  1
  O  O21  1  0.116477  0.314012  0.071648  1
  O  O22  1  0.314012  0.497862  0.071648  1
  O  O23  1  0.029877  0.944133  0.714775  1
  O  O24  1  0.944133  0.311215  0.714775  1
  O  O25  1  0.311215  0.029877  0.714775  1
  O  O26  1  0.970123  0.055867  0.285225  1
  O  O27  1  0.055867  0.688785  0.285225  1
  O  O28  1  0.688785  0.970123  0.285225  1
  O  O29  1  0.590524  0.749662  0.251356  1
  O  O30  1  0.749662  0.408458  0.251356  1
  O  O31  1  0.408458  0.590524  0.251356  1
  O  O32  1  0.409476  0.250338  0.748644  1
  O  O33  1  0.250338  0.591542  0.748644  1
  O  O34  1  0.591542  0.409476  0.748644  1
