# generated using pymatgen
data_Sr6UTcO12
_symmetry_space_group_name_H-M   'P 1'
_cell_length_a   6.98733340
_cell_length_b   6.98733386
_cell_length_c   6.98733392
_cell_angle_alpha   92.68690752
_cell_angle_beta   92.68691353
_cell_angle_gamma   92.68690747
_symmetry_Int_Tables_number   1
_chemical_formula_structural   Sr6UTcO12
_chemical_formula_sum   'Sr6 U1 Tc1 O12'
_cell_volume   339.97978087
_cell_formula_units_Z   1
loop_
 _symmetry_equiv_pos_site_id
 _symmetry_equiv_pos_as_xyz
  1  'x, y, z'
loop_
 _atom_site_type_symbol
 _atom_site_label
 _atom_site_symmetry_multiplicity
 _atom_site_fract_x
 _atom_site_fract_y
 _atom_site_fract_z
 _atom_site_occupancy
  Sr  Sr0  1  0.071607  0.261661  0.563237  1
  Sr  Sr1  1  0.436763  0.928393  0.738339  1
  Sr  Sr2  1  0.738339  0.436763  0.928393  1
  Sr  Sr3  1  0.261661  0.563237  0.071607  1
  Sr  Sr4  1  0.563237  0.071607  0.261661  1
  Sr  Sr5  1  0.928393  0.738339  0.436763  1
  U  U6  1  0.000000  0.000000  0.000000  1
  Tc  Tc7  1  0.500000  0.500000  0.500000  1
  O  O8  1  0.062329  0.286733  0.933849  1
  O  O9  1  0.066151  0.937671  0.713267  1
  O  O10  1  0.453174  0.574359  0.767211  1
  O  O11  1  0.713267  0.066151  0.937671  1
  O  O12  1  0.232789  0.546826  0.425641  1
  O  O13  1  0.425641  0.232789  0.546826  1
  O  O14  1  0.574359  0.767211  0.453174  1
  O  O15  1  0.767211  0.453174  0.574359  1
  O  O16  1  0.286733  0.933849  0.062329  1
  O  O17  1  0.546826  0.425641  0.232789  1
  O  O18  1  0.933849  0.062329  0.286733  1
  O  O19  1  0.937671  0.713267  0.066151  1
