# generated using pymatgen
data_Tc2RuRhF24
_symmetry_space_group_name_H-M   'P 1'
_cell_length_a   5.29310708
_cell_length_b   9.00349100
_cell_length_c   9.58822072
_cell_angle_alpha   90.00000000
_cell_angle_beta   90.23707973
_cell_angle_gamma   90.00000000
_symmetry_Int_Tables_number   1
_chemical_formula_structural   Tc2RuRhF24
_chemical_formula_sum   'Tc2 Ru1 Rh1 F24'
_cell_volume   456.93657230
_cell_formula_units_Z   1
loop_
 _symmetry_equiv_pos_site_id
 _symmetry_equiv_pos_as_xyz
  1  'x, y, z'
loop_
 _atom_site_type_symbol
 _atom_site_label
 _atom_site_symmetry_multiplicity
 _atom_site_fract_x
 _atom_site_fract_y
 _atom_site_fract_z
 _atom_site_occupancy
  Tc  Tc0  1  0.916180  0.750000  0.633683  1
  Tc  Tc1  1  0.084035  0.250000  0.365980  1
  Ru  Ru2  1  0.580876  0.750000  0.129517  1
  Rh  Rh3  1  0.419075  0.250000  0.870810  1
  F  F4  1  0.203832  0.750000  0.523832  1
  F  F5  1  0.795443  0.250000  0.475110  1
  F  F6  1  0.707129  0.250000  0.985253  1
  F  F7  1  0.293104  0.750000  0.016819  1
  F  F8  1  0.626577  0.750000  0.741101  1
  F  F9  1  0.374604  0.250000  0.259306  1
  F  F10  1  0.130768  0.250000  0.755383  1
  F  F11  1  0.868371  0.750000  0.243669  1
  F  F12  1  0.776594  0.604555  0.520546  1
  F  F13  1  0.222663  0.395664  0.478951  1
  F  F14  1  0.272052  0.397206  0.982991  1
  F  F15  1  0.222663  0.104336  0.478951  1
  F  F16  1  0.725968  0.603873  0.017302  1
  F  F17  1  0.776594  0.895445  0.520546  1
  F  F18  1  0.725968  0.896127  0.017302  1
  F  F19  1  0.272052  0.102794  0.982991  1
  F  F20  1  0.056165  0.605037  0.745801  1
  F  F21  1  0.944743  0.395182  0.253938  1
  F  F22  1  0.564019  0.397655  0.757511  1
  F  F23  1  0.944743  0.104818  0.253938  1
  F  F24  1  0.437796  0.603413  0.242727  1
  F  F25  1  0.056165  0.894963  0.745801  1
  F  F26  1  0.437796  0.896587  0.242727  1
  F  F27  1  0.564019  0.102345  0.757511  1
