# generated using pymatgen
data_Y20In3Ga8Pb
_symmetry_space_group_name_H-M   'P 1'
_cell_length_a   7.81072500
_cell_length_b   7.81072500
_cell_length_c   14.30115300
_cell_angle_alpha   90.00000000
_cell_angle_beta   90.00000000
_cell_angle_gamma   90.00000000
_symmetry_Int_Tables_number   1
_chemical_formula_structural   Y20In3Ga8Pb
_chemical_formula_sum   'Y20 In3 Ga8 Pb1'
_cell_volume   872.47651943
_cell_formula_units_Z   1
loop_
 _symmetry_equiv_pos_site_id
 _symmetry_equiv_pos_as_xyz
  1  'x, y, z'
loop_
 _atom_site_type_symbol
 _atom_site_label
 _atom_site_symmetry_multiplicity
 _atom_site_fract_x
 _atom_site_fract_y
 _atom_site_fract_z
 _atom_site_occupancy
  Y  Y0  1  0.836148  0.834682  0.893903  1
  Y  Y1  1  0.166501  0.161656  0.606333  1
  Y  Y2  1  0.835003  0.163034  0.393609  1
  Y  Y3  1  0.164997  0.836966  0.393609  1
  Y  Y4  1  0.336966  0.335003  0.393609  1
  Y  Y5  1  0.834512  0.163647  0.106155  1
  Y  Y6  1  0.334682  0.663852  0.893903  1
  Y  Y7  1  0.165488  0.836353  0.106155  1
  Y  Y8  1  0.500000  0.000000  0.752762  1
  Y  Y9  1  0.000000  0.500000  0.245419  1
  Y  Y10  1  0.338344  0.666501  0.606333  1
  Y  Y11  1  0.663647  0.665488  0.106155  1
  Y  Y12  1  0.661656  0.333499  0.606333  1
  Y  Y13  1  0.000000  0.500000  0.751964  1
  Y  Y14  1  0.833499  0.838344  0.606333  1
  Y  Y15  1  0.665318  0.336148  0.893903  1
  Y  Y16  1  0.163852  0.165318  0.893903  1
  Y  Y17  1  0.500000  0.000000  0.250187  1
  Y  Y18  1  0.663034  0.664997  0.393609  1
  Y  Y19  1  0.336353  0.334512  0.106155  1
  In  In20  1  0.000000  0.500000  0.000361  1
  In  In21  1  0.500000  0.000000  0.999421  1
  In  In22  1  0.500000  0.000000  0.499609  1
  Ga  Ga23  1  0.626834  0.373887  0.250777  1
  Ga  Ga24  1  0.373166  0.626113  0.250777  1
  Ga  Ga25  1  0.126113  0.126834  0.250777  1
  Ga  Ga26  1  0.373184  0.373973  0.749232  1
  Ga  Ga27  1  0.126027  0.873184  0.749232  1
  Ga  Ga28  1  0.873887  0.873166  0.250777  1
  Ga  Ga29  1  0.626816  0.626027  0.749232  1
  Ga  Ga30  1  0.873973  0.126816  0.749232  1
  Pb  Pb31  1  0.000000  0.500000  0.500240  1
