# generated using pymatgen
data_Zr7(CoS)2
_symmetry_space_group_name_H-M   'P 1'
_cell_length_a   8.31300594
_cell_length_b   8.31300569
_cell_length_c   8.31300632
_cell_angle_alpha   155.87225750
_cell_angle_beta   117.55072200
_cell_angle_gamma   67.96518367
_symmetry_Int_Tables_number   1
_chemical_formula_structural   Zr7(CoS)2
_chemical_formula_sum   'Zr7 Co2 S2'
_cell_volume   206.44694406
_cell_formula_units_Z   1
loop_
 _symmetry_equiv_pos_site_id
 _symmetry_equiv_pos_as_xyz
  1  'x, y, z'
loop_
 _atom_site_type_symbol
 _atom_site_label
 _atom_site_symmetry_multiplicity
 _atom_site_fract_x
 _atom_site_fract_y
 _atom_site_fract_z
 _atom_site_occupancy
  Zr  Zr0  1  0.178150  0.500000  0.678150  1
  Zr  Zr1  1  0.235645  0.181766  0.053879  1
  Zr  Zr2  1  0.872115  0.818234  0.053879  1
  Zr  Zr3  1  0.563104  0.138596  0.424508  1
  Zr  Zr4  1  0.285912  0.861404  0.424508  1
  Zr  Zr5  1  0.642752  0.379902  0.262852  1
  Zr  Zr6  1  0.882950  0.620098  0.262852  1
  Co  Co7  1  0.485973  0.737984  0.747989  1
  Co  Co8  1  0.010004  0.262016  0.747989  1
  S  S9  1  0.926039  0.000000  0.926039  1
  S  S10  1  0.511996  0.500000  0.011996  1
