# generated using pymatgen
data_Tb3Y5Hg2IrPt
_symmetry_space_group_name_H-M   'P 1'
_cell_length_a   9.64789639
_cell_length_b   9.65439308
_cell_length_c   9.64346717
_cell_angle_alpha   60.04997942
_cell_angle_beta   60.12150441
_cell_angle_gamma   60.24174179
_symmetry_Int_Tables_number   1
_chemical_formula_structural   Tb3Y5Hg2IrPt
_chemical_formula_sum   'Tb6 Y10 Hg4 Ir2 Pt2'
_cell_volume   637.12746936
_cell_formula_units_Z   2
loop_
 _symmetry_equiv_pos_site_id
 _symmetry_equiv_pos_as_xyz
  1  'x, y, z'
loop_
 _atom_site_type_symbol
 _atom_site_label
 _atom_site_symmetry_multiplicity
 _atom_site_fract_x
 _atom_site_fract_y
 _atom_site_fract_z
 _atom_site_occupancy
  Tb  Tb0  1  0.350439  0.351581  0.349100  1
  Tb  Tb1  1  0.354178  0.353022  0.944109  1
  Tb  Tb2  1  0.358069  0.938315  0.352816  1
  Tb  Tb3  1  0.938536  0.357966  0.353722  1
  Tb  Tb4  1  0.806634  0.191930  0.189691  1
  Tb  Tb5  1  0.189561  0.806547  0.812654  1
  Y  Y6  1  0.191580  0.806505  0.190419  1
  Y  Y7  1  0.806731  0.189582  0.812260  1
  Y  Y8  1  0.191754  0.191711  0.808877  1
  Y  Y9  1  0.810903  0.810951  0.187336  1
  Y  Y10  1  0.938080  0.564993  0.561542  1
  Y  Y11  1  0.563417  0.937615  0.937053  1
  Y  Y12  1  0.563981  0.939366  0.560517  1
  Y  Y13  1  0.938246  0.562888  0.937711  1
  Y  Y14  1  0.561975  0.562109  0.938739  1
  Y  Y15  1  0.937851  0.937812  0.561434  1
  Hg  Hg16  1  0.585434  0.584611  0.584791  1
  Hg  Hg17  1  0.585422  0.585977  0.242469  1
  Hg  Hg18  1  0.584949  0.243446  0.585792  1
  Hg  Hg19  1  0.243389  0.584809  0.585048  1
  Ir  Ir20  1  0.142217  0.571712  0.142273  1
  Ir  Ir21  1  0.571861  0.141693  0.144413  1
  Pt  Pt22  1  0.142354  0.143604  0.146334  1
  Pt  Pt23  1  0.142439  0.141258  0.570901  1
