# generated using pymatgen
data_Nd2Cr3Tc14C3
_symmetry_space_group_name_H-M   'P 1'
_cell_length_a   6.94661916
_cell_length_b   6.94662156
_cell_length_c   6.94662107
_cell_angle_alpha   82.73006962
_cell_angle_beta   82.73006261
_cell_angle_gamma   82.73007275
_symmetry_Int_Tables_number   1
_chemical_formula_structural   Nd2Cr3Tc14C3
_chemical_formula_sum   'Nd2 Cr3 Tc14 C3'
_cell_volume   327.75743229
_cell_formula_units_Z   1
loop_
 _symmetry_equiv_pos_site_id
 _symmetry_equiv_pos_as_xyz
  1  'x, y, z'
loop_
 _atom_site_type_symbol
 _atom_site_label
 _atom_site_symmetry_multiplicity
 _atom_site_fract_x
 _atom_site_fract_y
 _atom_site_fract_z
 _atom_site_occupancy
  Nd  Nd0  1  0.647854  0.647854  0.647854  1
  Nd  Nd1  1  0.352146  0.352146  0.352146  1
  Cr  Cr2  1  0.000000  0.000000  0.500000  1
  Cr  Cr3  1  0.500000  0.000000  0.000000  1
  Cr  Cr4  1  0.000000  0.500000  0.000000  1
  Tc  Tc5  1  0.722236  0.277764  0.000000  1
  Tc  Tc6  1  0.000000  0.722236  0.277764  1
  Tc  Tc7  1  0.277764  0.000000  0.722236  1
  Tc  Tc8  1  0.000000  0.277764  0.722236  1
  Tc  Tc9  1  0.722236  0.000000  0.277764  1
  Tc  Tc10  1  0.277764  0.722236  0.000000  1
  Tc  Tc11  1  0.343194  0.343194  0.870080  1
  Tc  Tc12  1  0.870080  0.343194  0.343194  1
  Tc  Tc13  1  0.343194  0.870080  0.343194  1
  Tc  Tc14  1  0.656806  0.656806  0.129920  1
  Tc  Tc15  1  0.129920  0.656806  0.656806  1
  Tc  Tc16  1  0.656806  0.129920  0.656806  1
  Tc  Tc17  1  0.901571  0.901571  0.901571  1
  Tc  Tc18  1  0.098429  0.098429  0.098429  1
  C  C19  1  0.500000  0.500000  0.000000  1
  C  C20  1  0.000000  0.500000  0.500000  1
  C  C21  1  0.500000  0.000000  0.500000  1
