# generated using pymatgen
data_Tb2PrNd3CoBr10
_symmetry_space_group_name_H-M   'P 1'
_cell_length_a   7.50202539
_cell_length_b   9.39563309
_cell_length_c   9.52538893
_cell_angle_alpha   108.54034894
_cell_angle_beta   95.87468255
_cell_angle_gamma   105.16851450
_symmetry_Int_Tables_number   1
_chemical_formula_structural   Tb2PrNd3CoBr10
_chemical_formula_sum   'Tb2 Pr1 Nd3 Co1 Br10'
_cell_volume   601.62179312
_cell_formula_units_Z   1
loop_
 _symmetry_equiv_pos_site_id
 _symmetry_equiv_pos_as_xyz
  1  'x, y, z'
loop_
 _atom_site_type_symbol
 _atom_site_label
 _atom_site_symmetry_multiplicity
 _atom_site_fract_x
 _atom_site_fract_y
 _atom_site_fract_z
 _atom_site_occupancy
  Tb  Tb0  1  0.352980  0.129258  0.672587  1
  Tb  Tb1  1  0.647025  0.871816  0.327635  1
  Pr  Pr2  1  0.030059  0.710937  0.407621  1
  Nd  Nd3  1  0.969019  0.285902  0.591353  1
  Nd  Nd4  1  0.871292  0.951647  0.746805  1
  Nd  Nd5  1  0.129650  0.047811  0.253523  1
  Co  Co6  1  0.000124  0.999517  0.499959  1
  Br  Br7  1  0.453402  0.826655  0.580690  1
  Br  Br8  1  0.549333  0.175501  0.421084  1
  Br  Br9  1  0.912575  0.630925  0.674401  1
  Br  Br10  1  0.086166  0.367424  0.328048  1
  Br  Br11  1  0.252998  0.083124  0.945320  1
  Br  Br12  1  0.747861  0.917347  0.054754  1
  Br  Br13  1  0.353969  0.443126  0.767486  1
  Br  Br14  1  0.641067  0.557073  0.230524  1
  Br  Br15  1  0.766865  0.249681  0.841988  1
  Br  Br16  1  0.235615  0.752255  0.156222  1
