# generated using pymatgen
data_Er3B7Os
_symmetry_space_group_name_H-M   'P 1'
_cell_length_a   7.98827848
_cell_length_b   7.98827896
_cell_length_c   9.27343400
_cell_angle_alpha   90.00000000
_cell_angle_beta   90.00000000
_cell_angle_gamma   154.72737465
_symmetry_Int_Tables_number   1
_chemical_formula_structural   Er3B7Os
_chemical_formula_sum   'Er6 B14 Os2'
_cell_volume   252.63846320
_cell_formula_units_Z   2
loop_
 _symmetry_equiv_pos_site_id
 _symmetry_equiv_pos_as_xyz
  1  'x, y, z'
loop_
 _atom_site_type_symbol
 _atom_site_label
 _atom_site_symmetry_multiplicity
 _atom_site_fract_x
 _atom_site_fract_y
 _atom_site_fract_z
 _atom_site_occupancy
  Er  Er0  1  0.755423  0.244577  0.250000  1
  Er  Er1  1  0.244577  0.755423  0.750000  1
  Er  Er2  1  0.893766  0.106234  0.560003  1
  Er  Er3  1  0.106234  0.893766  0.439997  1
  Er  Er4  1  0.106234  0.893766  0.060003  1
  Er  Er5  1  0.893766  0.106234  0.939997  1
  B  B6  1  0.544611  0.455389  0.250000  1
  B  B7  1  0.455389  0.544611  0.750000  1
  B  B8  1  0.520370  0.479630  0.904452  1
  B  B9  1  0.479630  0.520370  0.095548  1
  B  B10  1  0.479630  0.520370  0.404452  1
  B  B11  1  0.520370  0.479630  0.595548  1
  B  B12  1  0.632381  0.367619  0.849721  1
  B  B13  1  0.367619  0.632381  0.150279  1
  B  B14  1  0.727403  0.272597  0.965846  1
  B  B15  1  0.272597  0.727403  0.034154  1
  B  B16  1  0.272597  0.727403  0.465846  1
  B  B17  1  0.727403  0.272597  0.534154  1
  B  B18  1  0.632381  0.367619  0.650279  1
  B  B19  1  0.367619  0.632381  0.349721  1
  Os  Os20  1  0.946456  0.053544  0.250000  1
  Os  Os21  1  0.053544  0.946456  0.750000  1
