# generated using pymatgen
data_Tm10Al5GeC8
_symmetry_space_group_name_H-M   'P 1'
_cell_length_a   10.69921500
_cell_length_b   10.69921500
_cell_length_c   3.47510500
_cell_angle_alpha   90.00000000
_cell_angle_beta   90.00000000
_cell_angle_gamma   90.00000000
_symmetry_Int_Tables_number   1
_chemical_formula_structural   Tm10Al5GeC8
_chemical_formula_sum   'Tm10 Al5 Ge1 C8'
_cell_volume   397.80639530
_cell_formula_units_Z   1
loop_
 _symmetry_equiv_pos_site_id
 _symmetry_equiv_pos_as_xyz
  1  'x, y, z'
loop_
 _atom_site_type_symbol
 _atom_site_label
 _atom_site_symmetry_multiplicity
 _atom_site_fract_x
 _atom_site_fract_y
 _atom_site_fract_z
 _atom_site_occupancy
  Tm  Tm0  1  0.549663  0.727095  0.500000  1
  Tm  Tm1  1  0.450337  0.272905  0.500000  1
  Tm  Tm2  1  0.051418  0.768429  0.500000  1
  Tm  Tm3  1  0.948582  0.231571  0.500000  1
  Tm  Tm4  1  0.272905  0.549663  0.500000  1
  Tm  Tm5  1  0.727095  0.450337  0.500000  1
  Tm  Tm6  1  0.231571  0.051418  0.500000  1
  Tm  Tm7  1  0.768429  0.948582  0.500000  1
  Tm  Tm8  1  0.500000  0.000000  0.000000  1
  Tm  Tm9  1  0.000000  0.500000  0.000000  1
  Al  Al10  1  0.708996  0.197441  0.000000  1
  Al  Al11  1  0.291004  0.802559  0.000000  1
  Al  Al12  1  0.197441  0.291004  0.000000  1
  Al  Al13  1  0.802559  0.708996  0.000000  1
  Al  Al14  1  0.000000  0.000000  0.000000  1
  Ge  Ge15  1  0.500000  0.500000  0.000000  1
  C  C16  1  0.627957  0.131983  0.500000  1
  C  C17  1  0.372043  0.868017  0.500000  1
  C  C18  1  0.131983  0.372043  0.500000  1
  C  C19  1  0.868017  0.627957  0.500000  1
  C  C20  1  0.164236  0.659932  0.000000  1
  C  C21  1  0.835764  0.340068  0.000000  1
  C  C22  1  0.659932  0.835764  0.000000  1
  C  C23  1  0.340068  0.164236  0.000000  1
