# generated using pymatgen
data_Hf18Ta5Mo3P2
_symmetry_space_group_name_H-M   'P 1'
_cell_length_a   8.75059200
_cell_length_b   8.68557577
_cell_length_c   8.74609100
_cell_angle_alpha   120.23250427
_cell_angle_beta   90.00000000
_cell_angle_gamma   90.00000000
_symmetry_Int_Tables_number   1
_chemical_formula_structural   Hf18Ta5Mo3P2
_chemical_formula_sum   'Hf18 Ta5 Mo3 P2'
_cell_volume   574.32590075
_cell_formula_units_Z   1
loop_
 _symmetry_equiv_pos_site_id
 _symmetry_equiv_pos_as_xyz
  1  'x, y, z'
loop_
 _atom_site_type_symbol
 _atom_site_label
 _atom_site_symmetry_multiplicity
 _atom_site_fract_x
 _atom_site_fract_y
 _atom_site_fract_z
 _atom_site_occupancy
  Hf  Hf0  1  0.548569  0.800048  0.601090  1
  Hf  Hf1  1  0.548555  0.800026  0.198976  1
  Hf  Hf2  1  0.546804  0.396780  0.198390  1
  Hf  Hf3  1  0.450117  0.199060  0.398660  1
  Hf  Hf4  1  0.450129  0.199079  0.800379  1
  Hf  Hf5  1  0.450370  0.601533  0.800766  1
  Hf  Hf6  1  0.049883  0.199060  0.398660  1
  Hf  Hf7  1  0.049871  0.199079  0.800379  1
  Hf  Hf8  1  0.049630  0.601533  0.800766  1
  Hf  Hf9  1  0.951431  0.800048  0.601090  1
  Hf  Hf10  1  0.951445  0.800026  0.198976  1
  Hf  Hf11  1  0.953196  0.396780  0.198390  1
  Hf  Hf12  1  0.750000  0.461620  0.923776  1
  Hf  Hf13  1  0.750000  0.461620  0.537847  1
  Hf  Hf14  1  0.750000  0.077235  0.538620  1
  Hf  Hf15  1  0.250000  0.537126  0.076956  1
  Hf  Hf16  1  0.250000  0.537129  0.460169  1
  Hf  Hf17  1  0.250000  0.923520  0.461758  1
  Ta  Ta18  1  0.750000  0.111599  0.222941  1
  Ta  Ta19  1  0.750000  0.111613  0.888672  1
  Ta  Ta20  1  0.750000  0.777394  0.888709  1
  Ta  Ta21  1  0.250000  0.891971  0.778571  1
  Ta  Ta22  1  0.250000  0.891951  0.113382  1
  Mo  Mo23  1  0.250000  0.223519  0.111749  1
  Mo  Mo24  1  0.499133  0.001070  0.000535  1
  Mo  Mo25  1  0.000867  0.001070  0.000535  1
  P  P26  1  0.750000  0.665969  0.333005  1
  P  P27  1  0.250000  0.332545  0.666251  1
