# generated using pymatgen
data_Ce3Dy(B4Os)4
_symmetry_space_group_name_H-M   'P 1'
_cell_length_a   3.60678400
_cell_length_b   6.00437874
_cell_length_c   11.64057242
_cell_angle_alpha   89.94324192
_cell_angle_beta   90.00000000
_cell_angle_gamma   90.00000000
_symmetry_Int_Tables_number   1
_chemical_formula_structural   Ce3Dy(B4Os)4
_chemical_formula_sum   'Ce3 Dy1 B16 Os4'
_cell_volume   252.09390000
_cell_formula_units_Z   1
loop_
 _symmetry_equiv_pos_site_id
 _symmetry_equiv_pos_as_xyz
  1  'x, y, z'
loop_
 _atom_site_type_symbol
 _atom_site_label
 _atom_site_symmetry_multiplicity
 _atom_site_fract_x
 _atom_site_fract_y
 _atom_site_fract_z
 _atom_site_occupancy
  Ce  Ce0  1  0.000000  0.629069  0.350248  1
  Ce  Ce1  1  0.000000  0.371098  0.650647  1
  Ce  Ce2  1  0.000000  0.128571  0.148508  1
  Dy  Dy3  1  0.000000  0.871753  0.851033  1
  B  B4  1  0.500000  0.787270  0.185110  1
  B  B5  1  0.500000  0.212370  0.814128  1
  B  B6  1  0.500000  0.285454  0.313135  1
  B  B7  1  0.500000  0.714128  0.687068  1
  B  B8  1  0.500000  0.863320  0.030352  1
  B  B9  1  0.500000  0.136966  0.968196  1
  B  B10  1  0.500000  0.362207  0.469522  1
  B  B11  1  0.500000  0.637080  0.531326  1
  B  B12  1  0.500000  0.887982  0.454608  1
  B  B13  1  0.500000  0.111452  0.546867  1
  B  B14  1  0.500000  0.388453  0.044644  1
  B  B15  1  0.500000  0.613433  0.953036  1
  B  B16  1  0.500000  0.974133  0.309354  1
  B  B17  1  0.500000  0.025809  0.691805  1
  B  B18  1  0.500000  0.471939  0.189632  1
  B  B19  1  0.500000  0.527894  0.809560  1
  Os  Os20  1  0.000000  0.639951  0.094241  1
  Os  Os21  1  0.000000  0.358943  0.906280  1
  Os  Os22  1  0.000000  0.140969  0.405967  1
  Os  Os23  1  0.000000  0.859755  0.594732  1
