# generated using pymatgen
data_Ba2Ca4(TaH9)3
_symmetry_space_group_name_H-M   'P 1'
_cell_length_a   9.10352800
_cell_length_b   9.08946451
_cell_length_c   5.36104500
_cell_angle_alpha   90.00000000
_cell_angle_beta   90.00000000
_cell_angle_gamma   119.94892936
_symmetry_Int_Tables_number   1
_chemical_formula_structural   Ba2Ca4(TaH9)3
_chemical_formula_sum   'Ba2 Ca4 Ta3 H27'
_cell_volume   384.37168057
_cell_formula_units_Z   1
loop_
 _symmetry_equiv_pos_site_id
 _symmetry_equiv_pos_as_xyz
  1  'x, y, z'
loop_
 _atom_site_type_symbol
 _atom_site_label
 _atom_site_symmetry_multiplicity
 _atom_site_fract_x
 _atom_site_fract_y
 _atom_site_fract_z
 _atom_site_occupancy
  Ba  Ba0  1  0.402792  0.398261  0.000000  1
  Ba  Ba1  1  0.597208  0.995471  0.000000  1
  Ca  Ca2  1  0.000000  0.260543  0.500000  1
  Ca  Ca3  1  0.743248  0.731729  0.500000  1
  Ca  Ca4  1  0.256752  0.988482  0.500000  1
  Ca  Ca5  1  0.000000  0.591466  0.000000  1
  Ta  Ta6  1  0.679045  0.344488  0.500000  1
  Ta  Ta7  1  0.320955  0.665444  0.500000  1
  Ta  Ta8  1  0.000000  0.989878  0.000000  1
  H  H9  1  0.833239  0.349191  0.742506  1
  H  H10  1  0.688504  0.483956  0.762101  1
  H  H11  1  0.513709  0.192471  0.731028  1
  H  H12  1  0.166761  0.515954  0.257494  1
  H  H13  1  0.513709  0.192471  0.268972  1
  H  H14  1  0.833239  0.349191  0.257494  1
  H  H15  1  0.688504  0.483956  0.237899  1
  H  H16  1  0.311496  0.795452  0.762101  1
  H  H17  1  0.486291  0.678765  0.731028  1
  H  H18  1  0.206693  0.996654  0.000000  1
  H  H19  1  0.793307  0.789961  0.000000  1
  H  H20  1  0.000000  0.194914  0.000000  1
  H  H21  1  0.859415  0.991713  0.256177  1
  H  H22  1  0.140585  0.132298  0.743823  1
  H  H23  1  0.000000  0.839253  0.758659  1
  H  H24  1  0.000000  0.839253  0.241341  1
  H  H25  1  0.140585  0.132298  0.256177  1
  H  H26  1  0.859415  0.991713  0.743823  1
  H  H27  1  0.132262  0.688557  0.500000  1
  H  H28  1  0.509634  0.877465  0.500000  1
  H  H29  1  0.309509  0.456982  0.500000  1
  H  H30  1  0.490366  0.367832  0.500000  1
  H  H31  1  0.867738  0.556295  0.500000  1
  H  H32  1  0.690491  0.147474  0.500000  1
  H  H33  1  0.166761  0.515954  0.742506  1
  H  H34  1  0.311496  0.795452  0.237899  1
  H  H35  1  0.486291  0.678765  0.268972  1
