# generated using pymatgen
data_SmTh7H30
_symmetry_space_group_name_H-M   'P 1'
_cell_length_a   7.88378183
_cell_length_b   7.88378198
_cell_length_c   7.88378149
_cell_angle_alpha   109.53226717
_cell_angle_beta   109.53226927
_cell_angle_gamma   109.53227170
_symmetry_Int_Tables_number   1
_chemical_formula_structural   SmTh7H30
_chemical_formula_sum   'Sm1 Th7 H30'
_cell_volume   376.35385669
_cell_formula_units_Z   1
loop_
 _symmetry_equiv_pos_site_id
 _symmetry_equiv_pos_as_xyz
  1  'x, y, z'
loop_
 _atom_site_type_symbol
 _atom_site_label
 _atom_site_symmetry_multiplicity
 _atom_site_fract_x
 _atom_site_fract_y
 _atom_site_fract_z
 _atom_site_occupancy
  Sm  Sm0  1  0.914664  0.914664  0.914664  1
  Th  Th1  1  0.499330  0.999568  0.083277  1
  Th  Th2  1  0.999568  0.083277  0.499330  1
  Th  Th3  1  0.083277  0.499330  0.999568  1
  Th  Th4  1  0.998946  0.585407  0.502342  1
  Th  Th5  1  0.585407  0.502342  0.998946  1
  Th  Th6  1  0.502342  0.998946  0.585407  1
  Th  Th7  1  0.415525  0.415525  0.415525  1
  H  H8  1  0.652633  0.968954  0.372467  1
  H  H9  1  0.220260  0.316632  0.846419  1
  H  H10  1  0.183715  0.404246  0.531358  1
  H  H11  1  0.097577  0.282773  0.127841  1
  H  H12  1  0.282773  0.127841  0.097577  1
  H  H13  1  0.127841  0.097577  0.282773  1
  H  H14  1  0.468955  0.154128  0.872708  1
  H  H15  1  0.719555  0.346972  0.815586  1
  H  H16  1  0.625739  0.375170  0.250076  1
  H  H17  1  0.250076  0.625739  0.375170  1
  H  H18  1  0.747632  0.874796  0.127887  1
  H  H19  1  0.127887  0.747632  0.874796  1
  H  H20  1  0.375170  0.250076  0.625739  1
  H  H21  1  0.874796  0.127887  0.747632  1
  H  H22  1  0.778980  0.592997  0.624664  1
  H  H23  1  0.316632  0.846419  0.220260  1
  H  H24  1  0.372467  0.652633  0.968954  1
  H  H25  1  0.968954  0.372467  0.652633  1
  H  H26  1  0.531358  0.183715  0.404246  1
  H  H27  1  0.404246  0.531358  0.183715  1
  H  H28  1  0.846419  0.220260  0.316632  1
  H  H29  1  0.904510  0.684085  0.031626  1
  H  H30  1  0.815586  0.719555  0.346972  1
  H  H31  1  0.154128  0.872708  0.468955  1
  H  H32  1  0.684085  0.031626  0.904510  1
  H  H33  1  0.346972  0.815586  0.719555  1
  H  H34  1  0.872708  0.468955  0.154128  1
  H  H35  1  0.624664  0.778980  0.592997  1
  H  H36  1  0.592997  0.624664  0.778980  1
  H  H37  1  0.031626  0.904510  0.684085  1
