# generated using pymatgen
data_Tb19Er(Bi2Ir)4
_symmetry_space_group_name_H-M   'P 1'
_cell_length_a   8.06022713
_cell_length_b   9.03079089
_cell_length_c   12.57370616
_cell_angle_alpha   89.97119537
_cell_angle_beta   90.05920959
_cell_angle_gamma   89.97315518
_symmetry_Int_Tables_number   1
_chemical_formula_structural   Tb19Er(Bi2Ir)4
_chemical_formula_sum   'Tb19 Er1 Bi8 Ir4'
_cell_volume   915.24220467
_cell_formula_units_Z   1
loop_
 _symmetry_equiv_pos_site_id
 _symmetry_equiv_pos_as_xyz
  1  'x, y, z'
loop_
 _atom_site_type_symbol
 _atom_site_label
 _atom_site_symmetry_multiplicity
 _atom_site_fract_x
 _atom_site_fract_y
 _atom_site_fract_z
 _atom_site_occupancy
  Tb  Tb0  1  0.841381  0.750001  0.793901  1
  Tb  Tb1  1  0.158492  0.250106  0.205843  1
  Tb  Tb2  1  0.341759  0.249649  0.705667  1
  Tb  Tb3  1  0.658224  0.750200  0.294238  1
  Tb  Tb4  1  0.377175  0.750620  0.694149  1
  Tb  Tb5  1  0.624653  0.249251  0.305948  1
  Tb  Tb6  1  0.876500  0.250332  0.805264  1
  Tb  Tb7  1  0.123683  0.749767  0.194369  1
  Tb  Tb8  1  0.946470  0.750942  0.501636  1
  Tb  Tb9  1  0.050271  0.249354  0.498430  1
  Tb  Tb10  1  0.448278  0.249945  0.998413  1
  Tb  Tb11  1  0.551494  0.749965  0.001547  1
  Tb  Tb12  1  0.322776  0.959788  0.435039  1
  Tb  Tb13  1  0.177538  0.959363  0.934436  1
  Tb  Tb14  1  0.322627  0.539786  0.435362  1
  Tb  Tb15  1  0.822552  0.040369  0.065167  1
  Tb  Tb16  1  0.677878  0.459333  0.565699  1
  Tb  Tb17  1  0.822503  0.459520  0.065173  1
  Tb  Tb18  1  0.177676  0.540563  0.934572  1
  Er  Er19  1  0.674318  0.040656  0.565521  1
  Bi  Bi20  1  0.569938  0.491178  0.826974  1
  Bi  Bi21  1  0.430402  0.508472  0.173433  1
  Bi  Bi22  1  0.070509  0.509040  0.672698  1
  Bi  Bi23  1  0.430024  0.991341  0.173081  1
  Bi  Bi24  1  0.930258  0.491388  0.327088  1
  Bi  Bi25  1  0.570416  0.008975  0.826751  1
  Bi  Bi26  1  0.930737  0.008558  0.326507  1
  Bi  Bi27  1  0.068506  0.991528  0.672718  1
  Ir  Ir28  1  0.569385  0.750916  0.509698  1
  Ir  Ir29  1  0.433494  0.249164  0.490953  1
  Ir  Ir30  1  0.068532  0.249997  0.990285  1
  Ir  Ir31  1  0.931554  0.749934  0.009440  1
