# generated using pymatgen
data_Ba5B3HO9
_symmetry_space_group_name_H-M   'P 1'
_cell_length_a   9.24414285
_cell_length_b   9.24414339
_cell_length_c   7.75664100
_cell_angle_alpha   90.00000000
_cell_angle_beta   90.00000000
_cell_angle_gamma   110.79213975
_symmetry_Int_Tables_number   1
_chemical_formula_structural   Ba5B3HO9
_chemical_formula_sum   'Ba10 B6 H2 O18'
_cell_volume   619.66971711
_cell_formula_units_Z   2
loop_
 _symmetry_equiv_pos_site_id
 _symmetry_equiv_pos_as_xyz
  1  'x, y, z'
loop_
 _atom_site_type_symbol
 _atom_site_label
 _atom_site_symmetry_multiplicity
 _atom_site_fract_x
 _atom_site_fract_y
 _atom_site_fract_z
 _atom_site_occupancy
  Ba  Ba0  1  0.768444  0.768444  0.000000  1
  Ba  Ba1  1  0.231556  0.231556  0.500000  1
  Ba  Ba2  1  0.001053  0.253517  0.959646  1
  Ba  Ba3  1  0.253517  0.001053  0.040354  1
  Ba  Ba4  1  0.998947  0.746483  0.459646  1
  Ba  Ba5  1  0.746483  0.998947  0.540354  1
  Ba  Ba6  1  0.363776  0.636224  0.750000  1
  Ba  Ba7  1  0.636224  0.363776  0.250000  1
  Ba  Ba8  1  0.641868  0.358132  0.750000  1
  Ba  Ba9  1  0.358132  0.641868  0.250000  1
  B  B10  1  0.591353  0.011882  0.965454  1
  B  B11  1  0.011882  0.591353  0.034546  1
  B  B12  1  0.408647  0.988118  0.465454  1
  B  B13  1  0.988118  0.408647  0.534546  1
  B  B14  1  0.366756  0.366756  0.000000  1
  B  B15  1  0.633244  0.633244  0.500000  1
  H  H16  1  0.041291  0.958709  0.750000  1
  H  H17  1  0.958709  0.041291  0.250000  1
  O  O18  1  0.500393  0.500393  0.000000  1
  O  O19  1  0.499607  0.499607  0.500000  1
  O  O20  1  0.484295  0.864107  0.003151  1
  O  O21  1  0.864107  0.484295  0.996849  1
  O  O22  1  0.515705  0.135893  0.503151  1
  O  O23  1  0.135893  0.515705  0.496849  1
  O  O24  1  0.143228  0.559310  0.989184  1
  O  O25  1  0.559310  0.143228  0.010816  1
  O  O26  1  0.856772  0.440690  0.489184  1
  O  O27  1  0.440690  0.856772  0.510816  1
  O  O28  1  0.695725  0.701912  0.344147  1
  O  O29  1  0.701912  0.695725  0.655853  1
  O  O30  1  0.304275  0.298088  0.844147  1
  O  O31  1  0.298088  0.304275  0.155853  1
  O  O32  1  0.729024  0.027869  0.881218  1
  O  O33  1  0.027869  0.729024  0.118782  1
  O  O34  1  0.270976  0.972131  0.381218  1
  O  O35  1  0.972131  0.270976  0.618782  1
