# generated using pymatgen
data_Er6Si6OsRh3
_symmetry_space_group_name_H-M   'P 1'
_cell_length_a   5.70668798
_cell_length_b   5.70668890
_cell_length_c   13.63132529
_cell_angle_alpha   90.09790850
_cell_angle_beta   89.90209089
_cell_angle_gamma   137.02969517
_symmetry_Int_Tables_number   1
_chemical_formula_structural   Er6Si6OsRh3
_chemical_formula_sum   'Er6 Si6 Os1 Rh3'
_cell_volume   302.58507636
_cell_formula_units_Z   1
loop_
 _symmetry_equiv_pos_site_id
 _symmetry_equiv_pos_as_xyz
  1  'x, y, z'
loop_
 _atom_site_type_symbol
 _atom_site_label
 _atom_site_symmetry_multiplicity
 _atom_site_fract_x
 _atom_site_fract_y
 _atom_site_fract_z
 _atom_site_occupancy
  Er  Er0  1  0.920904  0.079096  0.385377  1
  Er  Er1  1  0.079186  0.920814  0.614983  1
  Er  Er2  1  0.924088  0.075912  0.114905  1
  Er  Er3  1  0.076519  0.923481  0.885509  1
  Er  Er4  1  0.644148  0.355852  0.250646  1
  Er  Er5  1  0.355765  0.644235  0.749078  1
  Si  Si6  1  0.608334  0.391666  0.461119  1
  Si  Si7  1  0.391193  0.608807  0.538830  1
  Si  Si8  1  0.612634  0.387366  0.037815  1
  Si  Si9  1  0.385096  0.614904  0.959836  1
  Si  Si10  1  0.336855  0.663145  0.249413  1
  Si  Si11  1  0.667052  0.332948  0.752237  1
  Os  Os12  1  0.787028  0.212972  0.918997  1
  Rh  Rh13  1  0.212566  0.787434  0.081138  1
  Rh  Rh14  1  0.785858  0.214142  0.581844  1
  Rh  Rh15  1  0.212772  0.787228  0.418274  1
