# generated using pymatgen
data_Li3Nd2Ni9P7
_symmetry_space_group_name_H-M   'P 1'
_cell_length_a   3.77785300
_cell_length_b   9.20411303
_cell_length_c   9.20411200
_cell_angle_alpha   119.99999630
_cell_angle_beta   90.00000000
_cell_angle_gamma   90.00000000
_symmetry_Int_Tables_number   1
_chemical_formula_structural   Li3Nd2Ni9P7
_chemical_formula_sum   'Li3 Nd2 Ni9 P7'
_cell_volume   277.16573628
_cell_formula_units_Z   1
loop_
 _symmetry_equiv_pos_site_id
 _symmetry_equiv_pos_as_xyz
  1  'x, y, z'
loop_
 _atom_site_type_symbol
 _atom_site_label
 _atom_site_symmetry_multiplicity
 _atom_site_fract_x
 _atom_site_fract_y
 _atom_site_fract_z
 _atom_site_occupancy
  Li  Li0  1  0.500000  0.790307  0.893207  1
  Li  Li1  1  0.500000  0.102902  0.209693  1
  Li  Li2  1  0.500000  0.106793  0.897098  1
  Nd  Nd3  1  0.000000  0.666667  0.333333  1
  Nd  Nd4  1  0.500000  0.333333  0.666667  1
  Ni  Ni5  1  0.000000  0.572226  0.942478  1
  Ni  Ni6  1  0.000000  0.370251  0.427774  1
  Ni  Ni7  1  0.000000  0.057522  0.629749  1
  Ni  Ni8  1  0.000000  0.876938  0.156430  1
  Ni  Ni9  1  0.000000  0.279493  0.123062  1
  Ni  Ni10  1  0.000000  0.843570  0.720507  1
  Ni  Ni11  1  0.500000  0.954573  0.390203  1
  Ni  Ni12  1  0.500000  0.435629  0.045427  1
  Ni  Ni13  1  0.500000  0.609797  0.564371  1
  P  P14  1  0.500000  0.711539  0.113873  1
  P  P15  1  0.500000  0.402334  0.288461  1
  P  P16  1  0.500000  0.886127  0.597666  1
  P  P17  1  0.000000  0.000000  0.000000  1
  P  P18  1  0.000000  0.591897  0.696445  1
  P  P19  1  0.000000  0.104547  0.408103  1
  P  P20  1  0.000000  0.303555  0.895453  1
