# generated using pymatgen
data_La9TmGa6
_symmetry_space_group_name_H-M   'P 1'
_cell_length_a   7.94448200
_cell_length_b   7.94448200
_cell_length_c   15.00259300
_cell_angle_alpha   90.00000000
_cell_angle_beta   90.00000000
_cell_angle_gamma   90.00000000
_symmetry_Int_Tables_number   1
_chemical_formula_structural   La9TmGa6
_chemical_formula_sum   'La18 Tm2 Ga12'
_cell_volume   946.88557039
_cell_formula_units_Z   2
loop_
 _symmetry_equiv_pos_site_id
 _symmetry_equiv_pos_as_xyz
  1  'x, y, z'
loop_
 _atom_site_type_symbol
 _atom_site_label
 _atom_site_symmetry_multiplicity
 _atom_site_fract_x
 _atom_site_fract_y
 _atom_site_fract_z
 _atom_site_occupancy
  La  La0  1  0.337436  0.311565  0.103657  1
  La  La1  1  0.837436  0.811565  0.896343  1
  La  La2  1  0.840014  0.182287  0.396160  1
  La  La3  1  0.162564  0.188435  0.896343  1
  La  La4  1  0.662564  0.688435  0.103657  1
  La  La5  1  0.000000  0.500000  0.707292  1
  La  La6  1  0.817713  0.840014  0.603840  1
  La  La7  1  0.317713  0.340014  0.396160  1
  La  La8  1  0.188435  0.837436  0.103657  1
  La  La9  1  0.182287  0.159986  0.603840  1
  La  La10  1  0.811565  0.162564  0.103657  1
  La  La11  1  0.340014  0.682287  0.603840  1
  La  La12  1  0.500000  0.000000  0.292708  1
  La  La13  1  0.688435  0.337436  0.896343  1
  La  La14  1  0.659986  0.317713  0.603840  1
  La  La15  1  0.311565  0.662564  0.896343  1
  La  La16  1  0.159986  0.817713  0.396160  1
  La  La17  1  0.682287  0.659986  0.396160  1
  Tm  Tm18  1  0.500000  0.000000  0.773355  1
  Tm  Tm19  1  0.000000  0.500000  0.226645  1
  Ga  Ga20  1  0.624745  0.384122  0.247896  1
  Ga  Ga21  1  0.875255  0.115878  0.752104  1
  Ga  Ga22  1  0.500000  0.000000  0.499730  1
  Ga  Ga23  1  0.884122  0.875255  0.247896  1
  Ga  Ga24  1  0.000000  0.500000  0.019921  1
  Ga  Ga25  1  0.124745  0.884122  0.752104  1
  Ga  Ga26  1  0.384122  0.375255  0.752104  1
  Ga  Ga27  1  0.115878  0.124745  0.247896  1
  Ga  Ga28  1  0.375255  0.615878  0.247896  1
  Ga  Ga29  1  0.615878  0.624745  0.752104  1
  Ga  Ga30  1  0.500000  0.000000  0.980079  1
  Ga  Ga31  1  0.000000  0.500000  0.500270  1
