# generated using pymatgen
data_Tb7NdLu11Si16Tc
_symmetry_space_group_name_H-M   'P 1'
_cell_length_a   7.22538797
_cell_length_b   7.58988120
_cell_length_c   14.29132407
_cell_angle_alpha   90.08863717
_cell_angle_beta   90.01307357
_cell_angle_gamma   90.20852351
_symmetry_Int_Tables_number   1
_chemical_formula_structural   Tb7NdLu11Si16Tc
_chemical_formula_sum   'Tb7 Nd1 Lu11 Si16 Tc1'
_cell_volume   783.72772254
_cell_formula_units_Z   1
loop_
 _symmetry_equiv_pos_site_id
 _symmetry_equiv_pos_as_xyz
  1  'x, y, z'
loop_
 _atom_site_type_symbol
 _atom_site_label
 _atom_site_symmetry_multiplicity
 _atom_site_fract_x
 _atom_site_fract_y
 _atom_site_fract_z
 _atom_site_occupancy
  Tb  Tb0  1  0.987020  0.814650  0.897389  1
  Tb  Tb1  1  0.480914  0.674505  0.900435  1
  Tb  Tb2  1  0.986834  0.813808  0.601786  1
  Tb  Tb3  1  0.520320  0.320144  0.096198  1
  Tb  Tb4  1  0.019701  0.181140  0.406983  1
  Tb  Tb5  1  0.520337  0.319983  0.405057  1
  Tb  Tb6  1  0.480326  0.673731  0.598709  1
  Nd  Nd7  1  0.018398  0.179018  0.091789  1
  Lu  Lu8  1  0.847239  0.490823  0.250297  1
  Lu  Lu9  1  0.347394  0.009413  0.250514  1
  Lu  Lu10  1  0.650402  0.987093  0.749927  1
  Lu  Lu11  1  0.317530  0.180551  0.627912  1
  Lu  Lu12  1  0.678835  0.822469  0.377261  1
  Lu  Lu13  1  0.179338  0.674337  0.380090  1
  Lu  Lu14  1  0.679586  0.822550  0.124061  1
  Lu  Lu15  1  0.821110  0.331043  0.628752  1
  Lu  Lu16  1  0.318286  0.180720  0.871990  1
  Lu  Lu17  1  0.820657  0.332334  0.870892  1
  Lu  Lu18  1  0.179252  0.673811  0.120597  1
  Si  Si19  1  0.020210  0.109258  0.749690  1
  Si  Si20  1  0.979347  0.886147  0.251289  1
  Si  Si21  1  0.473872  0.611249  0.250530  1
  Si  Si22  1  0.506742  0.406845  0.749648  1
  Si  Si23  1  0.275952  0.853696  0.749572  1
  Si  Si24  1  0.725587  0.128416  0.252177  1
  Si  Si25  1  0.226238  0.373238  0.251598  1
  Si  Si26  1  0.787698  0.630714  0.749444  1
  Si  Si27  1  0.150802  0.471697  0.550763  1
  Si  Si28  1  0.847362  0.532295  0.463639  1
  Si  Si29  1  0.350324  0.969128  0.463489  1
  Si  Si30  1  0.846181  0.535134  0.035296  1
  Si  Si31  1  0.653030  0.032224  0.540963  1
  Si  Si32  1  0.150644  0.474439  0.947753  1
  Si  Si33  1  0.653915  0.032232  0.958977  1
  Si  Si34  1  0.354306  0.966995  0.035925  1
  Tc  Tc35  1  0.144312  0.504169  0.748611  1
