# generated using pymatgen
data_Ba8HfZrSe12
_symmetry_space_group_name_H-M   'P 1'
_cell_length_a   8.95856072
_cell_length_b   8.95856115
_cell_length_c   8.95856204
_cell_angle_alpha   89.44593482
_cell_angle_beta   89.44592336
_cell_angle_gamma   89.44594087
_symmetry_Int_Tables_number   1
_chemical_formula_structural   Ba8HfZrSe12
_chemical_formula_sum   'Ba8 Hf1 Zr1 Se12'
_cell_volume   718.87648300
_cell_formula_units_Z   1
loop_
 _symmetry_equiv_pos_site_id
 _symmetry_equiv_pos_as_xyz
  1  'x, y, z'
loop_
 _atom_site_type_symbol
 _atom_site_label
 _atom_site_symmetry_multiplicity
 _atom_site_fract_x
 _atom_site_fract_y
 _atom_site_fract_z
 _atom_site_occupancy
  Ba  Ba0  1  0.874280  0.625814  0.249964  1
  Ba  Ba1  1  0.249964  0.874280  0.625814  1
  Ba  Ba2  1  0.625814  0.249964  0.874280  1
  Ba  Ba3  1  0.750036  0.125720  0.374186  1
  Ba  Ba4  1  0.374186  0.750036  0.125720  1
  Ba  Ba5  1  0.125720  0.374186  0.750036  1
  Ba  Ba6  1  0.249895  0.249895  0.249895  1
  Ba  Ba7  1  0.750105  0.750105  0.750105  1
  Hf  Hf8  1  0.000000  0.000000  0.000000  1
  Zr  Zr9  1  0.500000  0.500000  0.500000  1
  Se  Se10  1  0.208687  0.560744  0.426574  1
  Se  Se11  1  0.426574  0.208687  0.560744  1
  Se  Se12  1  0.560744  0.426574  0.208687  1
  Se  Se13  1  0.927401  0.060331  0.711381  1
  Se  Se14  1  0.711381  0.927401  0.060331  1
  Se  Se15  1  0.060331  0.711381  0.927401  1
  Se  Se16  1  0.791313  0.439256  0.573426  1
  Se  Se17  1  0.573426  0.791313  0.439256  1
  Se  Se18  1  0.439256  0.573426  0.791313  1
  Se  Se19  1  0.072599  0.939669  0.288619  1
  Se  Se20  1  0.288619  0.072599  0.939669  1
  Se  Se21  1  0.939669  0.288619  0.072599  1
