# generated using pymatgen
data_Tb3DyGa4Ni3Ru
_symmetry_space_group_name_H-M   'P 1'
_cell_length_a   4.27723400
_cell_length_b   6.80178191
_cell_length_c   7.54566508
_cell_angle_alpha   89.89694338
_cell_angle_beta   90.00000000
_cell_angle_gamma   90.00000000
_symmetry_Int_Tables_number   1
_chemical_formula_structural   Tb3DyGa4Ni3Ru
_chemical_formula_sum   'Tb3 Dy1 Ga4 Ni3 Ru1'
_cell_volume   219.52426691
_cell_formula_units_Z   1
loop_
 _symmetry_equiv_pos_site_id
 _symmetry_equiv_pos_as_xyz
  1  'x, y, z'
loop_
 _atom_site_type_symbol
 _atom_site_label
 _atom_site_symmetry_multiplicity
 _atom_site_fract_x
 _atom_site_fract_y
 _atom_site_fract_z
 _atom_site_occupancy
  Tb  Tb0  1  0.250000  0.026562  0.813530  1
  Tb  Tb1  1  0.250000  0.522577  0.687964  1
  Tb  Tb2  1  0.750000  0.978112  0.191979  1
  Dy  Dy3  1  0.750000  0.478283  0.308774  1
  Ga  Ga4  1  0.250000  0.165584  0.431311  1
  Ga  Ga5  1  0.250000  0.660216  0.062044  1
  Ga  Ga6  1  0.750000  0.838280  0.577565  1
  Ga  Ga7  1  0.750000  0.338475  0.930750  1
  Ni  Ni8  1  0.250000  0.285223  0.106702  1
  Ni  Ni9  1  0.750000  0.217530  0.608913  1
  Ni  Ni10  1  0.750000  0.716718  0.891127  1
  Ru  Ru11  1  0.250000  0.772438  0.389340  1
