# generated using pymatgen
data_Ce3Dy3Er4Al3ZnRu6
_symmetry_space_group_name_H-M   'P 1'
_cell_length_a   8.41288656
_cell_length_b   8.41288604
_cell_length_c   8.41288700
_cell_angle_alpha   110.12255701
_cell_angle_beta   110.12254845
_cell_angle_gamma   110.12254372
_symmetry_Int_Tables_number   1
_chemical_formula_structural   Ce3Dy3Er4Al3ZnRu6
_chemical_formula_sum   'Ce3 Dy3 Er4 Al3 Zn1 Ru6'
_cell_volume   446.97206142
_cell_formula_units_Z   1
loop_
 _symmetry_equiv_pos_site_id
 _symmetry_equiv_pos_as_xyz
  1  'x, y, z'
loop_
 _atom_site_type_symbol
 _atom_site_label
 _atom_site_symmetry_multiplicity
 _atom_site_fract_x
 _atom_site_fract_y
 _atom_site_fract_z
 _atom_site_occupancy
  Ce  Ce0  1  0.254926  0.200001  0.944879  1
  Ce  Ce1  1  0.944879  0.254926  0.200001  1
  Ce  Ce2  1  0.200001  0.944879  0.254926  1
  Dy  Dy3  1  0.721544  0.507046  0.995165  1
  Dy  Dy4  1  0.995165  0.721544  0.507046  1
  Dy  Dy5  1  0.507046  0.995165  0.721544  1
  Er  Er6  1  0.776425  0.776425  0.776425  1
  Er  Er7  1  0.314999  0.566957  0.750389  1
  Er  Er8  1  0.750389  0.314999  0.566957  1
  Er  Er9  1  0.566957  0.750389  0.314999  1
  Al  Al10  1  0.093555  0.498487  0.999610  1
  Al  Al11  1  0.999610  0.093555  0.498487  1
  Al  Al12  1  0.498487  0.999610  0.093555  1
  Zn  Zn13  1  0.421303  0.421303  0.421303  1
  Ru  Ru14  1  0.900205  0.118904  0.754164  1
  Ru  Ru15  1  0.754164  0.900205  0.118904  1
  Ru  Ru16  1  0.118904  0.754164  0.900205  1
  Ru  Ru17  1  0.220681  0.596711  0.364049  1
  Ru  Ru18  1  0.364049  0.220681  0.596711  1
  Ru  Ru19  1  0.596711  0.364049  0.220681  1
