# generated using pymatgen
data_NaY6NiBr12
_symmetry_space_group_name_H-M   'P 1'
_cell_length_a   9.19276911
_cell_length_b   9.19276830
_cell_length_c   9.19276801
_cell_angle_alpha   106.99787073
_cell_angle_beta   106.99788030
_cell_angle_gamma   106.99787347
_symmetry_Int_Tables_number   1
_chemical_formula_structural   NaY6NiBr12
_chemical_formula_sum   'Na1 Y6 Ni1 Br12'
_cell_volume   647.00829449
_cell_formula_units_Z   1
loop_
 _symmetry_equiv_pos_site_id
 _symmetry_equiv_pos_as_xyz
  1  'x, y, z'
loop_
 _atom_site_type_symbol
 _atom_site_label
 _atom_site_symmetry_multiplicity
 _atom_site_fract_x
 _atom_site_fract_y
 _atom_site_fract_z
 _atom_site_occupancy
  Na  Na0  1  0.500000  0.500000  0.500000  1
  Y  Y1  1  0.103311  0.025558  0.313622  1
  Y  Y2  1  0.025558  0.313622  0.103311  1
  Y  Y3  1  0.313622  0.103311  0.025558  1
  Y  Y4  1  0.896688  0.974442  0.686378  1
  Y  Y5  1  0.974442  0.686378  0.896688  1
  Y  Y6  1  0.686378  0.896688  0.974442  1
  Ni  Ni7  1  0.000000  0.000000  0.000000  1
  Br  Br8  1  0.075303  0.678104  0.222155  1
  Br  Br9  1  0.678104  0.222155  0.075303  1
  Br  Br10  1  0.222155  0.075303  0.678104  1
  Br  Br11  1  0.924697  0.321896  0.777845  1
  Br  Br12  1  0.321896  0.777845  0.924697  1
  Br  Br13  1  0.777845  0.924697  0.321896  1
  Br  Br14  1  0.445735  0.143627  0.367326  1
  Br  Br15  1  0.143627  0.367326  0.445735  1
  Br  Br16  1  0.367326  0.445735  0.143627  1
  Br  Br17  1  0.554265  0.856373  0.632674  1
  Br  Br18  1  0.856373  0.632674  0.554265  1
  Br  Br19  1  0.632674  0.554265  0.856373  1
