# generated using pymatgen
data_Tb7DyTi9Si16Mo3
_symmetry_space_group_name_H-M   'P 1'
_cell_length_a   7.02607132
_cell_length_b   7.02618861
_cell_length_c   12.91743608
_cell_angle_alpha   89.97663717
_cell_angle_beta   90.01941749
_cell_angle_gamma   89.99102684
_symmetry_Int_Tables_number   1
_chemical_formula_structural   Tb7DyTi9Si16Mo3
_chemical_formula_sum   'Tb7 Dy1 Ti9 Si16 Mo3'
_cell_volume   637.68854010
_cell_formula_units_Z   1
loop_
 _symmetry_equiv_pos_site_id
 _symmetry_equiv_pos_as_xyz
  1  'x, y, z'
loop_
 _atom_site_type_symbol
 _atom_site_label
 _atom_site_symmetry_multiplicity
 _atom_site_fract_x
 _atom_site_fract_y
 _atom_site_fract_z
 _atom_site_occupancy
  Tb  Tb0  1  0.997844  0.660237  0.033451  1
  Tb  Tb1  1  0.000583  0.340220  0.533084  1
  Tb  Tb2  1  0.660204  0.997843  0.966516  1
  Tb  Tb3  1  0.158592  0.501429  0.781835  1
  Tb  Tb4  1  0.840865  0.499594  0.283318  1
  Tb  Tb5  1  0.501379  0.158561  0.218196  1
  Tb  Tb6  1  0.499539  0.840902  0.716668  1
  Dy  Dy7  1  0.340392  0.000291  0.466858  1
  Ti  Ti8  1  0.346996  0.509402  0.374407  1
  Ti  Ti9  1  0.847253  0.990811  0.376435  1
  Ti  Ti10  1  0.008633  0.152014  0.124811  1
  Ti  Ti11  1  0.990815  0.847216  0.623554  1
  Ti  Ti12  1  0.509368  0.346970  0.625586  1
  Ti  Ti13  1  0.152026  0.008635  0.875165  1
  Ti  Ti14  1  0.326794  0.326741  0.999968  1
  Ti  Ti15  1  0.491538  0.653944  0.127489  1
  Ti  Ti16  1  0.653925  0.491521  0.872502  1
  Si  Si17  1  0.047266  0.709002  0.435019  1
  Si  Si18  1  0.951821  0.291548  0.934000  1
  Si  Si19  1  0.708586  0.047035  0.564939  1
  Si  Si20  1  0.209375  0.453392  0.184929  1
  Si  Si21  1  0.790941  0.547584  0.684572  1
  Si  Si22  1  0.453390  0.209367  0.815089  1
  Si  Si23  1  0.547397  0.791092  0.315547  1
  Si  Si24  1  0.291599  0.951817  0.065955  1
  Si  Si25  1  0.798522  0.870925  0.184919  1
  Si  Si26  1  0.299246  0.629894  0.565073  1
  Si  Si27  1  0.701968  0.370274  0.065013  1
  Si  Si28  1  0.629445  0.299043  0.434891  1
  Si  Si29  1  0.370268  0.701993  0.934956  1
  Si  Si30  1  0.129434  0.200785  0.314998  1
  Si  Si31  1  0.201010  0.129179  0.685092  1
  Si  Si32  1  0.870956  0.798551  0.815096  1
  Mo  Mo33  1  0.672939  0.673120  0.499987  1
  Mo  Mo34  1  0.825975  0.173036  0.749284  1
  Mo  Mo35  1  0.173112  0.826027  0.250800  1
