# generated using pymatgen
data_UPa3(CoB4)4
_symmetry_space_group_name_H-M   'P 1'
_cell_length_a   6.71990083
_cell_length_b   6.71989651
_cell_length_c   6.71990400
_cell_angle_alpha   113.59271418
_cell_angle_beta   113.59292136
_cell_angle_gamma   101.50957890
_symmetry_Int_Tables_number   1
_chemical_formula_structural   UPa3(CoB4)4
_chemical_formula_sum   'U1 Pa3 Co4 B16'
_cell_volume   230.28056954
_cell_formula_units_Z   1
loop_
 _symmetry_equiv_pos_site_id
 _symmetry_equiv_pos_as_xyz
  1  'x, y, z'
loop_
 _atom_site_type_symbol
 _atom_site_label
 _atom_site_symmetry_multiplicity
 _atom_site_fract_x
 _atom_site_fract_y
 _atom_site_fract_z
 _atom_site_occupancy
  U  U0  1  0.250021  0.750012  0.499991  1
  Pa  Pa1  1  0.202846  0.202843  0.999996  1
  Pa  Pa2  1  0.797173  0.797169  0.999994  1
  Pa  Pa3  1  0.749975  0.249962  0.499986  1
  Co  Co4  1  0.499702  0.270996  0.771295  1
  Co  Co5  1  0.499700  0.728378  0.228678  1
  Co  Co6  1  0.728997  0.500301  0.228720  1
  Co  Co7  1  0.271582  0.500301  0.771306  1
  B  B8  1  0.110990  0.275872  0.386138  1
  B  B9  1  0.889717  0.724857  0.613848  1
  B  B10  1  0.889733  0.275872  0.164882  1
  B  B11  1  0.111010  0.724857  0.835140  1
  B  B12  1  0.724138  0.889025  0.613879  1
  B  B13  1  0.275152  0.110266  0.386134  1
  B  B14  1  0.724132  0.110266  0.835113  1
  B  B15  1  0.275147  0.889025  0.164887  1
  B  B16  1  0.422150  0.424171  0.539783  1
  B  B17  1  0.884380  0.882370  0.460215  1
  B  B18  1  0.575823  0.115621  0.997990  1
  B  B19  1  0.117636  0.577837  0.002015  1
  B  B20  1  0.575822  0.577837  0.460202  1
  B  B21  1  0.117630  0.115621  0.539798  1
  B  B22  1  0.884388  0.424171  0.002021  1
  B  B23  1  0.422155  0.882370  0.997990  1
