# generated using pymatgen
data_Ho4ErSi12Ir19
_symmetry_space_group_name_H-M   'P 1'
_cell_length_a   12.82738500
_cell_length_b   12.82738551
_cell_length_c   3.97930300
_cell_angle_alpha   90.00000000
_cell_angle_beta   90.00000000
_cell_angle_gamma   120.00000641
_symmetry_Int_Tables_number   1
_chemical_formula_structural   Ho4ErSi12Ir19
_chemical_formula_sum   'Ho4 Er1 Si12 Ir19'
_cell_volume   567.04025336
_cell_formula_units_Z   1
loop_
 _symmetry_equiv_pos_site_id
 _symmetry_equiv_pos_as_xyz
  1  'x, y, z'
loop_
 _atom_site_type_symbol
 _atom_site_label
 _atom_site_symmetry_multiplicity
 _atom_site_fract_x
 _atom_site_fract_y
 _atom_site_fract_z
 _atom_site_occupancy
  Ho  Ho0  1  0.666667  0.333333  0.000000  1
  Ho  Ho1  1  0.814878  0.814874  0.500000  1
  Ho  Ho2  1  0.185126  0.000004  0.500000  1
  Ho  Ho3  1  0.999996  0.185122  0.500000  1
  Er  Er4  1  0.333333  0.666667  0.000000  1
  Si  Si5  1  0.688027  0.169001  0.500000  1
  Si  Si6  1  0.830999  0.519025  0.500000  1
  Si  Si7  1  0.480975  0.311973  0.500000  1
  Si  Si8  1  0.169110  0.688004  0.500000  1
  Si  Si9  1  0.518893  0.830890  0.500000  1
  Si  Si10  1  0.311996  0.481107  0.500000  1
  Si  Si11  1  0.632124  0.632116  0.000000  1
  Si  Si12  1  0.367884  0.000008  0.000000  1
  Si  Si13  1  0.999992  0.367876  0.000000  1
  Si  Si14  1  0.181087  0.181098  0.000000  1
  Si  Si15  1  0.818902  0.999989  0.000000  1
  Si  Si16  1  0.000011  0.818913  0.000000  1
  Ir  Ir17  1  0.806069  0.182544  0.000000  1
  Ir  Ir18  1  0.817456  0.623525  0.000000  1
  Ir  Ir19  1  0.376475  0.193931  0.000000  1
  Ir  Ir20  1  0.182601  0.806025  0.000000  1
  Ir  Ir21  1  0.623424  0.817399  0.000000  1
  Ir  Ir22  1  0.193975  0.376576  0.000000  1
  Ir  Ir23  1  0.447074  0.447063  0.000000  1
  Ir  Ir24  1  0.552937  0.000011  0.000000  1
  Ir  Ir25  1  0.999989  0.552926  0.000000  1
  Ir  Ir26  1  0.282648  0.282671  0.500000  1
  Ir  Ir27  1  0.717329  0.999977  0.500000  1
  Ir  Ir28  1  0.000023  0.717352  0.500000  1
  Ir  Ir29  1  0.873571  0.361621  0.500000  1
  Ir  Ir30  1  0.638379  0.511952  0.500000  1
  Ir  Ir31  1  0.488048  0.126429  0.500000  1
  Ir  Ir32  1  0.361613  0.873392  0.500000  1
  Ir  Ir33  1  0.511781  0.638387  0.500000  1
  Ir  Ir34  1  0.126608  0.488219  0.500000  1
  Ir  Ir35  1  0.000000  0.000000  0.000000  1
