# generated using pymatgen
data_Hf4TiZnRh10
_symmetry_space_group_name_H-M   'P 1'
_cell_length_a   4.13439200
_cell_length_b   5.54803710
_cell_length_c   10.93139310
_cell_angle_alpha   89.22233011
_cell_angle_beta   90.00000000
_cell_angle_gamma   90.00000000
_symmetry_Int_Tables_number   1
_chemical_formula_structural   Hf4TiZnRh10
_chemical_formula_sum   'Hf4 Ti1 Zn1 Rh10'
_cell_volume   250.71857767
_cell_formula_units_Z   1
loop_
 _symmetry_equiv_pos_site_id
 _symmetry_equiv_pos_as_xyz
  1  'x, y, z'
loop_
 _atom_site_type_symbol
 _atom_site_label
 _atom_site_symmetry_multiplicity
 _atom_site_fract_x
 _atom_site_fract_y
 _atom_site_fract_z
 _atom_site_occupancy
  Hf  Hf0  1  0.500000  0.187981  0.636026  1
  Hf  Hf1  1  0.500000  0.812019  0.363974  1
  Hf  Hf2  1  0.500000  0.670466  0.855711  1
  Hf  Hf3  1  0.500000  0.329534  0.144289  1
  Ti  Ti4  1  0.000000  0.000000  0.000000  1
  Zn  Zn5  1  0.000000  0.500000  0.500000  1
  Rh  Rh6  1  0.500000  0.181572  0.895613  1
  Rh  Rh7  1  0.500000  0.818428  0.104387  1
  Rh  Rh8  1  0.500000  0.697669  0.612250  1
  Rh  Rh9  1  0.500000  0.302331  0.387750  1
  Rh  Rh10  1  0.000000  0.430138  0.745991  1
  Rh  Rh11  1  0.000000  0.569862  0.254009  1
  Rh  Rh12  1  0.000000  0.000000  0.500000  1
  Rh  Rh13  1  0.000000  0.500000  0.000000  1
  Rh  Rh14  1  0.000000  0.071507  0.243131  1
  Rh  Rh15  1  0.000000  0.928493  0.756869  1
