# generated using pymatgen
data_SmDyFe6(CoB4)2
_symmetry_space_group_name_H-M   'P 1'
_cell_length_a   6.98154202
_cell_length_b   6.97102746
_cell_length_c   3.80653400
_cell_angle_alpha   90.00000000
_cell_angle_beta   90.00000000
_cell_angle_gamma   90.31806704
_symmetry_Int_Tables_number   1
_chemical_formula_structural   SmDyFe6(CoB4)2
_chemical_formula_sum   'Sm1 Dy1 Fe6 Co2 B8'
_cell_volume   185.25552596
_cell_formula_units_Z   1
loop_
 _symmetry_equiv_pos_site_id
 _symmetry_equiv_pos_as_xyz
  1  'x, y, z'
loop_
 _atom_site_type_symbol
 _atom_site_label
 _atom_site_symmetry_multiplicity
 _atom_site_fract_x
 _atom_site_fract_y
 _atom_site_fract_z
 _atom_site_occupancy
  Sm  Sm0  1  0.500000  0.500000  0.502676  1
  Dy  Dy1  1  0.000000  0.000000  0.002350  1
  Fe  Fe2  1  0.385152  0.131054  0.892941  1
  Fe  Fe3  1  0.614848  0.868946  0.892941  1
  Fe  Fe4  1  0.366015  0.885820  0.392963  1
  Fe  Fe5  1  0.633985  0.114180  0.392963  1
  Fe  Fe6  1  0.114105  0.366703  0.606805  1
  Fe  Fe7  1  0.885895  0.633297  0.606805  1
  Co  Co8  1  0.134578  0.615292  0.107920  1
  Co  Co9  1  0.865422  0.384708  0.107920  1
  B  B10  1  0.799262  0.668361  0.104134  1
  B  B11  1  0.200738  0.331639  0.104134  1
  B  B12  1  0.838248  0.294173  0.604773  1
  B  B13  1  0.161752  0.705827  0.604773  1
  B  B14  1  0.704055  0.835676  0.394131  1
  B  B15  1  0.295945  0.164324  0.394131  1
  B  B16  1  0.667088  0.194726  0.893820  1
  B  B17  1  0.332912  0.805274  0.893820  1
