# generated using pymatgen
data_Sr5CeP17Pd6
_symmetry_space_group_name_H-M   'P 1'
_cell_length_a   9.15985295
_cell_length_b   9.12372613
_cell_length_c   9.15985293
_cell_angle_alpha   109.90105942
_cell_angle_beta   108.77734207
_cell_angle_gamma   109.90105824
_symmetry_Int_Tables_number   1
_chemical_formula_structural   Sr5CeP17Pd6
_chemical_formula_sum   'Sr5 Ce1 P17 Pd6'
_cell_volume   588.02245633
_cell_formula_units_Z   1
loop_
 _symmetry_equiv_pos_site_id
 _symmetry_equiv_pos_as_xyz
  1  'x, y, z'
loop_
 _atom_site_type_symbol
 _atom_site_label
 _atom_site_symmetry_multiplicity
 _atom_site_fract_x
 _atom_site_fract_y
 _atom_site_fract_z
 _atom_site_occupancy
  Sr  Sr0  1  0.275895  0.000000  0.275895  1
  Sr  Sr1  1  0.001181  0.715122  0.716353  1
  Sr  Sr2  1  0.001230  0.284878  0.286059  1
  Sr  Sr3  1  0.716353  0.715122  0.001181  1
  Sr  Sr4  1  0.286059  0.284878  0.001230  1
  Ce  Ce5  1  0.730895  0.000000  0.730895  1
  P  P6  1  0.779692  0.784640  0.425478  1
  P  P7  1  0.640838  0.215360  0.995051  1
  P  P8  1  0.218333  0.637284  0.001137  1
  P  P9  1  0.364734  0.582638  0.364734  1
  P  P10  1  0.636929  0.000000  0.216013  1
  P  P11  1  0.001137  0.637284  0.218333  1
  P  P12  1  0.581049  0.362716  0.363853  1
  P  P13  1  0.425478  0.784640  0.779692  1
  P  P14  1  0.782096  0.417362  0.782096  1
  P  P15  1  0.216013  0.000000  0.636929  1
  P  P16  1  0.995051  0.215360  0.640838  1
  P  P17  1  0.363853  0.362716  0.581049  1
  P  P18  1  0.000187  0.000000  0.438647  1
  P  P19  1  0.438647  0.000000  0.000187  1
  P  P20  1  0.995622  0.430539  0.995622  1
  P  P21  1  0.565084  0.569461  0.565084  1
  P  P22  1  0.982867  0.000000  0.982867  1
  Pd  Pd23  1  0.250386  0.500000  0.750386  1
  Pd  Pd24  1  0.500207  0.752442  0.252237  1
  Pd  Pd25  1  0.499796  0.247558  0.747765  1
  Pd  Pd26  1  0.747765  0.247558  0.499796  1
  Pd  Pd27  1  0.252237  0.752442  0.500207  1
  Pd  Pd28  1  0.750386  0.500000  0.250386  1
