# generated using pymatgen
data_Nd16CdHg3Rh4
_symmetry_space_group_name_H-M   'P 1'
_cell_length_a   9.91585169
_cell_length_b   9.91585180
_cell_length_c   9.91585141
_cell_angle_alpha   60.22457708
_cell_angle_beta   60.22458152
_cell_angle_gamma   60.22457865
_symmetry_Int_Tables_number   1
_chemical_formula_structural   Nd16CdHg3Rh4
_chemical_formula_sum   'Nd16 Cd1 Hg3 Rh4'
_cell_volume   692.91129735
_cell_formula_units_Z   1
loop_
 _symmetry_equiv_pos_site_id
 _symmetry_equiv_pos_as_xyz
  1  'x, y, z'
loop_
 _atom_site_type_symbol
 _atom_site_label
 _atom_site_symmetry_multiplicity
 _atom_site_fract_x
 _atom_site_fract_y
 _atom_site_fract_z
 _atom_site_occupancy
  Nd  Nd0  1  0.300644  0.899596  0.899596  1
  Nd  Nd1  1  0.687367  0.312028  0.687367  1
  Nd  Nd2  1  0.311646  0.688252  0.311646  1
  Nd  Nd3  1  0.060376  0.440875  0.440875  1
  Nd  Nd4  1  0.688252  0.311646  0.311646  1
  Nd  Nd5  1  0.440875  0.060376  0.440875  1
  Nd  Nd6  1  0.440945  0.058818  0.058818  1
  Nd  Nd7  1  0.899905  0.899905  0.899905  1
  Nd  Nd8  1  0.058818  0.440945  0.058818  1
  Nd  Nd9  1  0.899596  0.300644  0.899596  1
  Nd  Nd10  1  0.312028  0.687367  0.687367  1
  Nd  Nd11  1  0.899596  0.899596  0.300644  1
  Nd  Nd12  1  0.440875  0.440875  0.060376  1
  Nd  Nd13  1  0.311646  0.311646  0.688252  1
  Nd  Nd14  1  0.687367  0.687367  0.312028  1
  Nd  Nd15  1  0.058818  0.058818  0.440945  1
  Cd  Cd16  1  0.671221  0.671221  0.671221  1
  Hg  Hg17  1  0.003129  0.664832  0.664832  1
  Hg  Hg18  1  0.664832  0.003129  0.664832  1
  Hg  Hg19  1  0.664832  0.664832  0.003129  1
  Rh  Rh20  1  0.106683  0.106683  0.675847  1
  Rh  Rh21  1  0.106683  0.675847  0.106683  1
  Rh  Rh22  1  0.108016  0.108016  0.108016  1
  Rh  Rh23  1  0.675847  0.106683  0.106683  1
