# generated using pymatgen
data_SrTb2Nd(Ir2O7)2
_symmetry_space_group_name_H-M   'P 1'
_cell_length_a   7.33156925
_cell_length_b   7.34812055
_cell_length_c   7.36361850
_cell_angle_alpha   60.12802194
_cell_angle_beta   60.14386532
_cell_angle_gamma   60.07447866
_symmetry_Int_Tables_number   1
_chemical_formula_structural   SrTb2Nd(Ir2O7)2
_chemical_formula_sum   'Sr1 Tb2 Nd1 Ir4 O14'
_cell_volume   281.24426117
_cell_formula_units_Z   1
loop_
 _symmetry_equiv_pos_site_id
 _symmetry_equiv_pos_as_xyz
  1  'x, y, z'
loop_
 _atom_site_type_symbol
 _atom_site_label
 _atom_site_symmetry_multiplicity
 _atom_site_fract_x
 _atom_site_fract_y
 _atom_site_fract_z
 _atom_site_occupancy
  Sr  Sr0  1  0.125000  0.625000  0.125000  1
  Tb  Tb1  1  0.625000  0.125000  0.125000  1
  Tb  Tb2  1  0.125000  0.125000  0.125000  1
  Nd  Nd3  1  0.125000  0.125000  0.625000  1
  Ir  Ir4  1  0.125000  0.625000  0.625000  1
  Ir  Ir5  1  0.625000  0.125000  0.625000  1
  Ir  Ir6  1  0.625000  0.625000  0.125000  1
  Ir  Ir7  1  0.625000  0.625000  0.625000  1
  O  O8  1  0.690001  0.718130  0.295280  1
  O  O9  1  0.294325  0.291739  0.713297  1
  O  O10  1  0.700639  0.291739  0.713297  1
  O  O11  1  0.296588  0.718130  0.295280  1
  O  O12  1  0.296356  0.710429  0.696859  1
  O  O13  1  0.706638  0.292455  0.294268  1
  O  O14  1  0.559999  0.531870  0.954720  1
  O  O15  1  0.955675  0.958261  0.536703  1
  O  O16  1  0.549361  0.958261  0.536703  1
  O  O17  1  0.953412  0.531870  0.954720  1
  O  O18  1  0.953644  0.539571  0.553141  1
  O  O19  1  0.543362  0.957545  0.955732  1
  O  O20  1  0.260139  0.231916  0.247804  1
  O  O21  1  0.989861  0.018084  0.002196  1
