# generated using pymatgen
data_Ta12Al4CuAu3N4
_symmetry_space_group_name_H-M   'P 1'
_cell_length_a   7.06018350
_cell_length_b   7.06018377
_cell_length_c   7.06018327
_cell_angle_alpha   90.11844671
_cell_angle_beta   90.11844934
_cell_angle_gamma   90.11844543
_symmetry_Int_Tables_number   1
_chemical_formula_structural   Ta12Al4CuAu3N4
_chemical_formula_sum   'Ta12 Al4 Cu1 Au3 N4'
_cell_volume   351.92099849
_cell_formula_units_Z   1
loop_
 _symmetry_equiv_pos_site_id
 _symmetry_equiv_pos_as_xyz
  1  'x, y, z'
loop_
 _atom_site_type_symbol
 _atom_site_label
 _atom_site_symmetry_multiplicity
 _atom_site_fract_x
 _atom_site_fract_y
 _atom_site_fract_z
 _atom_site_occupancy
  Ta  Ta0  1  0.785436  0.954878  0.379531  1
  Ta  Ta1  1  0.712179  0.041035  0.872258  1
  Ta  Ta2  1  0.213213  0.455855  0.124442  1
  Ta  Ta3  1  0.289427  0.544623  0.624372  1
  Ta  Ta4  1  0.954878  0.379531  0.785436  1
  Ta  Ta5  1  0.041035  0.872258  0.712179  1
  Ta  Ta6  1  0.455855  0.124442  0.213213  1
  Ta  Ta7  1  0.544623  0.624372  0.289427  1
  Ta  Ta8  1  0.379531  0.785436  0.954878  1
  Ta  Ta9  1  0.872258  0.712179  0.041035  1
  Ta  Ta10  1  0.124442  0.213213  0.455855  1
  Ta  Ta11  1  0.624372  0.289427  0.544623  1
  Al  Al12  1  0.574610  0.434062  0.921923  1
  Al  Al13  1  0.434062  0.921923  0.574610  1
  Al  Al14  1  0.921923  0.574610  0.434062  1
  Al  Al15  1  0.071559  0.071559  0.071559  1
  Cu  Cu16  1  0.678698  0.678698  0.678698  1
  Au  Au17  1  0.178856  0.820370  0.319988  1
  Au  Au18  1  0.319988  0.178856  0.820370  1
  Au  Au19  1  0.820370  0.319988  0.178856  1
  N  N20  1  0.878735  0.123814  0.623213  1
  N  N21  1  0.623213  0.878735  0.123814  1
  N  N22  1  0.123814  0.623213  0.878735  1
  N  N23  1  0.376924  0.376924  0.376924  1
