# generated using pymatgen
data_YHo2SnBRh6
_symmetry_space_group_name_H-M   'P 1'
_cell_length_a   5.81542700
_cell_length_b   5.81542680
_cell_length_c   13.83934100
_cell_angle_alpha   90.00000000
_cell_angle_beta   90.00000000
_cell_angle_gamma   120.00000681
_symmetry_Int_Tables_number   1
_chemical_formula_structural   YHo2SnBRh6
_chemical_formula_sum   'Y2 Ho4 Sn2 B2 Rh12'
_cell_volume   405.33043483
_cell_formula_units_Z   2
loop_
 _symmetry_equiv_pos_site_id
 _symmetry_equiv_pos_as_xyz
  1  'x, y, z'
loop_
 _atom_site_type_symbol
 _atom_site_label
 _atom_site_symmetry_multiplicity
 _atom_site_fract_x
 _atom_site_fract_y
 _atom_site_fract_z
 _atom_site_occupancy
  Y  Y0  1  0.000000  0.000000  0.750000  1
  Y  Y1  1  0.000000  0.000000  0.250000  1
  Ho  Ho2  1  0.333333  0.666667  0.411940  1
  Ho  Ho3  1  0.666667  0.333333  0.911940  1
  Ho  Ho4  1  0.666667  0.333333  0.588060  1
  Ho  Ho5  1  0.333333  0.666667  0.088060  1
  Sn  Sn6  1  0.333333  0.666667  0.750000  1
  Sn  Sn7  1  0.666667  0.333333  0.250000  1
  B  B8  1  0.000000  0.000000  0.500000  1
  B  B9  1  0.000000  0.000000  0.000000  1
  Rh  Rh10  1  0.344322  0.172162  0.413677  1
  Rh  Rh11  1  0.827838  0.172162  0.413677  1
  Rh  Rh12  1  0.827838  0.655678  0.413677  1
  Rh  Rh13  1  0.172162  0.344322  0.913677  1
  Rh  Rh14  1  0.655678  0.827838  0.586323  1
  Rh  Rh15  1  0.655678  0.827838  0.913677  1
  Rh  Rh16  1  0.344322  0.172162  0.086323  1
  Rh  Rh17  1  0.172162  0.344322  0.586323  1
  Rh  Rh18  1  0.172162  0.827838  0.586323  1
  Rh  Rh19  1  0.827838  0.172162  0.086323  1
  Rh  Rh20  1  0.827838  0.655678  0.086323  1
  Rh  Rh21  1  0.172162  0.827838  0.913677  1
