# generated using pymatgen
data_La4Dy3Ho3Ru4
_symmetry_space_group_name_H-M   'P 1'
_cell_length_a   6.50323224
_cell_length_b   7.24331494
_cell_length_c   8.79825187
_cell_angle_alpha   96.30664866
_cell_angle_beta   111.77753877
_cell_angle_gamma   90.03162972
_symmetry_Int_Tables_number   1
_chemical_formula_structural   La4Dy3Ho3Ru4
_chemical_formula_sum   'La4 Dy3 Ho3 Ru4'
_cell_volume   382.15081530
_cell_formula_units_Z   1
loop_
 _symmetry_equiv_pos_site_id
 _symmetry_equiv_pos_as_xyz
  1  'x, y, z'
loop_
 _atom_site_type_symbol
 _atom_site_label
 _atom_site_symmetry_multiplicity
 _atom_site_fract_x
 _atom_site_fract_y
 _atom_site_fract_z
 _atom_site_occupancy
  La  La0  1  0.978584  0.911387  0.193905  1
  La  La1  1  0.784317  0.588578  0.805673  1
  La  La2  1  0.021075  0.088793  0.806080  1
  La  La3  1  0.215819  0.411187  0.194435  1
  Dy  Dy4  1  0.636338  0.814950  0.430975  1
  Dy  Dy5  1  0.205609  0.684583  0.569134  1
  Dy  Dy6  1  0.363773  0.185099  0.568987  1
  Ho  Ho7  1  0.794430  0.315372  0.430741  1
  Ho  Ho8  1  0.425784  0.749883  0.999796  1
  Ho  Ho9  1  0.574296  0.250128  0.000312  1
  Ru  Ru10  1  0.825281  0.581101  0.224656  1
  Ru  Ru11  1  0.600557  0.919295  0.775772  1
  Ru  Ru12  1  0.174593  0.418820  0.775229  1
  Ru  Ru13  1  0.399544  0.080824  0.224303  1
