# generated using pymatgen
data_La3HoMg2Ir3
_symmetry_space_group_name_H-M   'P 1'
_cell_length_a   7.57210500
_cell_length_b   7.64412767
_cell_length_c   4.24646400
_cell_angle_alpha   90.00000000
_cell_angle_beta   90.00000000
_cell_angle_gamma   119.68880612
_symmetry_Int_Tables_number   1
_chemical_formula_structural   La3HoMg2Ir3
_chemical_formula_sum   'La3 Ho1 Mg2 Ir3'
_cell_volume   213.52856097
_cell_formula_units_Z   1
loop_
 _symmetry_equiv_pos_site_id
 _symmetry_equiv_pos_as_xyz
  1  'x, y, z'
loop_
 _atom_site_type_symbol
 _atom_site_label
 _atom_site_symmetry_multiplicity
 _atom_site_fract_x
 _atom_site_fract_y
 _atom_site_fract_z
 _atom_site_occupancy
  La  La0  1  0.397621  0.000000  0.500001  1
  La  La1  1  0.012636  0.432592  0.500001  1
  La  La2  1  0.580044  0.567409  0.500001  1
  Ho  Ho3  1  0.756366  0.000000  0.000000  1
  Mg  Mg4  1  0.242834  0.241598  0.000000  1
  Mg  Mg5  1  0.001237  0.758402  0.000000  1
  Ir  Ir6  1  0.670728  0.331579  0.000000  1
  Ir  Ir7  1  0.339149  0.668421  0.000000  1
  Ir  Ir8  1  0.999385  0.000000  0.500001  1
