# generated using pymatgen
data_ThSc6FeBr12
_symmetry_space_group_name_H-M   'P 1'
_cell_length_a   9.01442994
_cell_length_b   8.88686624
_cell_length_c   8.96440221
_cell_angle_alpha   106.81483070
_cell_angle_beta   107.40049607
_cell_angle_gamma   107.98918583
_symmetry_Int_Tables_number   1
_chemical_formula_structural   ThSc6FeBr12
_chemical_formula_sum   'Th1 Sc6 Fe1 Br12'
_cell_volume   591.35214628
_cell_formula_units_Z   1
loop_
 _symmetry_equiv_pos_site_id
 _symmetry_equiv_pos_as_xyz
  1  'x, y, z'
loop_
 _atom_site_type_symbol
 _atom_site_label
 _atom_site_symmetry_multiplicity
 _atom_site_fract_x
 _atom_site_fract_y
 _atom_site_fract_z
 _atom_site_occupancy
  Th  Th0  1  0.309908  0.104984  0.030392  1
  Sc  Sc1  1  0.092799  0.021123  0.296529  1
  Sc  Sc2  1  0.031435  0.303862  0.096875  1
  Sc  Sc3  1  0.726717  0.905201  0.973642  1
  Sc  Sc4  1  0.897195  0.975583  0.699417  1
  Sc  Sc5  1  0.969802  0.694782  0.901504  1
  Sc  Sc6  1  0.494476  0.499062  0.501834  1
  Fe  Fe7  1  0.012344  0.003664  0.999383  1
  Br  Br8  1  0.201587  0.061914  0.664735  1
  Br  Br9  1  0.064245  0.680473  0.214572  1
  Br  Br10  1  0.696964  0.216866  0.074919  1
  Br  Br11  1  0.780411  0.930526  0.307202  1
  Br  Br12  1  0.926700  0.315990  0.782732  1
  Br  Br13  1  0.300337  0.756887  0.916349  1
  Br  Br14  1  0.383605  0.485089  0.174958  1
  Br  Br15  1  0.453628  0.160499  0.403353  1
  Br  Br16  1  0.161129  0.382123  0.454375  1
  Br  Br17  1  0.619820  0.545258  0.838497  1
  Br  Br18  1  0.549879  0.841192  0.626713  1
  Br  Br19  1  0.827019  0.614922  0.542018  1
