# generated using pymatgen
data_Tb12Nd4Cd4OsPd3
_symmetry_space_group_name_H-M   'P 1'
_cell_length_a   9.82029697
_cell_length_b   9.82003694
_cell_length_c   9.82003676
_cell_angle_alpha   59.75963378
_cell_angle_beta   59.52163286
_cell_angle_gamma   59.52162826
_symmetry_Int_Tables_number   1
_chemical_formula_structural   Tb12Nd4Cd4OsPd3
_chemical_formula_sum   'Tb12 Nd4 Cd4 Os1 Pd3'
_cell_volume   663.55047991
_cell_formula_units_Z   1
loop_
 _symmetry_equiv_pos_site_id
 _symmetry_equiv_pos_as_xyz
  1  'x, y, z'
loop_
 _atom_site_type_symbol
 _atom_site_label
 _atom_site_symmetry_multiplicity
 _atom_site_fract_x
 _atom_site_fract_y
 _atom_site_fract_z
 _atom_site_occupancy
  Tb  Tb0  1  0.352467  0.353072  0.353072  1
  Tb  Tb1  1  0.348441  0.348249  0.950170  1
  Tb  Tb2  1  0.348441  0.950170  0.348249  1
  Tb  Tb3  1  0.949464  0.348679  0.348679  1
  Tb  Tb4  1  0.818127  0.187111  0.187111  1
  Tb  Tb5  1  0.186954  0.810832  0.810832  1
  Tb  Tb6  1  0.187761  0.817107  0.187726  1
  Tb  Tb7  1  0.810502  0.186000  0.810595  1
  Tb  Tb8  1  0.187761  0.187726  0.817107  1
  Tb  Tb9  1  0.810502  0.810595  0.186000  1
  Tb  Tb10  1  0.937523  0.561889  0.561889  1
  Tb  Tb11  1  0.553845  0.940951  0.940951  1
  Nd  Nd12  1  0.565330  0.934705  0.565768  1
  Nd  Nd13  1  0.937892  0.558170  0.936712  1
  Nd  Nd14  1  0.565330  0.565768  0.934705  1
  Nd  Nd15  1  0.937892  0.936712  0.558170  1
  Cd  Cd16  1  0.581670  0.578465  0.578465  1
  Cd  Cd17  1  0.578953  0.582492  0.257877  1
  Cd  Cd18  1  0.578953  0.257877  0.582492  1
  Cd  Cd19  1  0.257874  0.579397  0.579397  1
  Os  Os20  1  0.145454  0.142501  0.142501  1
  Pd  Pd21  1  0.143947  0.146258  0.571099  1
  Pd  Pd22  1  0.143947  0.571099  0.146258  1
  Pd  Pd23  1  0.570969  0.144176  0.144176  1
