# generated using pymatgen
data_Hf8CdCu8Hg3
_symmetry_space_group_name_H-M   'P 1'
_cell_length_a   7.16359200
_cell_length_b   7.16359200
_cell_length_c   6.79158200
_cell_angle_alpha   90.00000000
_cell_angle_beta   90.00000000
_cell_angle_gamma   90.00000000
_symmetry_Int_Tables_number   1
_chemical_formula_structural   Hf8CdCu8Hg3
_chemical_formula_sum   'Hf8 Cd1 Cu8 Hg3'
_cell_volume   348.52395540
_cell_formula_units_Z   1
loop_
 _symmetry_equiv_pos_site_id
 _symmetry_equiv_pos_as_xyz
  1  'x, y, z'
loop_
 _atom_site_type_symbol
 _atom_site_label
 _atom_site_symmetry_multiplicity
 _atom_site_fract_x
 _atom_site_fract_y
 _atom_site_fract_z
 _atom_site_occupancy
  Hf  Hf0  1  0.148850  0.148757  0.999669  1
  Hf  Hf1  1  0.851150  0.851243  0.999669  1
  Hf  Hf2  1  0.648757  0.351150  0.500331  1
  Hf  Hf3  1  0.351243  0.648850  0.500331  1
  Hf  Hf4  1  0.691221  0.306295  0.000042  1
  Hf  Hf5  1  0.308779  0.693705  0.000042  1
  Hf  Hf6  1  0.806295  0.808779  0.499958  1
  Hf  Hf7  1  0.193705  0.191221  0.499958  1
  Cd  Cd8  1  0.000000  0.500000  0.750000  1
  Cu  Cu9  1  0.375524  0.376584  0.203613  1
  Cu  Cu10  1  0.625424  0.622620  0.794682  1
  Cu  Cu11  1  0.624476  0.623416  0.203613  1
  Cu  Cu12  1  0.877380  0.125424  0.705318  1
  Cu  Cu13  1  0.876584  0.124476  0.296387  1
  Cu  Cu14  1  0.374576  0.377380  0.794682  1
  Cu  Cu15  1  0.123416  0.875524  0.296387  1
  Cu  Cu16  1  0.122620  0.874576  0.705318  1
  Hg  Hg17  1  0.500000  0.000000  0.250000  1
  Hg  Hg18  1  0.500000  0.000000  0.750000  1
  Hg  Hg19  1  0.000000  0.500000  0.250000  1
