# generated using pymatgen
data_MgScGaPt5
_symmetry_space_group_name_H-M   'P 1'
_cell_length_a   5.60762677
_cell_length_b   5.60762694
_cell_length_c   4.05554700
_cell_angle_alpha   90.00000000
_cell_angle_beta   90.00000000
_cell_angle_gamma   95.93657922
_symmetry_Int_Tables_number   1
_chemical_formula_structural   MgScGaPt5
_chemical_formula_sum   'Mg1 Sc1 Ga1 Pt5'
_cell_volume   126.84468041
_cell_formula_units_Z   1
loop_
 _symmetry_equiv_pos_site_id
 _symmetry_equiv_pos_as_xyz
  1  'x, y, z'
loop_
 _atom_site_type_symbol
 _atom_site_label
 _atom_site_symmetry_multiplicity
 _atom_site_fract_x
 _atom_site_fract_y
 _atom_site_fract_z
 _atom_site_occupancy
  Mg  Mg0  1  0.278206  0.721794  0.500000  1
  Sc  Sc1  1  0.720903  0.279097  0.500000  1
  Ga  Ga2  1  0.001079  0.998921  0.000000  1
  Pt  Pt3  1  0.500752  0.499248  0.000000  1
  Pt  Pt4  1  0.000473  0.501348  0.000000  1
  Pt  Pt5  1  0.498652  0.999527  0.000000  1
  Pt  Pt6  1  0.217941  0.218005  0.500000  1
  Pt  Pt7  1  0.781995  0.782059  0.500000  1
