# generated using pymatgen
data_Tb2PrBi(SO6)2
_symmetry_space_group_name_H-M   'P 1'
_cell_length_a   4.22942158
_cell_length_b   7.34319561
_cell_length_c   8.16155533
_cell_angle_alpha   106.16212541
_cell_angle_beta   90.58185598
_cell_angle_gamma   106.46661698
_symmetry_Int_Tables_number   1
_chemical_formula_structural   Tb2PrBi(SO6)2
_chemical_formula_sum   'Tb2 Pr1 Bi1 S2 O12'
_cell_volume   232.37996642
_cell_formula_units_Z   1
loop_
 _symmetry_equiv_pos_site_id
 _symmetry_equiv_pos_as_xyz
  1  'x, y, z'
loop_
 _atom_site_type_symbol
 _atom_site_label
 _atom_site_symmetry_multiplicity
 _atom_site_fract_x
 _atom_site_fract_y
 _atom_site_fract_z
 _atom_site_occupancy
  Tb  Tb0  1  0.329327  0.671860  0.416048  1
  Tb  Tb1  1  0.338344  0.670970  0.921052  1
  Pr  Pr2  1  0.657302  0.335376  0.084037  1
  Bi  Bi3  1  0.685180  0.361365  0.590699  1
  S  S4  1  0.938182  0.989790  0.750865  1
  S  S5  1  0.052344  0.990158  0.243518  1
  O  O6  1  0.769746  0.521194  0.876050  1
  O  O7  1  0.231914  0.504823  0.127047  1
  O  O8  1  0.277760  0.510076  0.627014  1
  O  O9  1  0.752302  0.523892  0.386189  1
  O  O10  1  0.727753  0.971964  0.596933  1
  O  O11  1  0.247347  0.978921  0.391054  1
  O  O12  1  0.725289  0.984908  0.896875  1
  O  O13  1  0.262000  0.981901  0.095535  1
  O  O14  1  0.202545  0.183574  0.801111  1
  O  O15  1  0.749124  0.816968  0.196192  1
  O  O16  1  0.077454  0.820347  0.714295  1
  O  O17  1  0.976087  0.181912  0.285488  1
