# generated using pymatgen
data_KYb(PrB12)2
_symmetry_space_group_name_H-M   'P 1'
_cell_length_a   7.18374317
_cell_length_b   7.18374286
_cell_length_c   5.89939700
_cell_angle_alpha   90.00000000
_cell_angle_beta   90.00000000
_cell_angle_gamma   109.30301154
_symmetry_Int_Tables_number   1
_chemical_formula_structural   KYb(PrB12)2
_chemical_formula_sum   'K1 Yb1 Pr2 B24'
_cell_volume   287.33042500
_cell_formula_units_Z   1
loop_
 _symmetry_equiv_pos_site_id
 _symmetry_equiv_pos_as_xyz
  1  'x, y, z'
loop_
 _atom_site_type_symbol
 _atom_site_label
 _atom_site_symmetry_multiplicity
 _atom_site_fract_x
 _atom_site_fract_y
 _atom_site_fract_z
 _atom_site_occupancy
  K  K0  1  0.000000  0.000000  0.000000  1
  Yb  Yb1  1  0.500000  0.500000  0.000000  1
  Pr  Pr2  1  0.751217  0.248783  0.500000  1
  Pr  Pr3  1  0.248783  0.751217  0.500000  1
  B  B4  1  0.176737  0.326033  0.649554  1
  B  B5  1  0.923844  0.574189  0.148216  1
  B  B6  1  0.673967  0.823263  0.649554  1
  B  B7  1  0.425811  0.076156  0.148216  1
  B  B8  1  0.176737  0.326033  0.350446  1
  B  B9  1  0.923844  0.574189  0.851784  1
  B  B10  1  0.673967  0.823263  0.350446  1
  B  B11  1  0.425811  0.076156  0.851784  1
  B  B12  1  0.400038  0.400038  0.500000  1
  B  B13  1  0.148957  0.649779  0.000000  1
  B  B14  1  0.898481  0.898481  0.500000  1
  B  B15  1  0.649779  0.148957  0.000000  1
  B  B16  1  0.326033  0.176737  0.649554  1
  B  B17  1  0.076156  0.425811  0.148216  1
  B  B18  1  0.823263  0.673967  0.649554  1
  B  B19  1  0.574189  0.923844  0.148216  1
  B  B20  1  0.101519  0.101519  0.500000  1
  B  B21  1  0.851043  0.350221  0.000000  1
  B  B22  1  0.599962  0.599962  0.500000  1
  B  B23  1  0.350221  0.851043  0.000000  1
  B  B24  1  0.326033  0.176737  0.350446  1
  B  B25  1  0.076156  0.425811  0.851784  1
  B  B26  1  0.823263  0.673967  0.350446  1
  B  B27  1  0.574189  0.923844  0.851784  1
