# generated using pymatgen
data_LaTh3Si7Ge
_symmetry_space_group_name_H-M   'P 1'
_cell_length_a   4.14166500
_cell_length_b   4.12497500
_cell_length_c   14.74319200
_cell_angle_alpha   90.00000000
_cell_angle_beta   90.00000000
_cell_angle_gamma   90.00000000
_symmetry_Int_Tables_number   1
_chemical_formula_structural   LaTh3Si7Ge
_chemical_formula_sum   'La1 Th3 Si7 Ge1'
_cell_volume   251.87659293
_cell_formula_units_Z   1
loop_
 _symmetry_equiv_pos_site_id
 _symmetry_equiv_pos_as_xyz
  1  'x, y, z'
loop_
 _atom_site_type_symbol
 _atom_site_label
 _atom_site_symmetry_multiplicity
 _atom_site_fract_x
 _atom_site_fract_y
 _atom_site_fract_z
 _atom_site_occupancy
  La  La0  1  0.500000  0.500000  0.004512  1
  Th  Th1  1  0.000000  0.000000  0.498040  1
  Th  Th2  1  0.500000  0.000000  0.742196  1
  Th  Th3  1  0.000000  0.500000  0.255554  1
  Si  Si4  1  0.500000  0.500000  0.417207  1
  Si  Si5  1  0.000000  0.500000  0.823176  1
  Si  Si6  1  0.500000  0.000000  0.336380  1
  Si  Si7  1  0.000000  0.000000  0.092650  1
  Si  Si8  1  0.500000  0.500000  0.581270  1
  Si  Si9  1  0.500000  0.000000  0.173370  1
  Si  Si10  1  0.000000  0.500000  0.660227  1
  Ge  Ge11  1  0.000000  0.000000  0.915418  1
