# generated using pymatgen
data_Cs4UInCl12
_symmetry_space_group_name_H-M   'P 1'
_cell_length_a   7.67744300
_cell_length_b   7.67744300
_cell_length_c   11.00209200
_cell_angle_alpha   90.00000000
_cell_angle_beta   90.00000000
_cell_angle_gamma   90.00000000
_symmetry_Int_Tables_number   1
_chemical_formula_structural   Cs4UInCl12
_chemical_formula_sum   'Cs4 U1 In1 Cl12'
_cell_volume   648.49775023
_cell_formula_units_Z   1
loop_
 _symmetry_equiv_pos_site_id
 _symmetry_equiv_pos_as_xyz
  1  'x, y, z'
loop_
 _atom_site_type_symbol
 _atom_site_label
 _atom_site_symmetry_multiplicity
 _atom_site_fract_x
 _atom_site_fract_y
 _atom_site_fract_z
 _atom_site_occupancy
  Cs  Cs0  1  0.500000  0.000000  0.787412  1
  Cs  Cs1  1  0.000000  0.500000  0.212588  1
  Cs  Cs2  1  0.500000  0.000000  0.212588  1
  Cs  Cs3  1  0.000000  0.500000  0.787412  1
  U  U4  1  0.500000  0.500000  0.500000  1
  In  In5  1  0.000000  0.000000  0.000000  1
  Cl  Cl6  1  0.000000  0.000000  0.767068  1
  Cl  Cl7  1  0.500000  0.500000  0.268607  1
  Cl  Cl8  1  0.733077  0.733077  0.500000  1
  Cl  Cl9  1  0.236583  0.236583  0.000000  1
  Cl  Cl10  1  0.733077  0.266923  0.500000  1
  Cl  Cl11  1  0.236583  0.763417  0.000000  1
  Cl  Cl12  1  0.000000  0.000000  0.232932  1
  Cl  Cl13  1  0.500000  0.500000  0.731393  1
  Cl  Cl14  1  0.266923  0.266923  0.500000  1
  Cl  Cl15  1  0.763417  0.763417  0.000000  1
  Cl  Cl16  1  0.266923  0.733077  0.500000  1
  Cl  Cl17  1  0.763417  0.236583  0.000000  1
