# generated using pymatgen
data_Er3Mg2ZnGe2Au
_symmetry_space_group_name_H-M   'P 1'
_cell_length_a   7.05201000
_cell_length_b   7.09717616
_cell_length_c   4.33897100
_cell_angle_alpha   90.00000000
_cell_angle_beta   90.00000000
_cell_angle_gamma   119.78970416
_symmetry_Int_Tables_number   1
_chemical_formula_structural   Er3Mg2ZnGe2Au
_chemical_formula_sum   'Er3 Mg2 Zn1 Ge2 Au1'
_cell_volume   188.46568784
_cell_formula_units_Z   1
loop_
 _symmetry_equiv_pos_site_id
 _symmetry_equiv_pos_as_xyz
  1  'x, y, z'
loop_
 _atom_site_type_symbol
 _atom_site_label
 _atom_site_symmetry_multiplicity
 _atom_site_fract_x
 _atom_site_fract_y
 _atom_site_fract_z
 _atom_site_occupancy
  Er  Er0  1  0.571963  0.000000  0.000000  1
  Er  Er1  1  0.001925  0.583127  0.000000  1
  Er  Er2  1  0.418799  0.416873  0.000000  1
  Mg  Mg3  1  0.002673  0.239472  0.500000  1
  Mg  Mg4  1  0.763200  0.760528  0.500000  1
  Zn  Zn5  1  0.247274  0.000000  0.500000  1
  Ge  Ge6  1  0.331838  0.671040  0.500000  1
  Ge  Ge7  1  0.660799  0.328960  0.500000  1
  Au  Au8  1  0.001529  0.000000  0.000000  1
