# generated using pymatgen
data_ErTh7(Ta3Si4)4
_symmetry_space_group_name_H-M   'P 1'
_cell_length_a   7.00708437
_cell_length_b   7.19567342
_cell_length_c   13.54918500
_cell_angle_alpha   90.11080666
_cell_angle_beta   89.87240855
_cell_angle_gamma   90.08546955
_symmetry_Int_Tables_number   1
_chemical_formula_structural   ErTh7(Ta3Si4)4
_chemical_formula_sum   'Er1 Th7 Ta12 Si16'
_cell_volume   683.15553973
_cell_formula_units_Z   1
loop_
 _symmetry_equiv_pos_site_id
 _symmetry_equiv_pos_as_xyz
  1  'x, y, z'
loop_
 _atom_site_type_symbol
 _atom_site_label
 _atom_site_symmetry_multiplicity
 _atom_site_fract_x
 _atom_site_fract_y
 _atom_site_fract_z
 _atom_site_occupancy
  Er  Er0  1  0.998298  0.828970  0.596684  1
  Th  Th1  1  0.500807  0.668767  0.594932  1
  Th  Th2  1  0.000033  0.830456  0.904105  1
  Th  Th3  1  0.501051  0.330529  0.095558  1
  Th  Th4  1  0.999083  0.170522  0.406018  1
  Th  Th5  1  0.498665  0.330355  0.406604  1
  Th  Th6  1  0.001014  0.169680  0.095471  1
  Th  Th7  1  0.499815  0.670116  0.902663  1
  Ta  Ta8  1  0.661874  0.172450  0.623684  1
  Ta  Ta9  1  0.161792  0.327264  0.873783  1
  Ta  Ta10  1  0.337718  0.827882  0.124935  1
  Ta  Ta11  1  0.836019  0.673334  0.376505  1
  Ta  Ta12  1  0.336164  0.828257  0.375993  1
  Ta  Ta13  1  0.837297  0.672165  0.125021  1
  Ta  Ta14  1  0.666171  0.169930  0.874077  1
  Ta  Ta15  1  0.164158  0.327896  0.624033  1
  Ta  Ta16  1  0.836982  0.489190  0.750120  1
  Ta  Ta17  1  0.337796  0.007085  0.748396  1
  Ta  Ta18  1  0.162626  0.509959  0.250873  1
  Ta  Ta19  1  0.662872  0.991359  0.251187  1
  Si  Si20  1  0.661570  0.957156  0.457735  1
  Si  Si21  1  0.161363  0.543380  0.043571  1
  Si  Si22  1  0.340296  0.044287  0.954915  1
  Si  Si23  1  0.843463  0.462868  0.545880  1
  Si  Si24  1  0.331635  0.037646  0.545461  1
  Si  Si25  1  0.838637  0.456309  0.955556  1
  Si  Si26  1  0.661088  0.956222  0.043774  1
  Si  Si27  1  0.158288  0.546982  0.458661  1
  Si  Si28  1  0.459078  0.368536  0.749569  1
  Si  Si29  1  0.960933  0.126755  0.746969  1
  Si  Si30  1  0.540979  0.630272  0.250991  1
  Si  Si31  1  0.040864  0.870365  0.250718  1
  Si  Si32  1  0.704161  0.882293  0.746524  1
  Si  Si33  1  0.196227  0.619817  0.746960  1
  Si  Si34  1  0.300564  0.116470  0.250789  1
  Si  Si35  1  0.800617  0.384478  0.251287  1
