# generated using pymatgen
data_Sc4V2CrOs5
_symmetry_space_group_name_H-M   'P 1'
_cell_length_a   5.06481700
_cell_length_b   5.18520355
_cell_length_c   8.61691100
_cell_angle_alpha   90.00000000
_cell_angle_beta   90.00000000
_cell_angle_gamma   119.75397638
_symmetry_Int_Tables_number   1
_chemical_formula_structural   Sc4V2CrOs5
_chemical_formula_sum   'Sc4 V2 Cr1 Os5'
_cell_volume   196.46406965
_cell_formula_units_Z   1
loop_
 _symmetry_equiv_pos_site_id
 _symmetry_equiv_pos_as_xyz
  1  'x, y, z'
loop_
 _atom_site_type_symbol
 _atom_site_label
 _atom_site_symmetry_multiplicity
 _atom_site_fract_x
 _atom_site_fract_y
 _atom_site_fract_z
 _atom_site_occupancy
  Sc  Sc0  1  0.336723  0.669830  0.436244  1
  Sc  Sc1  1  0.663440  0.329909  0.560039  1
  Sc  Sc2  1  0.663440  0.329909  0.939961  1
  Sc  Sc3  1  0.336723  0.669830  0.063756  1
  V  V4  1  0.168819  0.825634  0.750000  1
  V  V5  1  0.338693  0.169556  0.250000  1
  Cr  Cr6  1  0.171570  0.340306  0.750000  1
  Os  Os7  1  0.830630  0.659825  0.250000  1
  Os  Os8  1  0.638837  0.813540  0.750000  1
  Os  Os9  1  0.009643  0.008626  0.992464  1
  Os  Os10  1  0.831838  0.174410  0.250000  1
  Os  Os11  1  0.009643  0.008626  0.507536  1
