# generated using pymatgen
data_La12InTcNi5
_symmetry_space_group_name_H-M   'P 1'
_cell_length_a   8.87828911
_cell_length_b   8.87828972
_cell_length_c   8.87828900
_cell_angle_alpha   110.54375230
_cell_angle_beta   108.37916650
_cell_angle_gamma   109.49797317
_symmetry_Int_Tables_number   1
_chemical_formula_structural   La12InTcNi5
_chemical_formula_sum   'La12 In1 Tc1 Ni5'
_cell_volume   538.53133727
_cell_formula_units_Z   1
loop_
 _symmetry_equiv_pos_site_id
 _symmetry_equiv_pos_as_xyz
  1  'x, y, z'
loop_
 _atom_site_type_symbol
 _atom_site_label
 _atom_site_symmetry_multiplicity
 _atom_site_fract_x
 _atom_site_fract_y
 _atom_site_fract_z
 _atom_site_occupancy
  La  La0  1  0.820001  0.683717  0.507338  1
  La  La1  1  0.176379  0.312664  0.492662  1
  La  La2  1  0.176379  0.683717  0.863715  1
  La  La3  1  0.820001  0.312664  0.136285  1
  La  La4  1  0.697617  0.510615  0.812999  1
  La  La5  1  0.317232  0.503553  0.186320  1
  La  La6  1  0.697617  0.884619  0.187001  1
  La  La7  1  0.317232  0.130912  0.813680  1
  La  La8  1  0.503407  0.818563  0.684844  1
  La  La9  1  0.479282  0.186131  0.293151  1
  La  La10  1  0.133719  0.818563  0.315156  1
  La  La11  1  0.892981  0.186131  0.706849  1
  In  In12  1  0.998210  0.998210  0.000000  1
  Tc  Tc13  1  0.824492  0.324492  0.500000  1
  Ni  Ni14  1  0.118153  0.618153  0.500000  1
  Ni  Ni15  1  0.382171  0.503677  0.878493  1
  Ni  Ni16  1  0.625185  0.503677  0.121507  1
  Ni  Ni17  1  0.509971  0.887921  0.377952  1
  Ni  Ni18  1  0.509971  0.132019  0.622048  1
