# generated using pymatgen
data_Th2PbN2
_symmetry_space_group_name_H-M   'P 1'
_cell_length_a   7.88104468
_cell_length_b   7.88104489
_cell_length_c   7.88104470
_cell_angle_alpha   150.09663837
_cell_angle_beta   150.09663923
_cell_angle_gamma   42.79956249
_symmetry_Int_Tables_number   1
_chemical_formula_structural   Th2PbN2
_chemical_formula_sum   'Th2 Pb1 N2'
_cell_volume   121.35056940
_cell_formula_units_Z   1
loop_
 _symmetry_equiv_pos_site_id
 _symmetry_equiv_pos_as_xyz
  1  'x, y, z'
loop_
 _atom_site_type_symbol
 _atom_site_label
 _atom_site_symmetry_multiplicity
 _atom_site_fract_x
 _atom_site_fract_y
 _atom_site_fract_z
 _atom_site_occupancy
  Th  Th0  1  0.328247  0.328247  0.000000  1
  Th  Th1  1  0.671753  0.671753  0.000000  1
  Pb  Pb2  1  0.000000  0.000000  0.000000  1
  N  N3  1  0.250000  0.750000  0.500000  1
  N  N4  1  0.750000  0.250000  0.500000  1
