# generated using pymatgen
data_KRb15(ZrSe4)4
_symmetry_space_group_name_H-M   'P 1'
_cell_length_a   8.87403416
_cell_length_b   10.61336384
_cell_length_c   15.57018494
_cell_angle_alpha   89.79412121
_cell_angle_beta   89.86360081
_cell_angle_gamma   90.10631150
_symmetry_Int_Tables_number   1
_chemical_formula_structural   KRb15(ZrSe4)4
_chemical_formula_sum   'K1 Rb15 Zr4 Se16'
_cell_volume   1466.43605920
_cell_formula_units_Z   1
loop_
 _symmetry_equiv_pos_site_id
 _symmetry_equiv_pos_as_xyz
  1  'x, y, z'
loop_
 _atom_site_type_symbol
 _atom_site_label
 _atom_site_symmetry_multiplicity
 _atom_site_fract_x
 _atom_site_fract_y
 _atom_site_fract_z
 _atom_site_occupancy
  K  K0  1  0.346259  0.554834  0.224990  1
  Rb  Rb1  1  0.000131  0.999926  0.999964  1
  Rb  Rb2  1  0.499824  0.000007  0.499981  1
  Rb  Rb3  1  0.999793  0.500069  0.000390  1
  Rb  Rb4  1  0.500046  0.500141  0.499740  1
  Rb  Rb5  1  0.985669  0.749913  0.428024  1
  Rb  Rb6  1  0.485265  0.250293  0.071810  1
  Rb  Rb7  1  0.014774  0.250231  0.571581  1
  Rb  Rb8  1  0.514267  0.749912  0.928518  1
  Rb  Rb9  1  0.844464  0.055317  0.276666  1
  Rb  Rb10  1  0.344271  0.944161  0.223348  1
  Rb  Rb11  1  0.155466  0.555292  0.723302  1
  Rb  Rb12  1  0.655541  0.444526  0.776733  1
  Rb  Rb13  1  0.155640  0.944789  0.723319  1
  Rb  Rb14  1  0.655612  0.055252  0.776632  1
  Rb  Rb15  1  0.844752  0.444832  0.276666  1
  Zr  Zr16  1  0.755028  0.749913  0.667832  1
  Zr  Zr17  1  0.245625  0.250930  0.331569  1
  Zr  Zr18  1  0.744764  0.749234  0.168191  1
  Zr  Zr19  1  0.254950  0.249963  0.832148  1
  Se  Se20  1  0.966982  0.249932  0.824197  1
  Se  Se21  1  0.533392  0.250503  0.323764  1
  Se  Se22  1  0.467080  0.750035  0.675924  1
  Se  Se23  1  0.033619  0.747314  0.176205  1
  Se  Se24  1  0.652285  0.552233  0.092456  1
  Se  Se25  1  0.158470  0.449942  0.406980  1
  Se  Se26  1  0.343500  0.052054  0.909111  1
  Se  Se27  1  0.843684  0.948065  0.590786  1
  Se  Se28  1  0.343365  0.447624  0.908734  1
  Se  Se29  1  0.843611  0.552344  0.591021  1
  Se  Se30  1  0.657290  0.947450  0.091153  1
  Se  Se31  1  0.156270  0.052860  0.409005  1
  Se  Se32  1  0.629246  0.748699  0.319483  1
  Se  Se33  1  0.132559  0.251464  0.179967  1
  Se  Se34  1  0.368432  0.250160  0.680176  1
  Se  Se35  1  0.868073  0.749785  0.819637  1
