# generated using pymatgen
data_Tm2Si3Ni
_symmetry_space_group_name_H-M   'P 1'
_cell_length_a   7.91273000
_cell_length_b   7.91272983
_cell_length_c   7.91777700
_cell_angle_alpha   90.00000000
_cell_angle_beta   90.00000000
_cell_angle_gamma   120.00000070
_symmetry_Int_Tables_number   1
_chemical_formula_structural   Tm2Si3Ni
_chemical_formula_sum   'Tm8 Si12 Ni4'
_cell_volume   429.32539595
_cell_formula_units_Z   4
loop_
 _symmetry_equiv_pos_site_id
 _symmetry_equiv_pos_as_xyz
  1  'x, y, z'
loop_
 _atom_site_type_symbol
 _atom_site_label
 _atom_site_symmetry_multiplicity
 _atom_site_fract_x
 _atom_site_fract_y
 _atom_site_fract_z
 _atom_site_occupancy
  Tm  Tm0  1  0.501351  0.002702  0.250000  1
  Tm  Tm1  1  0.498649  0.997298  0.750000  1
  Tm  Tm2  1  0.997298  0.498649  0.250000  1
  Tm  Tm3  1  0.002702  0.501351  0.750000  1
  Tm  Tm4  1  0.501351  0.498649  0.250000  1
  Tm  Tm5  1  0.498649  0.501351  0.750000  1
  Tm  Tm6  1  0.000000  0.000000  0.250000  1
  Tm  Tm7  1  0.000000  0.000000  0.750000  1
  Si  Si8  1  0.170792  0.341584  0.001285  1
  Si  Si9  1  0.829208  0.658416  0.998715  1
  Si  Si10  1  0.658416  0.829208  0.001285  1
  Si  Si11  1  0.829208  0.658416  0.501285  1
  Si  Si12  1  0.341584  0.170792  0.998715  1
  Si  Si13  1  0.170792  0.341584  0.498715  1
  Si  Si14  1  0.170792  0.829208  0.001285  1
  Si  Si15  1  0.341584  0.170792  0.501285  1
  Si  Si16  1  0.829208  0.170792  0.998715  1
  Si  Si17  1  0.658416  0.829208  0.498715  1
  Si  Si18  1  0.829208  0.170792  0.501285  1
  Si  Si19  1  0.170792  0.829208  0.498715  1
  Ni  Ni20  1  0.333333  0.666667  0.004538  1
  Ni  Ni21  1  0.666667  0.333333  0.995462  1
  Ni  Ni22  1  0.666667  0.333333  0.504538  1
  Ni  Ni23  1  0.333333  0.666667  0.495462  1
