# generated using pymatgen
data_Na2Cd(Si2O5)2
_symmetry_space_group_name_H-M   'P 1'
_cell_length_a   7.06737983
_cell_length_b   8.04702535
_cell_length_c   10.13950950
_cell_angle_alpha   101.81598023
_cell_angle_beta   101.81197966
_cell_angle_gamma   115.83628732
_symmetry_Int_Tables_number   1
_chemical_formula_structural   Na2Cd(Si2O5)2
_chemical_formula_sum   'Na4 Cd2 Si8 O20'
_cell_volume   478.89913706
_cell_formula_units_Z   2
loop_
 _symmetry_equiv_pos_site_id
 _symmetry_equiv_pos_as_xyz
  1  'x, y, z'
loop_
 _atom_site_type_symbol
 _atom_site_label
 _atom_site_symmetry_multiplicity
 _atom_site_fract_x
 _atom_site_fract_y
 _atom_site_fract_z
 _atom_site_occupancy
  Na  Na0  1  0.656348  0.772694  0.982968  1
  Na  Na1  1  0.736270  0.276450  0.421721  1
  Na  Na2  1  0.263730  0.723550  0.578279  1
  Na  Na3  1  0.343652  0.227306  0.017032  1
  Cd  Cd4  1  0.764188  0.708690  0.580337  1
  Cd  Cd5  1  0.235812  0.291310  0.419663  1
  Si  Si6  1  0.097858  0.711628  0.862504  1
  Si  Si7  1  0.902142  0.288372  0.137496  1
  Si  Si8  1  0.237804  0.921304  0.188657  1
  Si  Si9  1  0.762196  0.078696  0.811343  1
  Si  Si10  1  0.387405  0.628126  0.255993  1
  Si  Si11  1  0.183958  0.380466  0.757306  1
  Si  Si12  1  0.816042  0.619534  0.242694  1
  Si  Si13  1  0.612595  0.371874  0.744007  1
  O  O14  1  0.982854  0.793659  0.191699  1
  O  O15  1  0.017146  0.206341  0.808301  1
  O  O16  1  0.846964  0.559088  0.862026  1
  O  O17  1  0.153036  0.440912  0.137974  1
  O  O18  1  0.578377  0.620424  0.187431  1
  O  O19  1  0.421623  0.379576  0.812569  1
  O  O20  1  0.244026  0.595825  0.866093  1
  O  O21  1  0.755974  0.404175  0.133907  1
  O  O22  1  0.904559  0.643449  0.407501  1
  O  O23  1  0.095441  0.356551  0.592499  1
  O  O24  1  0.423622  0.612279  0.413939  1
  O  O25  1  0.576378  0.387721  0.586061  1
  O  O26  1  0.094581  0.797776  0.734682  1
  O  O27  1  0.905419  0.202224  0.265318  1
  O  O28  1  0.783574  0.109871  0.981933  1
  O  O29  1  0.216426  0.890129  0.018067  1
  O  O30  1  0.608285  0.166367  0.744139  1
  O  O31  1  0.391715  0.833633  0.255861  1
  O  O32  1  0.353218  0.151852  0.267099  1
  O  O33  1  0.646782  0.848148  0.732901  1
