# generated using pymatgen
data_Cs2Ce2CdNiSe6
_symmetry_space_group_name_H-M   'P 1'
_cell_length_a   4.30663600
_cell_length_b   8.31595090
_cell_length_c   11.20604400
_cell_angle_alpha   90.00000000
_cell_angle_beta   90.00000000
_cell_angle_gamma   74.99292739
_symmetry_Int_Tables_number   1
_chemical_formula_structural   Cs2Ce2CdNiSe6
_chemical_formula_sum   'Cs2 Ce2 Cd1 Ni1 Se6'
_cell_volume   387.64288422
_cell_formula_units_Z   1
loop_
 _symmetry_equiv_pos_site_id
 _symmetry_equiv_pos_as_xyz
  1  'x, y, z'
loop_
 _atom_site_type_symbol
 _atom_site_label
 _atom_site_symmetry_multiplicity
 _atom_site_fract_x
 _atom_site_fract_y
 _atom_site_fract_z
 _atom_site_occupancy
  Cs  Cs0  1  0.257226  0.485546  0.250000  1
  Cs  Cs1  1  0.742965  0.514067  0.750000  1
  Ce  Ce2  1  0.002878  0.994244  0.011620  1
  Ce  Ce3  1  0.002878  0.994244  0.488380  1
  Cd  Cd4  1  0.461142  0.077716  0.750000  1
  Ni  Ni5  1  0.531483  0.937033  0.250000  1
  Se  Se6  1  0.613475  0.773047  0.068810  1
  Se  Se7  1  0.951529  0.096941  0.250000  1
  Se  Se8  1  0.613475  0.773047  0.431190  1
  Se  Se9  1  0.380145  0.239709  0.546882  1
  Se  Se10  1  0.062651  0.874697  0.750000  1
  Se  Se11  1  0.380145  0.239709  0.953118  1
