# generated using pymatgen
data_Er5OsRuC7
_symmetry_space_group_name_H-M   'P 1'
_cell_length_a   8.10497047
_cell_length_b   8.10497131
_cell_length_c   3.48460000
_cell_angle_alpha   90.00000000
_cell_angle_beta   90.00000000
_cell_angle_gamma   121.65794965
_symmetry_Int_Tables_number   1
_chemical_formula_structural   Er5OsRuC7
_chemical_formula_sum   'Er5 Os1 Ru1 C7'
_cell_volume   194.84339885
_cell_formula_units_Z   1
loop_
 _symmetry_equiv_pos_site_id
 _symmetry_equiv_pos_as_xyz
  1  'x, y, z'
loop_
 _atom_site_type_symbol
 _atom_site_label
 _atom_site_symmetry_multiplicity
 _atom_site_fract_x
 _atom_site_fract_y
 _atom_site_fract_z
 _atom_site_occupancy
  Er  Er0  1  0.500038  0.499962  0.000000  1
  Er  Er1  1  0.078065  0.339621  0.500000  1
  Er  Er2  1  0.922744  0.662560  0.500000  1
  Er  Er3  1  0.660379  0.921935  0.500000  1
  Er  Er4  1  0.337440  0.077256  0.500000  1
  Os  Os5  1  0.713736  0.286264  0.000000  1
  Ru  Ru6  1  0.286465  0.713535  0.000000  1
  C  C7  1  0.630922  0.369078  0.500000  1
  C  C8  1  0.371732  0.628268  0.500000  1
  C  C9  1  0.000107  0.999893  0.000000  1
  C  C10  1  0.171789  0.172483  0.000000  1
  C  C11  1  0.827517  0.828211  0.000000  1
  C  C12  1  0.997791  0.498725  0.000000  1
  C  C13  1  0.501275  0.002209  0.000000  1
