# generated using pymatgen
data_Er5In4PdAu
_symmetry_space_group_name_H-M   'P 1'
_cell_length_a   3.62055900
_cell_length_b   8.14155012
_cell_length_c   18.24960928
_cell_angle_alpha   90.01985388
_cell_angle_beta   90.00000000
_cell_angle_gamma   90.00000000
_symmetry_Int_Tables_number   1
_chemical_formula_structural   Er5In4PdAu
_chemical_formula_sum   'Er10 In8 Pd2 Au2'
_cell_volume   537.94301717
_cell_formula_units_Z   2
loop_
 _symmetry_equiv_pos_site_id
 _symmetry_equiv_pos_as_xyz
  1  'x, y, z'
loop_
 _atom_site_type_symbol
 _atom_site_label
 _atom_site_symmetry_multiplicity
 _atom_site_fract_x
 _atom_site_fract_y
 _atom_site_fract_z
 _atom_site_occupancy
  Er  Er0  1  0.000000  0.500000  0.500000  1
  Er  Er1  1  0.000000  0.000000  0.000000  1
  Er  Er2  1  0.000000  0.745887  0.282193  1
  Er  Er3  1  0.000000  0.254113  0.717807  1
  Er  Er4  1  0.000000  0.767791  0.779286  1
  Er  Er5  1  0.000000  0.232209  0.220714  1
  Er  Er6  1  0.000000  0.618119  0.080035  1
  Er  Er7  1  0.000000  0.381881  0.919965  1
  Er  Er8  1  0.000000  0.886287  0.582473  1
  Er  Er9  1  0.000000  0.113713  0.417527  1
  In  In10  1  0.500000  0.713183  0.932414  1
  In  In11  1  0.500000  0.286817  0.067586  1
  In  In12  1  0.500000  0.788869  0.432507  1
  In  In13  1  0.500000  0.211131  0.567493  1
  In  In14  1  0.500000  0.583757  0.647036  1
  In  In15  1  0.500000  0.416243  0.352964  1
  In  In16  1  0.500000  0.920595  0.148371  1
  In  In17  1  0.500000  0.079405  0.851629  1
  Pd  Pd18  1  0.500000  0.975260  0.696099  1
  Pd  Pd19  1  0.500000  0.024740  0.303901  1
  Au  Au20  1  0.500000  0.525404  0.196991  1
  Au  Au21  1  0.500000  0.474596  0.803009  1
