# generated using pymatgen
data_PrNd3Al18HgIr5
_symmetry_space_group_name_H-M   'P 1'
_cell_length_a   7.67373805
_cell_length_b   7.67364205
_cell_length_c   9.63394915
_cell_angle_alpha   89.84403037
_cell_angle_beta   89.83517456
_cell_angle_gamma   119.24874560
_symmetry_Int_Tables_number   1
_chemical_formula_structural   PrNd3Al18HgIr5
_chemical_formula_sum   'Pr1 Nd3 Al18 Hg1 Ir5'
_cell_volume   494.96554987
_cell_formula_units_Z   1
loop_
 _symmetry_equiv_pos_site_id
 _symmetry_equiv_pos_as_xyz
  1  'x, y, z'
loop_
 _atom_site_type_symbol
 _atom_site_label
 _atom_site_symmetry_multiplicity
 _atom_site_fract_x
 _atom_site_fract_y
 _atom_site_fract_z
 _atom_site_occupancy
  Pr  Pr0  1  0.322008  0.003445  0.749868  1
  Nd  Nd1  1  0.996573  0.677992  0.250192  1
  Nd  Nd2  1  0.003408  0.322054  0.749797  1
  Nd  Nd3  1  0.678004  0.996564  0.250207  1
  Al  Al4  1  0.144730  0.144764  0.263310  1
  Al  Al5  1  0.854950  0.855154  0.736662  1
  Al  Al6  1  0.005926  0.352600  0.079385  1
  Al  Al7  1  0.993812  0.647100  0.920773  1
  Al  Al8  1  0.999178  0.662193  0.569742  1
  Al  Al9  1  0.337562  0.000578  0.429848  1
  Al  Al10  1  0.000563  0.337543  0.430089  1
  Al  Al11  1  0.662689  0.999435  0.569749  1
  Al  Al12  1  0.647648  0.994048  0.920811  1
  Al  Al13  1  0.352651  0.005952  0.079570  1
  Al  Al14  1  0.333598  0.333808  0.545198  1
  Al  Al15  1  0.666415  0.666416  0.454600  1
  Al  Al16  1  0.649398  0.649395  0.061632  1
  Al  Al17  1  0.350639  0.350857  0.938562  1
  Al  Al18  1  0.339731  0.552027  0.252651  1
  Al  Al19  1  0.660536  0.448319  0.747348  1
  Al  Al20  1  0.552040  0.339744  0.252652  1
  Al  Al21  1  0.448053  0.660053  0.747344  1
  Hg  Hg22  1  0.999882  0.000000  0.000108  1
  Ir  Ir23  1  0.671330  0.328833  0.000097  1
  Ir  Ir24  1  0.328748  0.671144  0.000104  1
  Ir  Ir25  1  0.329284  0.670635  0.499907  1
  Ir  Ir26  1  0.670802  0.329374  0.499906  1
  Ir  Ir27  1  0.999843  0.999973  0.499889  1
