# generated using pymatgen
data_Zr6Ta4Al12CoIr6
_symmetry_space_group_name_H-M   'P 1'
_cell_length_a   8.81308259
_cell_length_b   8.81308398
_cell_length_c   8.81308300
_cell_angle_alpha   59.99999992
_cell_angle_beta   59.99999470
_cell_angle_gamma   59.99999951
_symmetry_Int_Tables_number   1
_chemical_formula_structural   Zr6Ta4Al12CoIr6
_chemical_formula_sum   'Zr6 Ta4 Al12 Co1 Ir6'
_cell_volume   484.02588928
_cell_formula_units_Z   1
loop_
 _symmetry_equiv_pos_site_id
 _symmetry_equiv_pos_as_xyz
  1  'x, y, z'
loop_
 _atom_site_type_symbol
 _atom_site_label
 _atom_site_symmetry_multiplicity
 _atom_site_fract_x
 _atom_site_fract_y
 _atom_site_fract_z
 _atom_site_occupancy
  Zr  Zr0  1  0.689061  0.689061  0.310939  1
  Zr  Zr1  1  0.310939  0.689061  0.310939  1
  Zr  Zr2  1  0.689061  0.310939  0.310939  1
  Zr  Zr3  1  0.310939  0.310939  0.689061  1
  Zr  Zr4  1  0.689061  0.310939  0.689061  1
  Zr  Zr5  1  0.310939  0.689061  0.689061  1
  Ta  Ta6  1  0.883008  0.883008  0.350978  1
  Ta  Ta7  1  0.883008  0.350978  0.883008  1
  Ta  Ta8  1  0.350978  0.883008  0.883008  1
  Ta  Ta9  1  0.883008  0.883008  0.883008  1
  Al  Al10  1  0.120153  0.120153  0.639540  1
  Al  Al11  1  0.120153  0.639540  0.120153  1
  Al  Al12  1  0.639540  0.120153  0.120153  1
  Al  Al13  1  0.120153  0.120153  0.120153  1
  Al  Al14  1  0.660630  0.660630  0.018110  1
  Al  Al15  1  0.660630  0.018110  0.660630  1
  Al  Al16  1  0.018110  0.660630  0.660630  1
  Al  Al17  1  0.660630  0.660630  0.660630  1
  Al  Al18  1  0.337907  0.337907  0.986280  1
  Al  Al19  1  0.337907  0.986280  0.337907  1
  Al  Al20  1  0.986280  0.337907  0.337907  1
  Al  Al21  1  0.337907  0.337907  0.337907  1
  Co  Co22  1  0.000000  0.000000  0.000000  1
  Ir  Ir23  1  0.997214  0.997214  0.502786  1
  Ir  Ir24  1  0.502786  0.997214  0.502786  1
  Ir  Ir25  1  0.997214  0.502786  0.502786  1
  Ir  Ir26  1  0.502786  0.502786  0.997214  1
  Ir  Ir27  1  0.997214  0.502786  0.997214  1
  Ir  Ir28  1  0.502786  0.997214  0.997214  1
