# generated using pymatgen
data_Cs8Na4Dy3ErSb8
_symmetry_space_group_name_H-M   'P 1'
_cell_length_a   11.63888263
_cell_length_b   11.63888105
_cell_length_c   7.58509919
_cell_angle_alpha   89.98051984
_cell_angle_beta   90.01948157
_cell_angle_gamma   99.78065728
_symmetry_Int_Tables_number   1
_chemical_formula_structural   Cs8Na4Dy3ErSb8
_chemical_formula_sum   'Cs8 Na4 Dy3 Er1 Sb8'
_cell_volume   1012.57005098
_cell_formula_units_Z   1
loop_
 _symmetry_equiv_pos_site_id
 _symmetry_equiv_pos_as_xyz
  1  'x, y, z'
loop_
 _atom_site_type_symbol
 _atom_site_label
 _atom_site_symmetry_multiplicity
 _atom_site_fract_x
 _atom_site_fract_y
 _atom_site_fract_z
 _atom_site_occupancy
  Cs  Cs0  1  0.070397  0.429501  0.249941  1
  Cs  Cs1  1  0.429501  0.070397  0.750059  1
  Cs  Cs2  1  0.929605  0.570413  0.750035  1
  Cs  Cs3  1  0.570413  0.929605  0.249965  1
  Cs  Cs4  1  0.677317  0.322666  0.212662  1
  Cs  Cs5  1  0.822767  0.177305  0.712738  1
  Cs  Cs6  1  0.322666  0.677317  0.787338  1
  Cs  Cs7  1  0.177305  0.822767  0.287262  1
  Na  Na8  1  0.382074  0.382074  0.000000  1
  Na  Na9  1  0.117818  0.117818  0.500000  1
  Na  Na10  1  0.617804  0.617804  0.000000  1
  Na  Na11  1  0.882210  0.882210  0.500000  1
  Dy  Dy12  1  0.369050  0.369050  0.500000  1
  Dy  Dy13  1  0.869367  0.869367  0.000000  1
  Dy  Dy14  1  0.630901  0.630901  0.500000  1
  Er  Er15  1  0.130767  0.130767  0.000000  1
  Sb  Sb16  1  0.842091  0.657872  0.250034  1
  Sb  Sb17  1  0.657872  0.842091  0.749966  1
  Sb  Sb18  1  0.157846  0.341294  0.750958  1
  Sb  Sb19  1  0.341294  0.157846  0.249042  1
  Sb  Sb20  1  0.905297  0.095701  0.210303  1
  Sb  Sb21  1  0.595482  0.404455  0.710985  1
  Sb  Sb22  1  0.095701  0.905297  0.789697  1
  Sb  Sb23  1  0.404455  0.595482  0.289015  1
