# generated using pymatgen
data_Ac(SiPd)6
_symmetry_space_group_name_H-M   'P 1'
_cell_length_a   8.47728755
_cell_length_b   8.47728837
_cell_length_c   8.47728763
_cell_angle_alpha   121.29838016
_cell_angle_beta   120.51220108
_cell_angle_gamma   88.44040592
_symmetry_Int_Tables_number   1
_chemical_formula_structural   Ac(SiPd)6
_chemical_formula_sum   'Ac2 Si12 Pd12'
_cell_volume   424.68907042
_cell_formula_units_Z   2
loop_
 _symmetry_equiv_pos_site_id
 _symmetry_equiv_pos_as_xyz
  1  'x, y, z'
loop_
 _atom_site_type_symbol
 _atom_site_label
 _atom_site_symmetry_multiplicity
 _atom_site_fract_x
 _atom_site_fract_y
 _atom_site_fract_z
 _atom_site_occupancy
  Ac  Ac0  1  0.250000  0.250000  0.000000  1
  Ac  Ac1  1  0.750000  0.750000  0.000000  1
  Si  Si2  1  0.042174  0.218733  0.494653  1
  Si  Si3  1  0.724080  0.547522  0.505347  1
  Si  Si4  1  0.224080  0.718733  0.176559  1
  Si  Si5  1  0.542174  0.047522  0.823441  1
  Si  Si6  1  0.957826  0.781267  0.505347  1
  Si  Si7  1  0.275920  0.452478  0.494653  1
  Si  Si8  1  0.775920  0.281267  0.823441  1
  Si  Si9  1  0.457826  0.952479  0.176559  1
  Si  Si10  1  0.732923  0.443603  0.176525  1
  Si  Si11  1  0.267077  0.556397  0.823475  1
  Si  Si12  1  0.767077  0.943603  0.710681  1
  Si  Si13  1  0.232923  0.056397  0.289319  1
  Pd  Pd14  1  0.462283  0.685757  0.504502  1
  Pd  Pd15  1  0.181256  0.957781  0.495498  1
  Pd  Pd16  1  0.681256  0.185757  0.223476  1
  Pd  Pd17  1  0.962283  0.457781  0.776524  1
  Pd  Pd18  1  0.537717  0.314243  0.495498  1
  Pd  Pd19  1  0.818744  0.042219  0.504502  1
  Pd  Pd20  1  0.318744  0.814243  0.776524  1
  Pd  Pd21  1  0.037717  0.542219  0.223476  1
  Pd  Pd22  1  0.529975  0.679265  0.209240  1
  Pd  Pd23  1  0.470025  0.320735  0.790760  1
  Pd  Pd24  1  0.029975  0.820735  0.850711  1
  Pd  Pd25  1  0.970025  0.179265  0.149289  1
