# generated using pymatgen
data_HoAl7Cu3
_symmetry_space_group_name_H-M   'P 1'
_cell_length_a   8.18283315
_cell_length_b   8.18283322
_cell_length_c   8.18283348
_cell_angle_alpha   56.87450342
_cell_angle_beta   56.87450514
_cell_angle_gamma   56.87450586
_symmetry_Int_Tables_number   1
_chemical_formula_structural   HoAl7Cu3
_chemical_formula_sum   'Ho2 Al14 Cu6'
_cell_volume   359.49430504
_cell_formula_units_Z   2
loop_
 _symmetry_equiv_pos_site_id
 _symmetry_equiv_pos_as_xyz
  1  'x, y, z'
loop_
 _atom_site_type_symbol
 _atom_site_label
 _atom_site_symmetry_multiplicity
 _atom_site_fract_x
 _atom_site_fract_y
 _atom_site_fract_z
 _atom_site_occupancy
  Ho  Ho0  1  0.000000  0.000000  0.000000  1
  Ho  Ho1  1  0.500000  0.500000  0.500000  1
  Al  Al2  1  0.922254  0.148453  0.339295  1
  Al  Al3  1  0.339295  0.922254  0.148453  1
  Al  Al4  1  0.148453  0.339295  0.922254  1
  Al  Al5  1  0.577746  0.160705  0.351547  1
  Al  Al6  1  0.351547  0.577746  0.160705  1
  Al  Al7  1  0.160705  0.351547  0.577746  1
  Al  Al8  1  0.077746  0.851547  0.660705  1
  Al  Al9  1  0.660705  0.077746  0.851547  1
  Al  Al10  1  0.750000  0.750000  0.750000  1
  Al  Al11  1  0.250000  0.250000  0.250000  1
  Al  Al12  1  0.839295  0.648453  0.422254  1
  Al  Al13  1  0.648453  0.422254  0.839295  1
  Al  Al14  1  0.422254  0.839295  0.648453  1
  Al  Al15  1  0.851547  0.660705  0.077746  1
  Cu  Cu16  1  0.250000  0.574017  0.925983  1
  Cu  Cu17  1  0.925983  0.250000  0.574017  1
  Cu  Cu18  1  0.574017  0.925983  0.250000  1
  Cu  Cu19  1  0.750000  0.425983  0.074017  1
  Cu  Cu20  1  0.074017  0.750000  0.425983  1
  Cu  Cu21  1  0.425983  0.074017  0.750000  1
