# generated using pymatgen
data_CeTm5OsO12
_symmetry_space_group_name_H-M   'P 1'
_cell_length_a   6.42180252
_cell_length_b   6.40596562
_cell_length_c   6.41429204
_cell_angle_alpha   98.81045372
_cell_angle_beta   98.96862804
_cell_angle_gamma   98.87613246
_symmetry_Int_Tables_number   1
_chemical_formula_structural   CeTm5OsO12
_chemical_formula_sum   'Ce1 Tm5 Os1 O12'
_cell_volume   253.24121087
_cell_formula_units_Z   1
loop_
 _symmetry_equiv_pos_site_id
 _symmetry_equiv_pos_as_xyz
  1  'x, y, z'
loop_
 _atom_site_type_symbol
 _atom_site_label
 _atom_site_symmetry_multiplicity
 _atom_site_fract_x
 _atom_site_fract_y
 _atom_site_fract_z
 _atom_site_occupancy
  Ce  Ce0  1  0.693087  0.860352  0.394234  1
  Tm  Tm1  1  0.387008  0.687169  0.856360  1
  Tm  Tm2  1  0.862113  0.393082  0.698718  1
  Tm  Tm3  1  0.307133  0.144338  0.613161  1
  Tm  Tm4  1  0.607547  0.307084  0.134630  1
  Tm  Tm5  1  0.141616  0.604674  0.309037  1
  Os  Os6  1  0.002856  0.000452  0.002468  1
  O  O7  1  0.431201  0.586553  0.176414  1
  O  O8  1  0.175327  0.433016  0.587407  1
  O  O9  1  0.589816  0.176454  0.431664  1
  O  O10  1  0.566154  0.410506  0.820063  1
  O  O11  1  0.819685  0.567459  0.411356  1
  O  O12  1  0.408677  0.823045  0.567075  1
  O  O13  1  0.934432  0.050060  0.698775  1
  O  O14  1  0.955624  0.303794  0.074284  1
  O  O15  1  0.304572  0.073473  0.958887  1
  O  O16  1  0.074237  0.954335  0.303460  1
  O  O17  1  0.043043  0.696983  0.925964  1
  O  O18  1  0.695872  0.927171  0.036042  1
