# generated using pymatgen
data_Sc3Ta(AsRh5)2
_symmetry_space_group_name_H-M   'P 1'
_cell_length_a   4.03996200
_cell_length_b   5.55162741
_cell_length_c   10.85897079
_cell_angle_alpha   89.89283454
_cell_angle_beta   90.00000000
_cell_angle_gamma   90.00000000
_symmetry_Int_Tables_number   1
_chemical_formula_structural   Sc3Ta(AsRh5)2
_chemical_formula_sum   'Sc3 Ta1 As2 Rh10'
_cell_volume   243.54852094
_cell_formula_units_Z   1
loop_
 _symmetry_equiv_pos_site_id
 _symmetry_equiv_pos_as_xyz
  1  'x, y, z'
loop_
 _atom_site_type_symbol
 _atom_site_label
 _atom_site_symmetry_multiplicity
 _atom_site_fract_x
 _atom_site_fract_y
 _atom_site_fract_z
 _atom_site_occupancy
  Sc  Sc0  1  0.500000  0.678157  0.643293  1
  Sc  Sc1  1  0.500000  0.178250  0.858467  1
  Sc  Sc2  1  0.500000  0.824647  0.137493  1
  Ta  Ta3  1  0.500000  0.329324  0.356308  1
  As  As4  1  0.000000  0.989905  0.502744  1
  As  As5  1  0.000000  0.498892  0.999247  1
  Rh  Rh6  1  0.500000  0.315723  0.111284  1
  Rh  Rh7  1  0.500000  0.685170  0.893772  1
  Rh  Rh8  1  0.500000  0.810066  0.393979  1
  Rh  Rh9  1  0.500000  0.187162  0.599874  1
  Rh  Rh10  1  0.000000  0.935952  0.743797  1
  Rh  Rh11  1  0.000000  0.073594  0.262336  1
  Rh  Rh12  1  0.000000  0.434560  0.753991  1
  Rh  Rh13  1  0.000000  0.563825  0.246647  1
  Rh  Rh14  1  0.000000  0.492513  0.495967  1
  Rh  Rh15  1  0.000000  0.002260  0.000801  1
