# generated using pymatgen
data_Tb2Co3Si7Ru9
_symmetry_space_group_name_H-M   'P 1'
_cell_length_a   9.51734700
_cell_length_b   9.51734701
_cell_length_c   3.84246400
_cell_angle_alpha   90.00000000
_cell_angle_beta   90.00000000
_cell_angle_gamma   120.00000345
_symmetry_Int_Tables_number   1
_chemical_formula_structural   Tb2Co3Si7Ru9
_chemical_formula_sum   'Tb2 Co3 Si7 Ru9'
_cell_volume   301.42011558
_cell_formula_units_Z   1
loop_
 _symmetry_equiv_pos_site_id
 _symmetry_equiv_pos_as_xyz
  1  'x, y, z'
loop_
 _atom_site_type_symbol
 _atom_site_label
 _atom_site_symmetry_multiplicity
 _atom_site_fract_x
 _atom_site_fract_y
 _atom_site_fract_z
 _atom_site_occupancy
  Tb  Tb0  1  0.000000  0.000000  0.000000  1
  Tb  Tb1  1  0.333333  0.666667  0.500000  1
  Co  Co2  1  0.813237  0.603626  0.000000  1
  Co  Co3  1  0.396374  0.209612  0.000000  1
  Co  Co4  1  0.790388  0.186763  0.000000  1
  Si  Si5  1  0.773231  0.724137  0.500000  1
  Si  Si6  1  0.275863  0.049095  0.500000  1
  Si  Si7  1  0.950905  0.226769  0.500000  1
  Si  Si8  1  0.666667  0.333333  0.000000  1
  Si  Si9  1  0.063479  0.624421  0.000000  1
  Si  Si10  1  0.375579  0.439058  0.000000  1
  Si  Si11  1  0.560942  0.936521  0.000000  1
  Ru  Ru12  1  0.094137  0.390293  0.000000  1
  Ru  Ru13  1  0.609707  0.703844  0.000000  1
  Ru  Ru14  1  0.296156  0.905863  0.000000  1
  Ru  Ru15  1  0.045609  0.767387  0.500000  1
  Ru  Ru16  1  0.232613  0.278221  0.500000  1
  Ru  Ru17  1  0.721779  0.954391  0.500000  1
  Ru  Ru18  1  0.870048  0.431076  0.500000  1
  Ru  Ru19  1  0.568924  0.438971  0.500000  1
  Ru  Ru20  1  0.561029  0.129952  0.500000  1
