# generated using pymatgen
data_Nd3IrPt2Pb3
_symmetry_space_group_name_H-M   'P 1'
_cell_length_a   7.90820900
_cell_length_b   7.90820934
_cell_length_c   4.01136300
_cell_angle_alpha   90.00000000
_cell_angle_beta   90.00000000
_cell_angle_gamma   120.00000275
_symmetry_Int_Tables_number   1
_chemical_formula_structural   Nd3IrPt2Pb3
_chemical_formula_sum   'Nd3 Ir1 Pt2 Pb3'
_cell_volume   217.25955203
_cell_formula_units_Z   1
loop_
 _symmetry_equiv_pos_site_id
 _symmetry_equiv_pos_as_xyz
  1  'x, y, z'
loop_
 _atom_site_type_symbol
 _atom_site_label
 _atom_site_symmetry_multiplicity
 _atom_site_fract_x
 _atom_site_fract_y
 _atom_site_fract_z
 _atom_site_occupancy
  Nd  Nd0  1  0.596947  0.000000  0.000000  1
  Nd  Nd1  1  0.403053  0.403053  0.000000  1
  Nd  Nd2  1  0.000000  0.596946  0.000000  1
  Ir  Ir3  1  0.000000  0.000000  0.000000  1
  Pt  Pt4  1  0.666667  0.333333  0.500000  1
  Pt  Pt5  1  0.333333  0.666667  0.500000  1
  Pb  Pb6  1  0.257702  0.000000  0.500000  1
  Pb  Pb7  1  0.000000  0.257702  0.500000  1
  Pb  Pb8  1  0.742298  0.742298  0.500000  1
