# generated using pymatgen
data_Tm2Ta7WN12
_symmetry_space_group_name_H-M   'P 1'
_cell_length_a   5.27079787
_cell_length_b   5.27079778
_cell_length_c   10.70744700
_cell_angle_alpha   89.99968677
_cell_angle_beta   89.99968695
_cell_angle_gamma   119.86121584
_symmetry_Int_Tables_number   1
_chemical_formula_structural   Tm2Ta7WN12
_chemical_formula_sum   'Tm2 Ta7 W1 N12'
_cell_volume   257.97340542
_cell_formula_units_Z   1
loop_
 _symmetry_equiv_pos_site_id
 _symmetry_equiv_pos_as_xyz
  1  'x, y, z'
loop_
 _atom_site_type_symbol
 _atom_site_label
 _atom_site_symmetry_multiplicity
 _atom_site_fract_x
 _atom_site_fract_y
 _atom_site_fract_z
 _atom_site_occupancy
  Tm  Tm0  1  0.666841  0.333013  0.999780  1
  Tm  Tm1  1  0.333013  0.666841  0.999780  1
  Ta  Ta2  1  0.323268  0.999237  0.740714  1
  Ta  Ta3  1  0.999237  0.323268  0.740714  1
  Ta  Ta4  1  0.321734  0.321734  0.259793  1
  Ta  Ta5  1  0.678560  0.000085  0.259918  1
  Ta  Ta6  1  0.000085  0.678560  0.259918  1
  Ta  Ta7  1  0.331927  0.666564  0.496958  1
  Ta  Ta8  1  0.666564  0.331927  0.496958  1
  W  W9  1  0.676430  0.676430  0.739206  1
  N  N10  1  0.661731  0.661731  0.386204  1
  N  N11  1  0.337521  0.000498  0.385366  1
  N  N12  1  0.000498  0.337521  0.385366  1
  N  N13  1  0.344577  0.344577  0.616237  1
  N  N14  1  0.657379  0.998848  0.616262  1
  N  N15  1  0.998848  0.657379  0.616262  1
  N  N16  1  0.343805  0.343805  0.857410  1
  N  N17  1  0.659300  0.998208  0.857799  1
  N  N18  1  0.998208  0.659300  0.857799  1
  N  N19  1  0.656726  0.656726  0.142419  1
  N  N20  1  0.343492  0.000257  0.142569  1
  N  N21  1  0.000257  0.343492  0.142569  1
