# generated using pymatgen
data_Ce2Al20TcIr3
_symmetry_space_group_name_H-M   'P 1'
_cell_length_a   6.88826413
_cell_length_b   6.89352886
_cell_length_c   9.20343777
_cell_angle_alpha   90.21017888
_cell_angle_beta   90.18852970
_cell_angle_gamma   97.32809621
_symmetry_Int_Tables_number   1
_chemical_formula_structural   Ce2Al20TcIr3
_chemical_formula_sum   'Ce2 Al20 Tc1 Ir3'
_cell_volume   433.44455550
_cell_formula_units_Z   1
loop_
 _symmetry_equiv_pos_site_id
 _symmetry_equiv_pos_as_xyz
  1  'x, y, z'
loop_
 _atom_site_type_symbol
 _atom_site_label
 _atom_site_symmetry_multiplicity
 _atom_site_fract_x
 _atom_site_fract_y
 _atom_site_fract_z
 _atom_site_occupancy
  Ce  Ce0  1  0.871066  0.120683  0.749631  1
  Ce  Ce1  1  0.128934  0.879317  0.250369  1
  Al  Al2  1  0.593043  0.857897  0.251055  1
  Al  Al3  1  0.777296  0.519400  0.249251  1
  Al  Al4  1  0.157504  0.841460  0.895883  1
  Al  Al5  1  0.406957  0.142103  0.748945  1
  Al  Al6  1  0.621514  0.377827  0.948617  1
  Al  Al7  1  0.842067  0.156875  0.397076  1
  Al  Al8  1  0.779432  0.779955  0.999998  1
  Al  Al9  1  0.856822  0.592595  0.749687  1
  Al  Al10  1  0.842496  0.158540  0.104117  1
  Al  Al11  1  0.222704  0.480600  0.750749  1
  Al  Al12  1  0.157933  0.843125  0.602924  1
  Al  Al13  1  0.779725  0.781123  0.500931  1
  Al  Al14  1  0.482931  0.223671  0.253322  1
  Al  Al15  1  0.620249  0.376097  0.549500  1
  Al  Al16  1  0.220275  0.218877  0.499069  1
  Al  Al17  1  0.379751  0.623903  0.450500  1
  Al  Al18  1  0.143178  0.407405  0.250313  1
  Al  Al19  1  0.517069  0.776329  0.746678  1
  Al  Al20  1  0.378486  0.622173  0.051383  1
  Al  Al21  1  0.220568  0.220045  0.000002  1
  Tc  Tc22  1  0.500000  0.000000  0.500000  1
  Ir  Ir23  1  0.500000  0.000000  0.000000  1
  Ir  Ir24  1  0.000000  0.500000  0.000000  1
  Ir  Ir25  1  0.000000  0.500000  0.500000  1
