# generated using pymatgen
data_Er3TmLu4(B6Os)4
_symmetry_space_group_name_H-M   'P 1'
_cell_length_a   3.60729200
_cell_length_b   9.05040000
_cell_length_c   11.42657200
_cell_angle_alpha   90.00249571
_cell_angle_beta   90.00000000
_cell_angle_gamma   90.00000000
_symmetry_Int_Tables_number   1
_chemical_formula_structural   Er3TmLu4(B6Os)4
_chemical_formula_sum   'Er3 Tm1 Lu4 B24 Os4'
_cell_volume   373.04827237
_cell_formula_units_Z   1
loop_
 _symmetry_equiv_pos_site_id
 _symmetry_equiv_pos_as_xyz
  1  'x, y, z'
loop_
 _atom_site_type_symbol
 _atom_site_label
 _atom_site_symmetry_multiplicity
 _atom_site_fract_x
 _atom_site_fract_y
 _atom_site_fract_z
 _atom_site_occupancy
  Er  Er0  1  0.000000  0.321136  0.413946  1
  Er  Er1  1  0.000000  0.678864  0.586064  1
  Er  Er2  1  0.000000  0.821149  0.086044  1
  Tm  Tm3  1  0.000000  0.178943  0.913976  1
  Lu  Lu4  1  0.000000  0.944345  0.373269  1
  Lu  Lu5  1  0.000000  0.055697  0.626756  1
  Lu  Lu6  1  0.000000  0.444261  0.126662  1
  Lu  Lu7  1  0.000000  0.555609  0.873294  1
  B  B8  1  0.500000  0.554054  0.433351  1
  B  B9  1  0.500000  0.445927  0.566670  1
  B  B10  1  0.500000  0.054120  0.066496  1
  B  B11  1  0.500000  0.946111  0.933381  1
  B  B12  1  0.500000  0.749610  0.420130  1
  B  B13  1  0.500000  0.250391  0.579900  1
  B  B14  1  0.500000  0.249548  0.079677  1
  B  B15  1  0.500000  0.750429  0.920118  1
  B  B16  1  0.500000  0.792199  0.266153  1
  B  B17  1  0.500000  0.207729  0.733999  1
  B  B18  1  0.500000  0.292186  0.233797  1
  B  B19  1  0.500000  0.707821  0.766174  1
  B  B20  1  0.500000  0.631071  0.184461  1
  B  B21  1  0.500000  0.368758  0.815637  1
  B  B22  1  0.500000  0.131090  0.315511  1
  B  B23  1  0.500000  0.868947  0.684496  1
  B  B24  1  0.500000  0.982369  0.213421  1
  B  B25  1  0.500000  0.017847  0.786645  1
  B  B26  1  0.500000  0.482335  0.286535  1
  B  B27  1  0.500000  0.517614  0.713477  1
  B  B28  1  0.500000  0.605195  0.029042  1
  B  B29  1  0.500000  0.394527  0.970883  1
  B  B30  1  0.500000  0.105184  0.470968  1
  B  B31  1  0.500000  0.894826  0.529044  1
  Os  Os32  1  0.000000  0.638052  0.320753  1
  Os  Os33  1  0.000000  0.361861  0.679332  1
  Os  Os34  1  0.000000  0.138054  0.179097  1
  Os  Os35  1  0.000000  0.862139  0.820841  1
