# generated using pymatgen
data_MgZr8In3(CuNi3)2
_symmetry_space_group_name_H-M   'P 1'
_cell_length_a   7.25794773
_cell_length_b   7.27298442
_cell_length_c   6.71403963
_cell_angle_alpha   90.04058357
_cell_angle_beta   89.97081623
_cell_angle_gamma   90.57737756
_symmetry_Int_Tables_number   1
_chemical_formula_structural   MgZr8In3(CuNi3)2
_chemical_formula_sum   'Mg1 Zr8 In3 Cu2 Ni6'
_cell_volume   354.39548318
_cell_formula_units_Z   1
loop_
 _symmetry_equiv_pos_site_id
 _symmetry_equiv_pos_as_xyz
  1  'x, y, z'
loop_
 _atom_site_type_symbol
 _atom_site_label
 _atom_site_symmetry_multiplicity
 _atom_site_fract_x
 _atom_site_fract_y
 _atom_site_fract_z
 _atom_site_occupancy
  Mg  Mg0  1  0.496603  0.000806  0.749551  1
  Zr  Zr1  1  0.812529  0.825297  0.998186  1
  Zr  Zr2  1  0.676468  0.321984  0.501407  1
  Zr  Zr3  1  0.348634  0.652475  0.997938  1
  Zr  Zr4  1  0.158479  0.170073  0.501719  1
  Zr  Zr5  1  0.175415  0.187095  0.999022  1
  Zr  Zr6  1  0.829155  0.842990  0.502344  1
  Zr  Zr7  1  0.664218  0.333993  0.998480  1
  Zr  Zr8  1  0.333038  0.668357  0.500801  1
  In  In9  1  0.496903  0.000540  0.250277  1
  In  In10  1  0.998969  0.503215  0.251311  1
  In  In11  1  0.998912  0.503264  0.748606  1
  Cu  Cu12  1  0.124676  0.874907  0.226133  1
  Cu  Cu13  1  0.127740  0.876305  0.771830  1
  Ni  Ni14  1  0.625054  0.625687  0.733279  1
  Ni  Ni15  1  0.875960  0.121615  0.766671  1
  Ni  Ni16  1  0.376387  0.373817  0.269426  1
  Ni  Ni17  1  0.626486  0.623147  0.268864  1
  Ni  Ni18  1  0.877310  0.122414  0.230925  1
  Ni  Ni19  1  0.377064  0.372021  0.733228  1
