# generated using pymatgen
data_Er8Nb11Si16Au
_symmetry_space_group_name_H-M   'P 1'
_cell_length_a   7.05499110
_cell_length_b   7.05499140
_cell_length_c   12.96844886
_cell_angle_alpha   90.28860404
_cell_angle_beta   89.71139624
_cell_angle_gamma   89.75985691
_symmetry_Int_Tables_number   1
_chemical_formula_structural   Er8Nb11Si16Au
_chemical_formula_sum   'Er8 Nb11 Si16 Au1'
_cell_volume   645.45521228
_cell_formula_units_Z   1
loop_
 _symmetry_equiv_pos_site_id
 _symmetry_equiv_pos_as_xyz
  1  'x, y, z'
loop_
 _atom_site_type_symbol
 _atom_site_label
 _atom_site_symmetry_multiplicity
 _atom_site_fract_x
 _atom_site_fract_y
 _atom_site_fract_z
 _atom_site_occupancy
  Er  Er0  1  0.342717  0.001593  0.467164  1
  Er  Er1  1  0.497095  0.841749  0.717084  1
  Er  Er2  1  0.502464  0.156879  0.215797  1
  Er  Er3  1  0.841749  0.497095  0.282916  1
  Er  Er4  1  0.156879  0.502464  0.784203  1
  Er  Er5  1  0.654800  0.001591  0.968003  1
  Er  Er6  1  0.001593  0.342717  0.532836  1
  Er  Er7  1  0.001591  0.654800  0.031997  1
  Nb  Nb8  1  0.172125  0.826056  0.249624  1
  Nb  Nb9  1  0.826056  0.172125  0.750376  1
  Nb  Nb10  1  0.671740  0.671740  0.500000  1
  Nb  Nb11  1  0.150049  0.006710  0.876339  1
  Nb  Nb12  1  0.497933  0.651807  0.122288  1
  Nb  Nb13  1  0.504289  0.350353  0.624079  1
  Nb  Nb14  1  0.651807  0.497933  0.877712  1
  Nb  Nb15  1  0.350353  0.504289  0.375921  1
  Nb  Nb16  1  0.848559  0.992377  0.373203  1
  Nb  Nb17  1  0.006710  0.150049  0.123661  1
  Nb  Nb18  1  0.992377  0.848559  0.626797  1
  Si  Si19  1  0.202373  0.136671  0.683129  1
  Si  Si20  1  0.371294  0.719365  0.927945  1
  Si  Si21  1  0.635168  0.293728  0.431490  1
  Si  Si22  1  0.719365  0.371294  0.072055  1
  Si  Si23  1  0.293728  0.635168  0.568510  1
  Si  Si24  1  0.796817  0.864380  0.181303  1
  Si  Si25  1  0.136671  0.202373  0.316871  1
  Si  Si26  1  0.864380  0.796817  0.818697  1
  Si  Si27  1  0.288631  0.940068  0.064570  1
  Si  Si28  1  0.545607  0.793888  0.312593  1
  Si  Si29  1  0.454062  0.205755  0.810560  1
  Si  Si30  1  0.793888  0.545607  0.687407  1
  Si  Si31  1  0.205755  0.454062  0.189440  1
  Si  Si32  1  0.705519  0.047000  0.563449  1
  Si  Si33  1  0.940068  0.288631  0.935430  1
  Si  Si34  1  0.047000  0.705519  0.436551  1
  Au  Au35  1  0.328789  0.328789  0.000000  1
