# generated using pymatgen
data_Nd2BeSiCl2
_symmetry_space_group_name_H-M   'P 1'
_cell_length_a   3.91858200
_cell_length_b   3.91858052
_cell_length_c   11.20448000
_cell_angle_alpha   90.00000000
_cell_angle_beta   90.00000000
_cell_angle_gamma   119.99997876
_symmetry_Int_Tables_number   1
_chemical_formula_structural   Nd2BeSiCl2
_chemical_formula_sum   'Nd2 Be1 Si1 Cl2'
_cell_volume   148.99789894
_cell_formula_units_Z   1
loop_
 _symmetry_equiv_pos_site_id
 _symmetry_equiv_pos_as_xyz
  1  'x, y, z'
loop_
 _atom_site_type_symbol
 _atom_site_label
 _atom_site_symmetry_multiplicity
 _atom_site_fract_x
 _atom_site_fract_y
 _atom_site_fract_z
 _atom_site_occupancy
  Nd  Nd0  1  0.000000  0.000000  0.185159  1
  Nd  Nd1  1  0.000000  0.000000  0.813711  1
  Be  Be2  1  0.333333  0.666667  0.004545  1
  Si  Si3  1  0.666667  0.333333  0.996196  1
  Cl  Cl4  1  0.333333  0.666667  0.657071  1
  Cl  Cl5  1  0.666667  0.333333  0.343317  1
