# generated using pymatgen
data_Ac2CeRuF14
_symmetry_space_group_name_H-M   'P 1'
_cell_length_a   6.00762213
_cell_length_b   6.44209380
_cell_length_c   8.80302700
_cell_angle_alpha   78.56733658
_cell_angle_beta   89.88971197
_cell_angle_gamma   90.15671211
_symmetry_Int_Tables_number   1
_chemical_formula_structural   Ac2CeRuF14
_chemical_formula_sum   'Ac2 Ce1 Ru1 F14'
_cell_volume   333.92960429
_cell_formula_units_Z   1
loop_
 _symmetry_equiv_pos_site_id
 _symmetry_equiv_pos_as_xyz
  1  'x, y, z'
loop_
 _atom_site_type_symbol
 _atom_site_label
 _atom_site_symmetry_multiplicity
 _atom_site_fract_x
 _atom_site_fract_y
 _atom_site_fract_z
 _atom_site_occupancy
  Ac  Ac0  1  0.203546  0.663087  0.314299  1
  Ac  Ac1  1  0.699571  0.334548  0.692042  1
  Ce  Ce2  1  0.714014  0.201753  0.227300  1
  Ru  Ru3  1  0.208608  0.810087  0.778796  1
  F  F4  1  0.381012  0.429514  0.524319  1
  F  F5  1  0.872638  0.545431  0.465373  1
  F  F6  1  0.910028  0.920990  0.217189  1
  F  F7  1  0.417258  0.045316  0.776351  1
  F  F8  1  0.420860  0.994432  0.244601  1
  F  F9  1  0.962735  0.014601  0.766998  1
  F  F10  1  0.522648  0.494002  0.203739  1
  F  F11  1  0.000122  0.572498  0.781271  1
  F  F12  1  0.200771  0.764356  0.998607  1
  F  F13  1  0.698507  0.244512  0.977476  1
  F  F14  1  0.217678  0.857670  0.556805  1
  F  F15  1  0.728156  0.119931  0.479465  1
  F  F16  1  0.032559  0.372916  0.207305  1
  F  F17  1  0.462012  0.614353  0.788063  1
