# generated using pymatgen
data_Tb6NbFe(Co4P3)4
_symmetry_space_group_name_H-M   'P 1'
_cell_length_a   3.70892700
_cell_length_b   10.58505100
_cell_length_c   12.27878200
_cell_angle_alpha   90.00000000
_cell_angle_beta   90.00000000
_cell_angle_gamma   90.00000000
_symmetry_Int_Tables_number   1
_chemical_formula_structural   Tb6NbFe(Co4P3)4
_chemical_formula_sum   'Tb6 Nb1 Fe1 Co16 P12'
_cell_volume   482.05493053
_cell_formula_units_Z   1
loop_
 _symmetry_equiv_pos_site_id
 _symmetry_equiv_pos_as_xyz
  1  'x, y, z'
loop_
 _atom_site_type_symbol
 _atom_site_label
 _atom_site_symmetry_multiplicity
 _atom_site_fract_x
 _atom_site_fract_y
 _atom_site_fract_z
 _atom_site_occupancy
  Tb  Tb0  1  0.000000  0.500000  0.526512  1
  Tb  Tb1  1  0.500000  0.000000  0.478242  1
  Tb  Tb2  1  0.500000  0.819774  0.206626  1
  Tb  Tb3  1  0.500000  0.180226  0.206626  1
  Tb  Tb4  1  0.000000  0.682462  0.795563  1
  Tb  Tb5  1  0.000000  0.317538  0.795563  1
  Nb  Nb6  1  0.500000  0.500000  0.154447  1
  Fe  Fe7  1  0.000000  0.000000  0.842359  1
  Co  Co8  1  0.500000  0.500000  0.702037  1
  Co  Co9  1  0.000000  0.000000  0.296979  1
  Co  Co10  1  0.000000  0.500000  0.984461  1
  Co  Co11  1  0.500000  0.000000  0.012661  1
  Co  Co12  1  0.500000  0.329891  0.989706  1
  Co  Co13  1  0.500000  0.670109  0.989706  1
  Co  Co14  1  0.000000  0.164455  0.003713  1
  Co  Co15  1  0.000000  0.835545  0.003713  1
  Co  Co16  1  0.500000  0.295152  0.432642  1
  Co  Co17  1  0.500000  0.704848  0.432642  1
  Co  Co18  1  0.000000  0.202797  0.569581  1
  Co  Co19  1  0.000000  0.797203  0.569581  1
  Co  Co20  1  0.500000  0.879565  0.708225  1
  Co  Co21  1  0.500000  0.120435  0.708225  1
  Co  Co22  1  0.000000  0.622351  0.294418  1
  Co  Co23  1  0.000000  0.377649  0.294418  1
  P  P24  1  0.500000  0.500000  0.881372  1
  P  P25  1  0.000000  0.000000  0.116518  1
  P  P26  1  0.500000  0.500000  0.355090  1
  P  P27  1  0.000000  0.000000  0.657484  1
  P  P28  1  0.500000  0.308934  0.616750  1
  P  P29  1  0.500000  0.691066  0.616750  1
  P  P30  1  0.000000  0.188877  0.385947  1
  P  P31  1  0.000000  0.811123  0.385947  1
  P  P32  1  0.500000  0.850479  0.890095  1
  P  P33  1  0.500000  0.149521  0.890095  1
  P  P34  1  0.000000  0.660687  0.102655  1
  P  P35  1  0.000000  0.339313  0.102655  1
