# generated using pymatgen
data_Ho5Tm5(InSb)4
_symmetry_space_group_name_H-M   'P 1'
_cell_length_a   8.72773097
_cell_length_b   8.75709696
_cell_length_c   8.03976935
_cell_angle_alpha   90.02095465
_cell_angle_beta   90.00934303
_cell_angle_gamma   125.16356490
_symmetry_Int_Tables_number   1
_chemical_formula_structural   Ho5Tm5(InSb)4
_chemical_formula_sum   'Ho5 Tm5 In4 Sb4'
_cell_volume   502.34118440
_cell_formula_units_Z   1
loop_
 _symmetry_equiv_pos_site_id
 _symmetry_equiv_pos_as_xyz
  1  'x, y, z'
loop_
 _atom_site_type_symbol
 _atom_site_label
 _atom_site_symmetry_multiplicity
 _atom_site_fract_x
 _atom_site_fract_y
 _atom_site_fract_z
 _atom_site_occupancy
  Ho  Ho0  1  0.807595  0.532310  0.166026  1
  Ho  Ho1  1  0.532103  0.806675  0.166209  1
  Ho  Ho2  1  0.192097  0.467526  0.833561  1
  Ho  Ho3  1  0.692591  0.967754  0.666191  1
  Ho  Ho4  1  0.307369  0.032203  0.333953  1
  Tm  Tm5  1  0.032238  0.305420  0.334382  1
  Tm  Tm6  1  0.967844  0.694445  0.665710  1
  Tm  Tm7  1  0.467868  0.194165  0.834551  1
  Tm  Tm8  1  0.000443  0.000202  0.999795  1
  Tm  Tm9  1  0.499921  0.499597  0.500312  1
  In  In10  1  0.369426  0.369567  0.129423  1
  In  In11  1  0.630463  0.629496  0.870140  1
  In  In12  1  0.130607  0.129956  0.629597  1
  In  In13  1  0.870060  0.870094  0.370818  1
  Sb  Sb14  1  0.796469  0.202678  0.000780  1
  Sb  Sb15  1  0.203577  0.798579  0.997590  1
  Sb  Sb16  1  0.704824  0.298408  0.501488  1
  Sb  Sb17  1  0.294505  0.700923  0.499473  1
