# generated using pymatgen
data_Nd3Al12Ru3Rh
_symmetry_space_group_name_H-M   'P 1'
_cell_length_a   8.90854887
_cell_length_b   8.90855011
_cell_length_c   9.69174100
_cell_angle_alpha   90.00000000
_cell_angle_beta   90.00000000
_cell_angle_gamma   119.60147526
_symmetry_Int_Tables_number   1
_chemical_formula_structural   Nd3Al12Ru3Rh
_chemical_formula_sum   'Nd6 Al24 Ru6 Rh2'
_cell_volume   668.76955615
_cell_formula_units_Z   2
loop_
 _symmetry_equiv_pos_site_id
 _symmetry_equiv_pos_as_xyz
  1  'x, y, z'
loop_
 _atom_site_type_symbol
 _atom_site_label
 _atom_site_symmetry_multiplicity
 _atom_site_fract_x
 _atom_site_fract_y
 _atom_site_fract_z
 _atom_site_occupancy
  Nd  Nd0  1  0.189882  0.384024  0.250000  1
  Nd  Nd1  1  0.810118  0.615976  0.750000  1
  Nd  Nd2  1  0.615976  0.810118  0.250000  1
  Nd  Nd3  1  0.384024  0.189882  0.750000  1
  Nd  Nd4  1  0.193740  0.806260  0.250000  1
  Nd  Nd5  1  0.806260  0.193740  0.750000  1
  Al  Al6  1  0.332321  0.667679  0.011082  1
  Al  Al7  1  0.667679  0.332321  0.988918  1
  Al  Al8  1  0.667679  0.332321  0.511082  1
  Al  Al9  1  0.332321  0.667679  0.488918  1
  Al  Al10  1  0.161369  0.324185  0.576621  1
  Al  Al11  1  0.838631  0.675815  0.423379  1
  Al  Al12  1  0.675815  0.838631  0.576621  1
  Al  Al13  1  0.838631  0.675815  0.076621  1
  Al  Al14  1  0.324185  0.161369  0.423379  1
  Al  Al15  1  0.161369  0.324185  0.923379  1
  Al  Al16  1  0.162633  0.837367  0.576187  1
  Al  Al17  1  0.324185  0.161369  0.076621  1
  Al  Al18  1  0.837367  0.162633  0.423813  1
  Al  Al19  1  0.675815  0.838631  0.923379  1
  Al  Al20  1  0.837367  0.162633  0.076187  1
  Al  Al21  1  0.162633  0.837367  0.923813  1
  Al  Al22  1  0.562181  0.125339  0.250000  1
  Al  Al23  1  0.437819  0.874661  0.750000  1
  Al  Al24  1  0.874661  0.437819  0.250000  1
  Al  Al25  1  0.125339  0.562181  0.750000  1
  Al  Al26  1  0.562577  0.437423  0.250000  1
  Al  Al27  1  0.437423  0.562577  0.750000  1
  Al  Al28  1  0.999670  0.000330  0.250000  1
  Al  Al29  1  0.000330  0.999670  0.750000  1
  Ru  Ru30  1  0.500000  0.000000  0.000000  1
  Ru  Ru31  1  0.000000  0.500000  0.000000  1
  Ru  Ru32  1  0.500000  0.000000  0.500000  1
  Ru  Ru33  1  0.000000  0.500000  0.500000  1
  Ru  Ru34  1  0.000000  0.000000  0.000000  1
  Ru  Ru35  1  0.000000  0.000000  0.500000  1
  Rh  Rh36  1  0.500000  0.500000  0.000000  1
  Rh  Rh37  1  0.500000  0.500000  0.500000  1
