# generated using pymatgen
data_Eu2Dy4NbO12
_symmetry_space_group_name_H-M   'P 1'
_cell_length_a   6.51809087
_cell_length_b   6.51154148
_cell_length_c   6.56598044
_cell_angle_alpha   98.66880605
_cell_angle_beta   98.89282444
_cell_angle_gamma   98.57716766
_symmetry_Int_Tables_number   1
_chemical_formula_structural   Eu2Dy4NbO12
_chemical_formula_sum   'Eu2 Dy4 Nb1 O12'
_cell_volume   267.90761428
_cell_formula_units_Z   1
loop_
 _symmetry_equiv_pos_site_id
 _symmetry_equiv_pos_as_xyz
  1  'x, y, z'
loop_
 _atom_site_type_symbol
 _atom_site_label
 _atom_site_symmetry_multiplicity
 _atom_site_fract_x
 _atom_site_fract_y
 _atom_site_fract_z
 _atom_site_occupancy
  Eu  Eu0  1  0.599917  0.140869  0.306155  1
  Eu  Eu1  1  0.862530  0.696290  0.398980  1
  Dy  Dy2  1  0.142234  0.302817  0.616501  1
  Dy  Dy3  1  0.385771  0.860164  0.702275  1
  Dy  Dy4  1  0.693207  0.388848  0.858414  1
  Dy  Dy5  1  0.297455  0.609796  0.133144  1
  Nb  Nb6  1  0.994802  0.002310  0.003325  1
  O  O7  1  0.073892  0.305481  0.958362  1
  O  O8  1  0.049925  0.937253  0.694970  1
  O  O9  1  0.412230  0.562539  0.823602  1
  O  O10  1  0.178157  0.588994  0.435536  1
  O  O11  1  0.697897  0.040214  0.920162  1
  O  O12  1  0.436405  0.175761  0.593948  1
  O  O13  1  0.562645  0.820748  0.409909  1
  O  O14  1  0.305037  0.948422  0.062780  1
  O  O15  1  0.824393  0.410327  0.569473  1
  O  O16  1  0.586960  0.433580  0.178305  1
  O  O17  1  0.969782  0.078870  0.300074  1
  O  O18  1  0.926761  0.696717  0.034087  1
