# generated using pymatgen
data_TbCe3ZnIn2PtRh2
_symmetry_space_group_name_H-M   'P 1'
_cell_length_a   7.78993880
_cell_length_b   7.78993768
_cell_length_c   3.74726100
_cell_angle_alpha   90.00000000
_cell_angle_beta   90.00000000
_cell_angle_gamma   88.53411736
_symmetry_Int_Tables_number   1
_chemical_formula_structural   TbCe3ZnIn2PtRh2
_chemical_formula_sum   'Tb1 Ce3 Zn1 In2 Pt1 Rh2'
_cell_volume   227.32113701
_cell_formula_units_Z   1
loop_
 _symmetry_equiv_pos_site_id
 _symmetry_equiv_pos_as_xyz
  1  'x, y, z'
loop_
 _atom_site_type_symbol
 _atom_site_label
 _atom_site_symmetry_multiplicity
 _atom_site_fract_x
 _atom_site_fract_y
 _atom_site_fract_z
 _atom_site_occupancy
  Tb  Tb0  1  0.676339  0.176339  0.500000  1
  Ce  Ce1  1  0.343645  0.843645  0.500000  1
  Ce  Ce2  1  0.173114  0.307737  0.500000  1
  Ce  Ce3  1  0.807737  0.673114  0.500000  1
  Zn  Zn4  1  0.126876  0.626876  0.000000  1
  In  In5  1  0.996248  0.993747  0.000000  1
  In  In6  1  0.493747  0.496248  0.000000  1
  Pt  Pt7  1  0.887112  0.387112  0.000000  1
  Rh  Rh8  1  0.634696  0.860485  0.000000  1
  Rh  Rh9  1  0.360485  0.134696  0.000000  1
