# generated using pymatgen
data_CaNd(NiC2)2
_symmetry_space_group_name_H-M   'P 1'
_cell_length_a   3.79936072
_cell_length_b   3.75897890
_cell_length_c   7.42422831
_cell_angle_alpha   81.82137116
_cell_angle_beta   81.82437369
_cell_angle_gamma   90.07402032
_symmetry_Int_Tables_number   1
_chemical_formula_structural   CaNd(NiC2)2
_chemical_formula_sum   'Ca1 Nd1 Ni2 C4'
_cell_volume   103.86060867
_cell_formula_units_Z   1
loop_
 _symmetry_equiv_pos_site_id
 _symmetry_equiv_pos_as_xyz
  1  'x, y, z'
loop_
 _atom_site_type_symbol
 _atom_site_label
 _atom_site_symmetry_multiplicity
 _atom_site_fract_x
 _atom_site_fract_y
 _atom_site_fract_z
 _atom_site_occupancy
  Ca  Ca0  1  0.071659  0.924802  0.002389  1
  Nd  Nd1  1  0.923651  0.072325  0.498353  1
  Ni  Ni2  1  0.370815  0.514601  0.696513  1
  Ni  Ni3  1  0.509795  0.369251  0.191089  1
  C  C4  1  0.444400  0.597010  0.425694  1
  C  C5  1  0.600079  0.447390  0.925501  1
  C  C6  1  0.490220  0.851887  0.273848  1
  C  C7  1  0.856382  0.489732  0.780415  1
