# generated using pymatgen
data_Y2Al2CuSi2Au
_symmetry_space_group_name_H-M   'P 1'
_cell_length_a   9.28134018
_cell_length_b   9.28133971
_cell_length_c   4.02588700
_cell_angle_alpha   90.00000000
_cell_angle_beta   90.00000000
_cell_angle_gamma   154.42023006
_symmetry_Int_Tables_number   1
_chemical_formula_structural   Y2Al2CuSi2Au
_chemical_formula_sum   'Y2 Al2 Cu1 Si2 Au1'
_cell_volume   149.73822827
_cell_formula_units_Z   1
loop_
 _symmetry_equiv_pos_site_id
 _symmetry_equiv_pos_as_xyz
  1  'x, y, z'
loop_
 _atom_site_type_symbol
 _atom_site_label
 _atom_site_symmetry_multiplicity
 _atom_site_fract_x
 _atom_site_fract_y
 _atom_site_fract_z
 _atom_site_occupancy
  Y  Y0  1  0.904136  0.095864  0.750000  1
  Y  Y1  1  0.089132  0.910868  0.250000  1
  Al  Al2  1  0.254167  0.745833  0.750000  1
  Al  Al3  1  0.758134  0.241866  0.250000  1
  Cu  Cu4  1  0.335236  0.664764  0.250000  1
  Si  Si5  1  0.531092  0.468908  0.750000  1
  Si  Si6  1  0.461869  0.538131  0.250000  1
  Au  Au7  1  0.666233  0.333767  0.750000  1
