# generated using pymatgen
data_Yb20Bi13Au3
_symmetry_space_group_name_H-M   'P 1'
_cell_length_a   7.87388060
_cell_length_b   8.81007772
_cell_length_c   16.21512800
_cell_angle_alpha   90.00000000
_cell_angle_beta   90.00000000
_cell_angle_gamma   88.58866220
_symmetry_Int_Tables_number   1
_chemical_formula_structural   Yb20Bi13Au3
_chemical_formula_sum   'Yb20 Bi13 Au3'
_cell_volume   1124.49408698
_cell_formula_units_Z   1
loop_
 _symmetry_equiv_pos_site_id
 _symmetry_equiv_pos_as_xyz
  1  'x, y, z'
loop_
 _atom_site_type_symbol
 _atom_site_label
 _atom_site_symmetry_multiplicity
 _atom_site_fract_x
 _atom_site_fract_y
 _atom_site_fract_z
 _atom_site_occupancy
  Yb  Yb0  1  0.019201  0.217412  0.410744  1
  Yb  Yb1  1  0.841247  0.638536  0.372185  1
  Yb  Yb2  1  0.521749  0.286774  0.092367  1
  Yb  Yb3  1  0.142711  0.354604  0.616865  1
  Yb  Yb4  1  0.348260  0.860438  0.374818  1
  Yb  Yb5  1  0.142711  0.354604  0.883135  1
  Yb  Yb6  1  0.348260  0.860438  0.125182  1
  Yb  Yb7  1  0.215914  0.507842  0.250000  1
  Yb  Yb8  1  0.521749  0.286774  0.407633  1
  Yb  Yb9  1  0.802040  0.498885  0.750000  1
  Yb  Yb10  1  0.986956  0.778406  0.926557  1
  Yb  Yb11  1  0.986956  0.778406  0.573443  1
  Yb  Yb12  1  0.481331  0.694735  0.594445  1
  Yb  Yb13  1  0.657306  0.141962  0.618807  1
  Yb  Yb14  1  0.271930  0.014580  0.750000  1
  Yb  Yb15  1  0.657306  0.141962  0.881193  1
  Yb  Yb16  1  0.711517  0.993261  0.250000  1
  Yb  Yb17  1  0.841247  0.638536  0.127815  1
  Yb  Yb18  1  0.481331  0.694735  0.905555  1
  Yb  Yb19  1  0.019201  0.217412  0.089256  1
  Bi  Bi20  1  0.797025  0.355880  0.250000  1
  Bi  Bi21  1  0.436512  0.373657  0.750000  1
  Bi  Bi22  1  0.719149  0.860699  0.750000  1
  Bi  Bi23  1  0.778214  0.452076  0.542050  1
  Bi  Bi24  1  0.730163  0.958196  0.052275  1
  Bi  Bi25  1  0.778214  0.452076  0.957950  1
  Bi  Bi26  1  0.236756  0.545457  0.448161  1
  Bi  Bi27  1  0.236756  0.545457  0.051839  1
  Bi  Bi28  1  0.171556  0.652498  0.750000  1
  Bi  Bi29  1  0.295801  0.142194  0.250000  1
  Bi  Bi30  1  0.275110  0.035368  0.949668  1
  Bi  Bi31  1  0.730163  0.958196  0.447725  1
  Bi  Bi32  1  0.275110  0.035368  0.550332  1
  Au  Au33  1  0.552727  0.666026  0.250000  1
  Au  Au34  1  0.054337  0.828797  0.250000  1
  Au  Au35  1  0.933484  0.177758  0.750000  1
