# generated using pymatgen
data_YHo2Tm(MoN3)4
_symmetry_space_group_name_H-M   'P 1'
_cell_length_a   7.31763135
_cell_length_b   7.31763095
_cell_length_c   6.26468141
_cell_angle_alpha   73.43891141
_cell_angle_beta   73.43890870
_cell_angle_gamma   81.19495903
_symmetry_Int_Tables_number   1
_chemical_formula_structural   YHo2Tm(MoN3)4
_chemical_formula_sum   'Y1 Ho2 Tm1 Mo4 N12'
_cell_volume   307.26128986
_cell_formula_units_Z   1
loop_
 _symmetry_equiv_pos_site_id
 _symmetry_equiv_pos_as_xyz
  1  'x, y, z'
loop_
 _atom_site_type_symbol
 _atom_site_label
 _atom_site_symmetry_multiplicity
 _atom_site_fract_x
 _atom_site_fract_y
 _atom_site_fract_z
 _atom_site_occupancy
  Y  Y0  1  0.293258  0.706742  0.750000  1
  Ho  Ho1  1  0.707768  0.292232  0.250000  1
  Ho  Ho2  1  0.086570  0.913430  0.250000  1
  Tm  Tm3  1  0.912324  0.087676  0.750000  1
  Mo  Mo4  1  0.800754  0.618686  0.772779  1
  Mo  Mo5  1  0.199093  0.380030  0.228683  1
  Mo  Mo6  1  0.619970  0.800907  0.271317  1
  Mo  Mo7  1  0.381314  0.199246  0.727221  1
  N  N8  1  0.216764  0.001675  0.846086  1
  N  N9  1  0.368005  0.346738  0.430440  1
  N  N10  1  0.634466  0.653423  0.567774  1
  N  N11  1  0.626486  0.110612  0.662376  1
  N  N12  1  0.998325  0.783236  0.653914  1
  N  N13  1  0.781502  0.001403  0.150319  1
  N  N14  1  0.110253  0.624678  0.162923  1
  N  N15  1  0.889388  0.373514  0.837624  1
  N  N16  1  0.998597  0.218498  0.349681  1
  N  N17  1  0.346577  0.365534  0.932226  1
  N  N18  1  0.653262  0.631995  0.069560  1
  N  N19  1  0.375322  0.889747  0.337077  1
