# generated using pymatgen
data_Tm6Lu4Si5Bi
_symmetry_space_group_name_H-M   'P 1'
_cell_length_a   8.39105800
_cell_length_b   8.41718529
_cell_length_c   6.21341800
_cell_angle_alpha   90.00000000
_cell_angle_beta   90.00000000
_cell_angle_gamma   119.89737214
_symmetry_Int_Tables_number   1
_chemical_formula_structural   Tm6Lu4Si5Bi
_chemical_formula_sum   'Tm6 Lu4 Si5 Bi1'
_cell_volume   380.44598866
_cell_formula_units_Z   1
loop_
 _symmetry_equiv_pos_site_id
 _symmetry_equiv_pos_as_xyz
  1  'x, y, z'
loop_
 _atom_site_type_symbol
 _atom_site_label
 _atom_site_symmetry_multiplicity
 _atom_site_fract_x
 _atom_site_fract_y
 _atom_site_fract_z
 _atom_site_occupancy
  Tm  Tm0  1  0.768489  0.000000  0.750000  1
  Tm  Tm1  1  0.755644  0.756913  0.250000  1
  Tm  Tm2  1  0.998730  0.243087  0.250000  1
  Tm  Tm3  1  0.984329  0.745424  0.750000  1
  Tm  Tm4  1  0.238905  0.254576  0.750000  1
  Tm  Tm5  1  0.239302  0.000000  0.250000  1
  Lu  Lu6  1  0.677053  0.346320  0.004850  1
  Lu  Lu7  1  0.330732  0.653680  0.495150  1
  Lu  Lu8  1  0.330732  0.653680  0.004850  1
  Lu  Lu9  1  0.677053  0.346320  0.495150  1
  Si  Si10  1  0.394084  0.391309  0.250000  1
  Si  Si11  1  0.002775  0.608691  0.250000  1
  Si  Si12  1  0.998564  0.395405  0.750000  1
  Si  Si13  1  0.603159  0.604595  0.750000  1
  Si  Si14  1  0.606505  0.000000  0.250000  1
  Bi  Bi15  1  0.393945  0.000000  0.750000  1
