# generated using pymatgen
data_Ac4Pr2CdSn9
_symmetry_space_group_name_H-M   'P 1'
_cell_length_a   6.79381348
_cell_length_b   6.79381327
_cell_length_c   10.92396553
_cell_angle_alpha   89.89266331
_cell_angle_beta   89.89266110
_cell_angle_gamma   102.97687793
_symmetry_Int_Tables_number   1
_chemical_formula_structural   Ac4Pr2CdSn9
_chemical_formula_sum   'Ac4 Pr2 Cd1 Sn9'
_cell_volume   491.32621758
_cell_formula_units_Z   1
loop_
 _symmetry_equiv_pos_site_id
 _symmetry_equiv_pos_as_xyz
  1  'x, y, z'
loop_
 _atom_site_type_symbol
 _atom_site_label
 _atom_site_symmetry_multiplicity
 _atom_site_fract_x
 _atom_site_fract_y
 _atom_site_fract_z
 _atom_site_occupancy
  Ac  Ac0  1  0.201365  0.799884  0.499848  1
  Ac  Ac1  1  0.201172  0.799296  0.999100  1
  Ac  Ac2  1  0.799884  0.201365  0.499848  1
  Ac  Ac3  1  0.799296  0.201172  0.999100  1
  Pr  Pr4  1  0.641002  0.641002  0.251101  1
  Pr  Pr5  1  0.363245  0.363245  0.750818  1
  Cd  Cd6  1  0.319447  0.319447  0.048267  1
  Sn  Sn7  1  0.028192  0.028192  0.249446  1
  Sn  Sn8  1  0.973437  0.973437  0.750864  1
  Sn  Sn9  1  0.672629  0.672629  0.952959  1
  Sn  Sn10  1  0.325493  0.325493  0.450856  1
  Sn  Sn11  1  0.673062  0.673062  0.550106  1
  Sn  Sn12  1  0.488108  0.077853  0.248168  1
  Sn  Sn13  1  0.924828  0.510987  0.750674  1
  Sn  Sn14  1  0.510987  0.924828  0.750674  1
  Sn  Sn15  1  0.077853  0.488108  0.248168  1
