# generated using pymatgen
data_Tb3Tm(Lu4Bi3)4
_symmetry_space_group_name_H-M   'P 1'
_cell_length_a   8.17167390
_cell_length_b   9.38976300
_cell_length_c   11.86002930
_cell_angle_alpha   90.00000000
_cell_angle_beta   90.05376399
_cell_angle_gamma   90.00000000
_symmetry_Int_Tables_number   1
_chemical_formula_structural   Tb3Tm(Lu4Bi3)4
_chemical_formula_sum   'Tb3 Tm1 Lu16 Bi12'
_cell_volume   910.02061133
_cell_formula_units_Z   1
loop_
 _symmetry_equiv_pos_site_id
 _symmetry_equiv_pos_as_xyz
  1  'x, y, z'
loop_
 _atom_site_type_symbol
 _atom_site_label
 _atom_site_symmetry_multiplicity
 _atom_site_fract_x
 _atom_site_fract_y
 _atom_site_fract_z
 _atom_site_occupancy
  Tb  Tb0  1  0.812818  0.250000  0.282041  1
  Tb  Tb1  1  0.686858  0.750000  0.781890  1
  Tb  Tb2  1  0.186894  0.750000  0.718017  1
  Tm  Tm3  1  0.312892  0.250000  0.217649  1
  Lu  Lu4  1  0.352638  0.750000  0.218390  1
  Lu  Lu5  1  0.852447  0.750000  0.281621  1
  Lu  Lu6  1  0.647341  0.250000  0.781659  1
  Lu  Lu7  1  0.147596  0.250000  0.718456  1
  Lu  Lu8  1  0.693078  0.567333  0.060181  1
  Lu  Lu9  1  0.192945  0.932763  0.439769  1
  Lu  Lu10  1  0.306962  0.067319  0.939946  1
  Lu  Lu11  1  0.807135  0.432812  0.560131  1
  Lu  Lu12  1  0.306962  0.432681  0.939946  1
  Lu  Lu13  1  0.807135  0.067188  0.560131  1
  Lu  Lu14  1  0.693078  0.932667  0.060181  1
  Lu  Lu15  1  0.192945  0.567237  0.439769  1
  Lu  Lu16  1  0.476304  0.250000  0.488914  1
  Lu  Lu17  1  0.976651  0.250000  0.011021  1
  Lu  Lu18  1  0.523484  0.750000  0.510813  1
  Lu  Lu19  1  0.023590  0.750000  0.989258  1
  Bi  Bi20  1  0.403781  0.750000  0.959925  1
  Bi  Bi21  1  0.903629  0.750000  0.540061  1
  Bi  Bi22  1  0.595508  0.250000  0.040756  1
  Bi  Bi23  1  0.096793  0.250000  0.459641  1
  Bi  Bi24  1  0.565177  0.994288  0.325807  1
  Bi  Bi25  1  0.066488  0.505548  0.173961  1
  Bi  Bi26  1  0.434379  0.493878  0.673985  1
  Bi  Bi27  1  0.934224  0.006198  0.826164  1
  Bi  Bi28  1  0.434379  0.006122  0.673985  1
  Bi  Bi29  1  0.934224  0.493802  0.826164  1
  Bi  Bi30  1  0.565177  0.505712  0.325807  1
  Bi  Bi31  1  0.066488  0.994452  0.173961  1
