# generated using pymatgen
data_Y20Zn3In3IrRu
_symmetry_space_group_name_H-M   'P 1'
_cell_length_a   9.72765400
_cell_length_b   9.72765445
_cell_length_c   9.58655200
_cell_angle_alpha   90.00000000
_cell_angle_beta   90.00000000
_cell_angle_gamma   119.99999848
_symmetry_Int_Tables_number   1
_chemical_formula_structural   Y20Zn3In3IrRu
_chemical_formula_sum   'Y20 Zn3 In3 Ir1 Ru1'
_cell_volume   785.61419234
_cell_formula_units_Z   1
loop_
 _symmetry_equiv_pos_site_id
 _symmetry_equiv_pos_as_xyz
  1  'x, y, z'
loop_
 _atom_site_type_symbol
 _atom_site_label
 _atom_site_symmetry_multiplicity
 _atom_site_fract_x
 _atom_site_fract_y
 _atom_site_fract_z
 _atom_site_occupancy
  Y  Y0  1  0.000000  0.000000  0.461204  1
  Y  Y1  1  0.000000  0.000000  0.038796  1
  Y  Y2  1  0.208614  0.791386  0.437121  1
  Y  Y3  1  0.208614  0.417228  0.437121  1
  Y  Y4  1  0.582772  0.791386  0.437121  1
  Y  Y5  1  0.792693  0.207307  0.559210  1
  Y  Y6  1  0.792693  0.585386  0.559210  1
  Y  Y7  1  0.414614  0.207307  0.559210  1
  Y  Y8  1  0.792693  0.207307  0.940790  1
  Y  Y9  1  0.792693  0.585386  0.940790  1
  Y  Y10  1  0.414614  0.207307  0.940790  1
  Y  Y11  1  0.208614  0.791386  0.062879  1
  Y  Y12  1  0.208614  0.417228  0.062879  1
  Y  Y13  1  0.582772  0.791386  0.062879  1
  Y  Y14  1  0.541200  0.458800  0.250000  1
  Y  Y15  1  0.541200  0.082401  0.250000  1
  Y  Y16  1  0.917599  0.458800  0.250000  1
  Y  Y17  1  0.459846  0.540154  0.750000  1
  Y  Y18  1  0.459846  0.919691  0.750000  1
  Y  Y19  1  0.080309  0.540154  0.750000  1
  Zn  Zn20  1  0.871935  0.128065  0.250000  1
  Zn  Zn21  1  0.871935  0.743872  0.250000  1
  Zn  Zn22  1  0.256128  0.128065  0.250000  1
  In  In23  1  0.109930  0.890070  0.750000  1
  In  In24  1  0.109930  0.219858  0.750000  1
  In  In25  1  0.780142  0.890070  0.750000  1
  Ir  Ir26  1  0.666667  0.333333  0.750000  1
  Ru  Ru27  1  0.333333  0.666667  0.250000  1
