# generated using pymatgen
data_Hf2Zr8Sn3Ge2Sb3
_symmetry_space_group_name_H-M   'P 1'
_cell_length_a   8.70543800
_cell_length_b   8.70543797
_cell_length_c   5.87525400
_cell_angle_alpha   90.00000000
_cell_angle_beta   90.00000000
_cell_angle_gamma   119.99999252
_symmetry_Int_Tables_number   1
_chemical_formula_structural   Hf2Zr8Sn3Ge2Sb3
_chemical_formula_sum   'Hf2 Zr8 Sn3 Ge2 Sb3'
_cell_volume   385.60136566
_cell_formula_units_Z   1
loop_
 _symmetry_equiv_pos_site_id
 _symmetry_equiv_pos_as_xyz
  1  'x, y, z'
loop_
 _atom_site_type_symbol
 _atom_site_label
 _atom_site_symmetry_multiplicity
 _atom_site_fract_x
 _atom_site_fract_y
 _atom_site_fract_z
 _atom_site_occupancy
  Hf  Hf0  1  0.666667  0.333333  0.997593  1
  Hf  Hf1  1  0.333333  0.666667  0.997593  1
  Zr  Zr2  1  0.333333  0.666667  0.501949  1
  Zr  Zr3  1  0.666667  0.333333  0.501949  1
  Zr  Zr4  1  0.733044  0.733044  0.750432  1
  Zr  Zr5  1  0.266956  0.000000  0.750432  1
  Zr  Zr6  1  0.000000  0.266956  0.750432  1
  Zr  Zr7  1  0.261431  0.261431  0.249839  1
  Zr  Zr8  1  0.738569  0.000000  0.249839  1
  Zr  Zr9  1  0.000000  0.738569  0.249839  1
  Sn  Sn10  1  0.390242  0.390242  0.750794  1
  Sn  Sn11  1  0.609758  0.000000  0.750794  1
  Sn  Sn12  1  0.000000  0.609758  0.750794  1
  Ge  Ge13  1  0.000000  0.000000  0.996109  1
  Ge  Ge14  1  0.000000  0.000000  0.503931  1
  Sb  Sb15  1  0.603545  0.603545  0.249227  1
  Sb  Sb16  1  0.396455  0.000000  0.249227  1
  Sb  Sb17  1  0.000000  0.396455  0.249227  1
