# generated using pymatgen
data_Hf4ReMoIr2
_symmetry_space_group_name_H-M   'P 1'
_cell_length_a   6.53398000
_cell_length_b   4.63947400
_cell_length_c   9.28102700
_cell_angle_alpha   90.00000000
_cell_angle_beta   90.00000000
_cell_angle_gamma   90.00000000
_symmetry_Int_Tables_number   1
_chemical_formula_structural   Hf4ReMoIr2
_chemical_formula_sum   'Hf8 Re2 Mo2 Ir4'
_cell_volume   281.34719014
_cell_formula_units_Z   2
loop_
 _symmetry_equiv_pos_site_id
 _symmetry_equiv_pos_as_xyz
  1  'x, y, z'
loop_
 _atom_site_type_symbol
 _atom_site_label
 _atom_site_symmetry_multiplicity
 _atom_site_fract_x
 _atom_site_fract_y
 _atom_site_fract_z
 _atom_site_occupancy
  Hf  Hf0  1  0.999908  0.750001  0.124969  1
  Hf  Hf1  1  0.499872  0.750001  0.124983  1
  Hf  Hf2  1  0.999872  0.250000  0.375017  1
  Hf  Hf3  1  0.499909  0.250000  0.375032  1
  Hf  Hf4  1  0.500125  0.750001  0.625050  1
  Hf  Hf5  1  0.000093  0.750001  0.625062  1
  Hf  Hf6  1  0.500094  0.250000  0.874938  1
  Hf  Hf7  1  0.000125  0.250000  0.874950  1
  Re  Re8  1  0.750080  0.250000  0.625206  1
  Re  Re9  1  0.250079  0.750001  0.874794  1
  Mo  Mo10  1  0.749920  0.250000  0.124778  1
  Mo  Mo11  1  0.249921  0.750001  0.375223  1
  Ir  Ir12  1  0.249918  0.250000  0.124952  1
  Ir  Ir13  1  0.749919  0.750001  0.375047  1
  Ir  Ir14  1  0.250083  0.250000  0.625126  1
  Ir  Ir15  1  0.750083  0.750001  0.874874  1
