# generated using pymatgen
data_Ho3Sc(Si4Tc3)2
_symmetry_space_group_name_H-M   'P 1'
_cell_length_a   6.75095081
_cell_length_b   6.72242331
_cell_length_c   6.74926729
_cell_angle_alpha   69.95800045
_cell_angle_beta   89.89572640
_cell_angle_gamma   90.13985762
_symmetry_Int_Tables_number   1
_chemical_formula_structural   Ho3Sc(Si4Tc3)2
_chemical_formula_sum   'Ho3 Sc1 Si8 Tc6'
_cell_volume   287.74925776
_cell_formula_units_Z   1
loop_
 _symmetry_equiv_pos_site_id
 _symmetry_equiv_pos_as_xyz
  1  'x, y, z'
loop_
 _atom_site_type_symbol
 _atom_site_label
 _atom_site_symmetry_multiplicity
 _atom_site_fract_x
 _atom_site_fract_y
 _atom_site_fract_z
 _atom_site_occupancy
  Ho  Ho0  1  0.167296  0.058942  0.807934  1
  Ho  Ho1  1  0.334018  0.556699  0.810633  1
  Ho  Ho2  1  0.832131  0.943265  0.190752  1
  Sc  Sc3  1  0.670952  0.441463  0.196067  1
  Si  Si4  1  0.450457  0.125870  0.104579  1
  Si  Si5  1  0.946152  0.378848  0.900977  1
  Si  Si6  1  0.551192  0.874289  0.900765  1
  Si  Si7  1  0.045883  0.622017  0.102904  1
  Si  Si8  1  0.856423  0.136038  0.508585  1
  Si  Si9  1  0.363246  0.367590  0.484245  1
  Si  Si10  1  0.142013  0.867381  0.486262  1
  Si  Si11  1  0.641568  0.629260  0.508552  1
  Tc  Tc12  1  0.500916  0.003494  0.497518  1
  Tc  Tc13  1  0.997737  0.500186  0.498366  1
  Tc  Tc14  1  0.148762  0.244074  0.239179  1
  Tc  Tc15  1  0.650760  0.255919  0.763138  1
  Tc  Tc16  1  0.847388  0.756754  0.761382  1
  Tc  Tc17  1  0.353109  0.737909  0.238162  1
