# generated using pymatgen
data_Ba4Sr2Sn8BiI
_symmetry_space_group_name_H-M   'P 1'
_cell_length_a   9.26834071
_cell_length_b   9.26833921
_cell_length_c   9.32296120
_cell_angle_alpha   119.80639061
_cell_angle_beta   119.80637919
_cell_angle_gamma   90.00000527
_symmetry_Int_Tables_number   1
_chemical_formula_structural   Ba4Sr2Sn8BiI
_chemical_formula_sum   'Ba4 Sr2 Sn8 Bi1 I1'
_cell_volume   569.59347348
_cell_formula_units_Z   1
loop_
 _symmetry_equiv_pos_site_id
 _symmetry_equiv_pos_as_xyz
  1  'x, y, z'
loop_
 _atom_site_type_symbol
 _atom_site_label
 _atom_site_symmetry_multiplicity
 _atom_site_fract_x
 _atom_site_fract_y
 _atom_site_fract_z
 _atom_site_occupancy
  Ba  Ba0  1  0.657521  0.166098  0.000000  1
  Ba  Ba1  1  0.342479  0.833902  0.000000  1
  Ba  Ba2  1  0.833902  0.657521  0.000000  1
  Ba  Ba3  1  0.166098  0.342479  0.000000  1
  Sr  Sr4  1  0.254189  0.254189  0.508378  1
  Sr  Sr5  1  0.745811  0.745811  0.491622  1
  Sn  Sn6  1  0.335518  0.835454  0.386824  1
  Sn  Sn7  1  0.664482  0.164546  0.613176  1
  Sn  Sn8  1  0.051306  0.551371  0.386824  1
  Sn  Sn9  1  0.551371  0.335518  0.386824  1
  Sn  Sn10  1  0.164546  0.948694  0.613176  1
  Sn  Sn11  1  0.948694  0.448629  0.613176  1
  Sn  Sn12  1  0.448629  0.664482  0.613176  1
  Sn  Sn13  1  0.835454  0.051306  0.386824  1
  Bi  Bi14  1  0.500000  0.500000  0.000000  1
  I  I15  1  0.000000  0.000000  0.000000  1
