# generated using pymatgen
data_LiNdErSi3Ag
_symmetry_space_group_name_H-M   'P 1'
_cell_length_a   9.32352842
_cell_length_b   9.32352804
_cell_length_c   6.98847300
_cell_angle_alpha   90.00000000
_cell_angle_beta   90.00000000
_cell_angle_gamma   153.51807241
_symmetry_Int_Tables_number   1
_chemical_formula_structural   LiNdErSi3Ag
_chemical_formula_sum   'Li2 Nd2 Er2 Si6 Ag2'
_cell_volume   270.89154384
_cell_formula_units_Z   2
loop_
 _symmetry_equiv_pos_site_id
 _symmetry_equiv_pos_as_xyz
  1  'x, y, z'
loop_
 _atom_site_type_symbol
 _atom_site_label
 _atom_site_symmetry_multiplicity
 _atom_site_fract_x
 _atom_site_fract_y
 _atom_site_fract_z
 _atom_site_occupancy
  Li  Li0  1  0.807895  0.192105  0.939436  1
  Li  Li1  1  0.807895  0.192105  0.560564  1
  Nd  Nd2  1  0.555021  0.444979  0.250000  1
  Nd  Nd3  1  0.446363  0.553637  0.750000  1
  Er  Er4  1  0.347593  0.652407  0.250000  1
  Er  Er5  1  0.651511  0.348489  0.750000  1
  Si  Si6  1  0.727028  0.272972  0.250000  1
  Si  Si7  1  0.277609  0.722391  0.750000  1
  Si  Si8  1  0.057633  0.942367  0.922136  1
  Si  Si9  1  0.940033  0.059967  0.077580  1
  Si  Si10  1  0.940033  0.059967  0.422420  1
  Si  Si11  1  0.057633  0.942367  0.577864  1
  Ag  Ag12  1  0.191878  0.808122  0.048950  1
  Ag  Ag13  1  0.191878  0.808122  0.451050  1
