# generated using pymatgen
data_Tm5BTe4
_symmetry_space_group_name_H-M   'P 1'
_cell_length_a   7.41566498
_cell_length_b   7.41566590
_cell_length_c   10.50353647
_cell_angle_alpha   60.93781343
_cell_angle_beta   60.93780794
_cell_angle_gamma   32.05009515
_symmetry_Int_Tables_number   1
_chemical_formula_structural   Tm5BTe4
_chemical_formula_sum   'Tm5 B1 Te4'
_cell_volume   264.48816018
_cell_formula_units_Z   1
loop_
 _symmetry_equiv_pos_site_id
 _symmetry_equiv_pos_as_xyz
  1  'x, y, z'
loop_
 _atom_site_type_symbol
 _atom_site_label
 _atom_site_symmetry_multiplicity
 _atom_site_fract_x
 _atom_site_fract_y
 _atom_site_fract_z
 _atom_site_occupancy
  Tm  Tm0  1  0.000000  0.000000  0.500000  1
  Tm  Tm1  1  0.575126  0.575126  0.079917  1
  Tm  Tm2  1  0.170008  0.170008  0.752199  1
  Tm  Tm3  1  0.829992  0.829992  0.247801  1
  Tm  Tm4  1  0.424874  0.424874  0.920083  1
  B  B5  1  0.000000  0.000000  0.000000  1
  Te  Te6  1  0.612029  0.612029  0.586641  1
  Te  Te7  1  0.193079  0.193079  0.192200  1
  Te  Te8  1  0.806921  0.806921  0.807800  1
  Te  Te9  1  0.387971  0.387971  0.413359  1
