# generated using pymatgen
data_Y2Sc3Nb3(Co4P3)4
_symmetry_space_group_name_H-M   'P 1'
_cell_length_a   12.09532400
_cell_length_b   12.09532413
_cell_length_c   3.65174100
_cell_angle_alpha   90.00000000
_cell_angle_beta   90.00000000
_cell_angle_gamma   119.99999965
_symmetry_Int_Tables_number   1
_chemical_formula_structural   Y2Sc3Nb3(Co4P3)4
_chemical_formula_sum   'Y2 Sc3 Nb3 Co16 P12'
_cell_volume   462.66390411
_cell_formula_units_Z   1
loop_
 _symmetry_equiv_pos_site_id
 _symmetry_equiv_pos_as_xyz
  1  'x, y, z'
loop_
 _atom_site_type_symbol
 _atom_site_label
 _atom_site_symmetry_multiplicity
 _atom_site_fract_x
 _atom_site_fract_y
 _atom_site_fract_z
 _atom_site_occupancy
  Y  Y0  1  0.333333  0.666667  0.000000  1
  Y  Y1  1  0.666667  0.333333  0.000000  1
  Sc  Sc2  1  0.817913  0.000000  0.500000  1
  Sc  Sc3  1  0.000000  0.817913  0.500000  1
  Sc  Sc4  1  0.182087  0.182087  0.500000  1
  Nb  Nb5  1  0.446282  0.000000  0.000000  1
  Nb  Nb6  1  0.000000  0.446282  0.000000  1
  Nb  Nb7  1  0.553718  0.553718  0.000000  1
  Co  Co8  1  0.275709  0.000000  0.500000  1
  Co  Co9  1  0.000000  0.275709  0.500000  1
  Co  Co10  1  0.724291  0.724291  0.500000  1
  Co  Co11  1  0.630817  0.806267  0.000000  1
  Co  Co12  1  0.193733  0.824550  0.000000  1
  Co  Co13  1  0.175450  0.369183  0.000000  1
  Co  Co14  1  0.369183  0.175450  0.000000  1
  Co  Co15  1  0.806267  0.630817  0.000000  1
  Co  Co16  1  0.824550  0.193733  0.000000  1
  Co  Co17  1  0.521908  0.874068  0.500000  1
  Co  Co18  1  0.125932  0.647840  0.500000  1
  Co  Co19  1  0.352160  0.478092  0.500000  1
  Co  Co20  1  0.478092  0.352160  0.500000  1
  Co  Co21  1  0.874068  0.521908  0.500000  1
  Co  Co22  1  0.647840  0.125932  0.500000  1
  Co  Co23  1  0.000000  0.000000  0.000000  1
  P  P24  1  0.174081  0.000000  0.000000  1
  P  P25  1  0.000000  0.174081  0.000000  1
  P  P26  1  0.825919  0.825919  0.000000  1
  P  P27  1  0.522183  0.689152  0.500000  1
  P  P28  1  0.310848  0.833031  0.500000  1
  P  P29  1  0.166969  0.477817  0.500000  1
  P  P30  1  0.477817  0.166969  0.500000  1
  P  P31  1  0.689152  0.522183  0.500000  1
  P  P32  1  0.833031  0.310848  0.500000  1
  P  P33  1  0.649287  0.000000  0.000000  1
  P  P34  1  0.000000  0.649287  0.000000  1
  P  P35  1  0.350713  0.350713  0.000000  1
