# generated using pymatgen
data_ErPa(SiNi)2
_symmetry_space_group_name_H-M   'P 1'
_cell_length_a   4.15133300
_cell_length_b   6.93673301
_cell_length_c   7.06045468
_cell_angle_alpha   89.73782737
_cell_angle_beta   90.00000000
_cell_angle_gamma   90.00000000
_symmetry_Int_Tables_number   1
_chemical_formula_structural   ErPa(SiNi)2
_chemical_formula_sum   'Er2 Pa2 Si4 Ni4'
_cell_volume   203.31558674
_cell_formula_units_Z   2
loop_
 _symmetry_equiv_pos_site_id
 _symmetry_equiv_pos_as_xyz
  1  'x, y, z'
loop_
 _atom_site_type_symbol
 _atom_site_label
 _atom_site_symmetry_multiplicity
 _atom_site_fract_x
 _atom_site_fract_y
 _atom_site_fract_z
 _atom_site_occupancy
  Er  Er0  1  0.750000  0.009267  0.704254  1
  Er  Er1  1  0.250000  0.990733  0.295746  1
  Pa  Pa2  1  0.250000  0.488585  0.201521  1
  Pa  Pa3  1  0.750000  0.511415  0.798479  1
  Si  Si4  1  0.250000  0.801803  0.910155  1
  Si  Si5  1  0.750000  0.198197  0.089845  1
  Si  Si6  1  0.750000  0.696372  0.406982  1
  Si  Si7  1  0.250000  0.303628  0.593018  1
  Ni  Ni8  1  0.250000  0.692292  0.581492  1
  Ni  Ni9  1  0.750000  0.307708  0.418508  1
  Ni  Ni10  1  0.750000  0.805642  0.077228  1
  Ni  Ni11  1  0.250000  0.194358  0.922772  1
