# generated using pymatgen
data_Tb4Nd2(IrRh5)3
_symmetry_space_group_name_H-M   'P 1'
_cell_length_a   5.31269800
_cell_length_b   5.30912514
_cell_length_c   17.54499429
_cell_angle_alpha   90.07705758
_cell_angle_beta   90.00000000
_cell_angle_gamma   120.02226402
_symmetry_Int_Tables_number   1
_chemical_formula_structural   Tb4Nd2(IrRh5)3
_chemical_formula_sum   'Tb4 Nd2 Ir3 Rh15'
_cell_volume   428.47348712
_cell_formula_units_Z   1
loop_
 _symmetry_equiv_pos_site_id
 _symmetry_equiv_pos_as_xyz
  1  'x, y, z'
loop_
 _atom_site_type_symbol
 _atom_site_label
 _atom_site_symmetry_multiplicity
 _atom_site_fract_x
 _atom_site_fract_y
 _atom_site_fract_z
 _atom_site_occupancy
  Tb  Tb0  1  0.333266  0.666532  0.541214  1
  Tb  Tb1  1  0.667646  0.335290  0.040968  1
  Tb  Tb2  1  0.666726  0.333451  0.458894  1
  Tb  Tb3  1  0.333793  0.667586  0.959091  1
  Nd  Nd4  1  0.333353  0.666707  0.750070  1
  Nd  Nd5  1  0.666534  0.333067  0.249626  1
  Ir  Ir6  1  0.165744  0.331488  0.125345  1
  Ir  Ir7  1  0.002252  0.004505  0.999886  1
  Ir  Ir8  1  0.999707  0.999415  0.499981  1
  Rh  Rh9  1  0.832830  0.665662  0.624999  1
  Rh  Rh10  1  0.664097  0.829933  0.125119  1
  Rh  Rh11  1  0.165838  0.829933  0.125119  1
  Rh  Rh12  1  0.833032  0.167120  0.625173  1
  Rh  Rh13  1  0.334087  0.167120  0.625173  1
  Rh  Rh14  1  0.833089  0.666178  0.874858  1
  Rh  Rh15  1  0.833033  0.167443  0.874704  1
  Rh  Rh16  1  0.334409  0.167443  0.874704  1
  Rh  Rh17  1  0.665942  0.832645  0.374726  1
  Rh  Rh18  1  0.166703  0.832645  0.374726  1
  Rh  Rh19  1  0.167272  0.334544  0.375834  1
  Rh  Rh20  1  0.002534  0.005068  0.249921  1
  Rh  Rh21  1  0.999596  0.999192  0.750016  1
  Rh  Rh22  1  0.331568  0.663136  0.250033  1
  Rh  Rh23  1  0.666949  0.333898  0.749819  1
