# generated using pymatgen
data_Ho3ZnCd2CuPd2
_symmetry_space_group_name_H-M   'P 1'
_cell_length_a   7.61636099
_cell_length_b   7.63733576
_cell_length_c   3.71394000
_cell_angle_alpha   90.00000000
_cell_angle_beta   90.00000000
_cell_angle_gamma   120.09113868
_symmetry_Int_Tables_number   1
_chemical_formula_structural   Ho3ZnCd2CuPd2
_chemical_formula_sum   'Ho3 Zn1 Cd2 Cu1 Pd2'
_cell_volume   186.91981439
_cell_formula_units_Z   1
loop_
 _symmetry_equiv_pos_site_id
 _symmetry_equiv_pos_as_xyz
  1  'x, y, z'
loop_
 _atom_site_type_symbol
 _atom_site_label
 _atom_site_symmetry_multiplicity
 _atom_site_fract_x
 _atom_site_fract_y
 _atom_site_fract_z
 _atom_site_occupancy
  Ho  Ho0  1  0.399176  0.405499  0.000000  1
  Ho  Ho1  1  0.600824  0.006323  0.000000  1
  Ho  Ho2  1  0.000000  0.572833  0.000000  1
  Zn  Zn3  1  0.000000  0.254880  0.500000  1
  Cd  Cd4  1  0.756290  0.748957  0.500000  1
  Cd  Cd5  1  0.243710  0.992667  0.500000  1
  Cu  Cu6  1  0.000000  0.027263  0.000000  1
  Pd  Pd7  1  0.666203  0.328890  0.500000  1
  Pd  Pd8  1  0.333797  0.662689  0.500000  1
