# generated using pymatgen
data_MgNp3Sb5
_symmetry_space_group_name_H-M   'P 1'
_cell_length_a   9.26795400
_cell_length_b   9.26795298
_cell_length_c   6.16743500
_cell_angle_alpha   90.00000000
_cell_angle_beta   90.00000000
_cell_angle_gamma   119.99999652
_symmetry_Int_Tables_number   1
_chemical_formula_structural   MgNp3Sb5
_chemical_formula_sum   'Mg2 Np6 Sb10'
_cell_volume   458.77835426
_cell_formula_units_Z   2
loop_
 _symmetry_equiv_pos_site_id
 _symmetry_equiv_pos_as_xyz
  1  'x, y, z'
loop_
 _atom_site_type_symbol
 _atom_site_label
 _atom_site_symmetry_multiplicity
 _atom_site_fract_x
 _atom_site_fract_y
 _atom_site_fract_z
 _atom_site_occupancy
  Mg  Mg0  1  0.000000  0.000000  0.000000  1
  Mg  Mg1  1  0.000000  0.000000  0.500000  1
  Np  Np2  1  0.615335  0.000000  0.250000  1
  Np  Np3  1  0.384665  0.000000  0.750000  1
  Np  Np4  1  0.000000  0.615335  0.250000  1
  Np  Np5  1  0.000000  0.384665  0.750000  1
  Np  Np6  1  0.384665  0.384665  0.250000  1
  Np  Np7  1  0.615335  0.615335  0.750000  1
  Sb  Sb8  1  0.270784  0.000000  0.250000  1
  Sb  Sb9  1  0.729216  0.000000  0.750000  1
  Sb  Sb10  1  0.000000  0.270784  0.250000  1
  Sb  Sb11  1  0.000000  0.729216  0.750000  1
  Sb  Sb12  1  0.729216  0.729216  0.250000  1
  Sb  Sb13  1  0.270784  0.270784  0.750000  1
  Sb  Sb14  1  0.333333  0.666667  0.000000  1
  Sb  Sb15  1  0.666667  0.333333  0.000000  1
  Sb  Sb16  1  0.666667  0.333333  0.500000  1
  Sb  Sb17  1  0.333333  0.666667  0.500000  1
