# generated using pymatgen
data_Tb7Dy9(CoHg3)2
_symmetry_space_group_name_H-M   'P 1'
_cell_length_a   10.19202000
_cell_length_b   10.19082510
_cell_length_c   7.10734203
_cell_angle_alpha   90.00919265
_cell_angle_beta   90.00000000
_cell_angle_gamma   120.00387226
_symmetry_Int_Tables_number   1
_chemical_formula_structural   Tb7Dy9(CoHg3)2
_chemical_formula_sum   'Tb7 Dy9 Co2 Hg6'
_cell_volume   639.27910280
_cell_formula_units_Z   1
loop_
 _symmetry_equiv_pos_site_id
 _symmetry_equiv_pos_as_xyz
  1  'x, y, z'
loop_
 _atom_site_type_symbol
 _atom_site_label
 _atom_site_symmetry_multiplicity
 _atom_site_fract_x
 _atom_site_fract_y
 _atom_site_fract_z
 _atom_site_occupancy
  Tb  Tb0  1  0.922323  0.461123  0.790343  1
  Tb  Tb1  1  0.538801  0.461123  0.790343  1
  Tb  Tb2  1  0.461223  0.922446  0.290433  1
  Tb  Tb3  1  0.077590  0.538787  0.290340  1
  Tb  Tb4  1  0.461195  0.538787  0.290340  1
  Tb  Tb5  1  0.000019  0.000038  0.775629  1
  Tb  Tb6  1  0.999996  0.999991  0.275629  1
  Dy  Dy7  1  0.826550  0.653102  0.483508  1
  Dy  Dy8  1  0.346997  0.173461  0.483656  1
  Dy  Dy9  1  0.826462  0.173461  0.483656  1
  Dy  Dy10  1  0.173478  0.346954  0.983585  1
  Dy  Dy11  1  0.653040  0.826603  0.983528  1
  Dy  Dy12  1  0.173565  0.826603  0.983528  1
  Dy  Dy13  1  0.666634  0.333267  0.184678  1
  Dy  Dy14  1  0.333389  0.666779  0.684775  1
  Dy  Dy15  1  0.538865  0.077729  0.790413  1
  Co  Co16  1  0.666599  0.333197  0.553654  1
  Co  Co17  1  0.333323  0.666647  0.053562  1
  Hg  Hg18  1  0.832878  0.665758  0.042439  1
  Hg  Hg19  1  0.334285  0.167046  0.042327  1
  Hg  Hg20  1  0.832760  0.167046  0.042327  1
  Hg  Hg21  1  0.167109  0.334217  0.542480  1
  Hg  Hg22  1  0.665789  0.832918  0.542455  1
  Hg  Hg23  1  0.167130  0.832918  0.542455  1
