# generated using pymatgen
data_Rb8Zr6BCl20
_symmetry_space_group_name_H-M   'P 1'
_cell_length_a   11.51203992
_cell_length_b   11.51203984
_cell_length_c   11.51204000
_cell_angle_alpha   59.99999955
_cell_angle_beta   59.99999978
_cell_angle_gamma   59.99999796
_symmetry_Int_Tables_number   1
_chemical_formula_structural   Rb8Zr6BCl20
_chemical_formula_sum   'Rb8 Zr6 B1 Cl20'
_cell_volume   1078.80227656
_cell_formula_units_Z   1
loop_
 _symmetry_equiv_pos_site_id
 _symmetry_equiv_pos_as_xyz
  1  'x, y, z'
loop_
 _atom_site_type_symbol
 _atom_site_label
 _atom_site_symmetry_multiplicity
 _atom_site_fract_x
 _atom_site_fract_y
 _atom_site_fract_z
 _atom_site_occupancy
  Rb  Rb0  1  0.360165  0.360165  0.360165  1
  Rb  Rb1  1  0.639835  0.639835  0.639835  1
  Rb  Rb2  1  0.360165  0.360165  0.919507  1
  Rb  Rb3  1  0.360165  0.919507  0.360165  1
  Rb  Rb4  1  0.639835  0.639835  0.080493  1
  Rb  Rb5  1  0.639835  0.080493  0.639835  1
  Rb  Rb6  1  0.919507  0.360165  0.360165  1
  Rb  Rb7  1  0.080493  0.639835  0.639835  1
  Zr  Zr8  1  0.858666  0.141334  0.141334  1
  Zr  Zr9  1  0.141334  0.858666  0.858666  1
  Zr  Zr10  1  0.141334  0.858666  0.141334  1
  Zr  Zr11  1  0.858666  0.141334  0.858666  1
  Zr  Zr12  1  0.141334  0.141334  0.858666  1
  Zr  Zr13  1  0.858666  0.858666  0.141334  1
  B  B14  1  0.000000  0.000000  0.000000  1
  Cl  Cl15  1  0.318321  0.000000  0.000000  1
  Cl  Cl16  1  0.681679  0.000000  0.000000  1
  Cl  Cl17  1  0.000000  0.318321  0.681679  1
  Cl  Cl18  1  0.000000  0.681679  0.318321  1
  Cl  Cl19  1  0.000000  0.318321  0.000000  1
  Cl  Cl20  1  0.681679  0.000000  0.318321  1
  Cl  Cl21  1  0.000000  0.681679  0.000000  1
  Cl  Cl22  1  0.318321  0.000000  0.681679  1
  Cl  Cl23  1  0.000000  0.000000  0.318321  1
  Cl  Cl24  1  0.000000  0.000000  0.681679  1
  Cl  Cl25  1  0.681679  0.318321  0.000000  1
  Cl  Cl26  1  0.318321  0.681679  0.000000  1
  Cl  Cl27  1  0.691267  0.308733  0.308733  1
  Cl  Cl28  1  0.308733  0.691267  0.691267  1
  Cl  Cl29  1  0.308733  0.691267  0.308733  1
  Cl  Cl30  1  0.691267  0.308733  0.691267  1
  Cl  Cl31  1  0.308733  0.308733  0.691267  1
  Cl  Cl32  1  0.691267  0.691267  0.308733  1
  Cl  Cl33  1  0.250000  0.250000  0.250000  1
  Cl  Cl34  1  0.750000  0.750000  0.750000  1
