# generated using pymatgen
data_Lu8ZnInPd2
_symmetry_space_group_name_H-M   'P 1'
_cell_length_a   9.37195950
_cell_length_b   9.37195947
_cell_length_c   9.38078300
_cell_angle_alpha   59.96884761
_cell_angle_beta   59.96884772
_cell_angle_gamma   60.02800413
_symmetry_Int_Tables_number   1
_chemical_formula_structural   Lu8ZnInPd2
_chemical_formula_sum   'Lu16 Zn2 In2 Pd4'
_cell_volume   582.46788497
_cell_formula_units_Z   2
loop_
 _symmetry_equiv_pos_site_id
 _symmetry_equiv_pos_as_xyz
  1  'x, y, z'
loop_
 _atom_site_type_symbol
 _atom_site_label
 _atom_site_symmetry_multiplicity
 _atom_site_fract_x
 _atom_site_fract_y
 _atom_site_fract_z
 _atom_site_occupancy
  Lu  Lu0  1  0.607172  0.607172  0.604043  1
  Lu  Lu1  1  0.607172  0.607172  0.181615  1
  Lu  Lu2  1  0.610718  0.177358  0.605963  1
  Lu  Lu3  1  0.177358  0.610718  0.605963  1
  Lu  Lu4  1  0.060271  0.440748  0.439527  1
  Lu  Lu5  1  0.440748  0.060271  0.059455  1
  Lu  Lu6  1  0.440748  0.060271  0.439527  1
  Lu  Lu7  1  0.060271  0.440748  0.059455  1
  Lu  Lu8  1  0.440074  0.440074  0.059926  1
  Lu  Lu9  1  0.059483  0.059483  0.440517  1
  Lu  Lu10  1  0.178048  0.814489  0.816908  1
  Lu  Lu11  1  0.814489  0.178048  0.190555  1
  Lu  Lu12  1  0.814489  0.178048  0.816908  1
  Lu  Lu13  1  0.178048  0.814489  0.190555  1
  Lu  Lu14  1  0.814847  0.814847  0.185153  1
  Lu  Lu15  1  0.184238  0.184238  0.815762  1
  Zn  Zn16  1  0.835722  0.835722  0.832340  1
  Zn  Zn17  1  0.835722  0.835722  0.496216  1
  In  In18  1  0.834634  0.504387  0.830489  1
  In  In19  1  0.504387  0.834634  0.830489  1
  Pd  Pd20  1  0.395866  0.395866  0.396572  1
  Pd  Pd21  1  0.395866  0.395866  0.811695  1
  Pd  Pd22  1  0.395469  0.814162  0.395183  1
  Pd  Pd23  1  0.814162  0.395469  0.395183  1
