# generated using pymatgen
data_Yb2Al2Ag5
_symmetry_space_group_name_H-M   'P 1'
_cell_length_a   5.60436115
_cell_length_b   5.42212521
_cell_length_c   13.77746600
_cell_angle_alpha   90.00000000
_cell_angle_beta   90.00000000
_cell_angle_gamma   119.52272385
_symmetry_Int_Tables_number   1
_chemical_formula_structural   Yb2Al2Ag5
_chemical_formula_sum   'Yb4 Al4 Ag10'
_cell_volume   364.30428838
_cell_formula_units_Z   2
loop_
 _symmetry_equiv_pos_site_id
 _symmetry_equiv_pos_as_xyz
  1  'x, y, z'
loop_
 _atom_site_type_symbol
 _atom_site_label
 _atom_site_symmetry_multiplicity
 _atom_site_fract_x
 _atom_site_fract_y
 _atom_site_fract_z
 _atom_site_occupancy
  Yb  Yb0  1  0.817026  0.819155  0.113955  1
  Yb  Yb1  1  0.178649  0.176764  0.884605  1
  Yb  Yb2  1  0.817026  0.819155  0.386045  1
  Yb  Yb3  1  0.178649  0.176764  0.615395  1
  Al  Al4  1  0.169029  0.674110  0.750000  1
  Al  Al5  1  0.673049  0.172025  0.750000  1
  Al  Al6  1  0.676011  0.672115  0.750000  1
  Al  Al7  1  0.328355  0.832123  0.250000  1
  Ag  Ag8  1  0.170591  0.511679  0.074799  1
  Ag  Ag9  1  0.508536  0.834663  0.913798  1
  Ag  Ag10  1  0.489761  0.153223  0.075692  1
  Ag  Ag11  1  0.830594  0.499317  0.582357  1
  Ag  Ag12  1  0.489761  0.153223  0.424308  1
  Ag  Ag13  1  0.830594  0.499317  0.917643  1
  Ag  Ag14  1  0.832009  0.329345  0.250000  1
  Ag  Ag15  1  0.508536  0.834663  0.586202  1
  Ag  Ag16  1  0.170591  0.511679  0.425201  1
  Ag  Ag17  1  0.331235  0.330679  0.250000  1
