# generated using pymatgen
data_GdMoH9
_symmetry_space_group_name_H-M   'P 1'
_cell_length_a   4.76098400
_cell_length_b   4.76098306
_cell_length_c   8.81948400
_cell_angle_alpha   90.00000000
_cell_angle_beta   90.00000000
_cell_angle_gamma   120.00000656
_symmetry_Int_Tables_number   1
_chemical_formula_structural   GdMoH9
_chemical_formula_sum   'Gd2 Mo2 H18'
_cell_volume   173.12793038
_cell_formula_units_Z   2
loop_
 _symmetry_equiv_pos_site_id
 _symmetry_equiv_pos_as_xyz
  1  'x, y, z'
loop_
 _atom_site_type_symbol
 _atom_site_label
 _atom_site_symmetry_multiplicity
 _atom_site_fract_x
 _atom_site_fract_y
 _atom_site_fract_z
 _atom_site_occupancy
  Gd  Gd0  1  0.000000  0.000000  0.000000  1
  Gd  Gd1  1  0.000000  0.000000  0.500000  1
  Mo  Mo2  1  0.333333  0.666667  0.250000  1
  Mo  Mo3  1  0.666667  0.333333  0.750000  1
  H  H4  1  0.483260  0.516740  0.393544  1
  H  H5  1  0.483260  0.966519  0.393544  1
  H  H6  1  0.033481  0.516740  0.393544  1
  H  H7  1  0.966519  0.483260  0.893544  1
  H  H8  1  0.126681  0.253361  0.250000  1
  H  H9  1  0.873319  0.126681  0.750000  1
  H  H10  1  0.253361  0.126681  0.750000  1
  H  H11  1  0.746639  0.873319  0.250000  1
  H  H12  1  0.126681  0.873319  0.250000  1
  H  H13  1  0.873319  0.746639  0.750000  1
  H  H14  1  0.483260  0.966519  0.106456  1
  H  H15  1  0.516740  0.483260  0.606456  1
  H  H16  1  0.966519  0.483260  0.606456  1
  H  H17  1  0.033481  0.516740  0.106456  1
  H  H18  1  0.483260  0.516740  0.106456  1
  H  H19  1  0.516740  0.033481  0.893544  1
  H  H20  1  0.516740  0.483260  0.893544  1
  H  H21  1  0.516740  0.033481  0.606456  1
