# generated using pymatgen
data_Sr4Y3Er(BO4)4
_symmetry_space_group_name_H-M   'P 1'
_cell_length_a   3.67457700
_cell_length_b   9.74889278
_cell_length_c   10.98039903
_cell_angle_alpha   89.93054226
_cell_angle_beta   90.00000000
_cell_angle_gamma   90.00000000
_symmetry_Int_Tables_number   1
_chemical_formula_structural   Sr4Y3Er(BO4)4
_chemical_formula_sum   'Sr4 Y3 Er1 B4 O16'
_cell_volume   393.35117331
_cell_formula_units_Z   1
loop_
 _symmetry_equiv_pos_site_id
 _symmetry_equiv_pos_as_xyz
  1  'x, y, z'
loop_
 _atom_site_type_symbol
 _atom_site_label
 _atom_site_symmetry_multiplicity
 _atom_site_fract_x
 _atom_site_fract_y
 _atom_site_fract_z
 _atom_site_occupancy
  Sr  Sr0  1  0.250000  0.657252  0.084089  1
  Sr  Sr1  1  0.750000  0.342817  0.914950  1
  Sr  Sr2  1  0.750000  0.158120  0.416352  1
  Sr  Sr3  1  0.250000  0.842127  0.584387  1
  Y  Y4  1  0.250000  0.080756  0.110319  1
  Y  Y5  1  0.750000  0.919470  0.889536  1
  Y  Y6  1  0.750000  0.580145  0.390656  1
  Er  Er7  1  0.250000  0.419636  0.610019  1
  B  B8  1  0.250000  0.363307  0.204394  1
  B  B9  1  0.750000  0.636266  0.794966  1
  B  B10  1  0.750000  0.863105  0.295663  1
  B  B11  1  0.250000  0.137603  0.703697  1
  O  O12  1  0.250000  0.488537  0.264842  1
  O  O13  1  0.750000  0.511207  0.734310  1
  O  O14  1  0.750000  0.988651  0.235650  1
  O  O15  1  0.250000  0.012423  0.764496  1
  O  O16  1  0.250000  0.239789  0.268783  1
  O  O17  1  0.750000  0.760306  0.731142  1
  O  O18  1  0.750000  0.739544  0.231553  1
  O  O19  1  0.250000  0.261796  0.766945  1
  O  O20  1  0.250000  0.360279  0.076943  1
  O  O21  1  0.750000  0.639156  0.922520  1
  O  O22  1  0.750000  0.859476  0.423189  1
  O  O23  1  0.250000  0.140046  0.576290  1
  O  O24  1  0.250000  0.612438  0.502352  1
  O  O25  1  0.750000  0.385647  0.502183  1
  O  O26  1  0.750000  0.114515  0.998981  1
  O  O27  1  0.250000  0.885585  0.000792  1
