# generated using pymatgen
data_Na2GeSbAu2
_symmetry_space_group_name_H-M   'P 1'
_cell_length_a   5.94327677
_cell_length_b   5.90071096
_cell_length_c   5.90071206
_cell_angle_alpha   134.06455302
_cell_angle_beta   102.84912100
_cell_angle_gamma   94.58662165
_symmetry_Int_Tables_number   1
_chemical_formula_structural   Na2GeSbAu2
_chemical_formula_sum   'Na2 Ge1 Sb1 Au2'
_cell_volume   136.59912292
_cell_formula_units_Z   1
loop_
 _symmetry_equiv_pos_site_id
 _symmetry_equiv_pos_as_xyz
  1  'x, y, z'
loop_
 _atom_site_type_symbol
 _atom_site_label
 _atom_site_symmetry_multiplicity
 _atom_site_fract_x
 _atom_site_fract_y
 _atom_site_fract_z
 _atom_site_occupancy
  Na  Na0  1  0.209275  0.709874  0.499402  1
  Na  Na1  1  0.600566  0.602477  0.998089  1
  Ge  Ge2  1  0.636557  0.326057  0.310501  1
  Sb  Sb3  1  0.007288  0.322531  0.684758  1
  Au  Au4  1  0.230054  0.015738  0.214316  1
  Au  Au5  1  0.774119  0.981184  0.792935  1
