# generated using pymatgen
data_Nd2Al3Si(IrPt)2
_symmetry_space_group_name_H-M   'P 1'
_cell_length_a   4.22165900
_cell_length_b   4.22165900
_cell_length_c   10.43211400
_cell_angle_alpha   90.00000000
_cell_angle_beta   90.00000000
_cell_angle_gamma   90.00000000
_symmetry_Int_Tables_number   1
_chemical_formula_structural   Nd2Al3Si(IrPt)2
_chemical_formula_sum   'Nd2 Al3 Si1 Ir2 Pt2'
_cell_volume   185.92535771
_cell_formula_units_Z   1
loop_
 _symmetry_equiv_pos_site_id
 _symmetry_equiv_pos_as_xyz
  1  'x, y, z'
loop_
 _atom_site_type_symbol
 _atom_site_label
 _atom_site_symmetry_multiplicity
 _atom_site_fract_x
 _atom_site_fract_y
 _atom_site_fract_z
 _atom_site_occupancy
  Nd  Nd0  1  0.000000  0.500000  0.239171  1
  Nd  Nd1  1  0.500000  0.000000  0.756683  1
  Al  Al2  1  0.000000  0.000000  0.498151  1
  Al  Al3  1  0.500000  0.500000  0.498151  1
  Al  Al4  1  0.000000  0.500000  0.878912  1
  Si  Si5  1  0.500000  0.000000  0.120492  1
  Ir  Ir6  1  0.000000  0.000000  0.007486  1
  Ir  Ir7  1  0.500000  0.500000  0.007486  1
  Pt  Pt8  1  0.000000  0.500000  0.635704  1
  Pt  Pt9  1  0.500000  0.000000  0.357767  1
