# generated using pymatgen
data_Nd4Sm2FeBr10
_symmetry_space_group_name_H-M   'P 1'
_cell_length_a   7.55882740
_cell_length_b   9.51341101
_cell_length_c   9.45404553
_cell_angle_alpha   107.67884688
_cell_angle_beta   97.13237796
_cell_angle_gamma   105.98125751
_symmetry_Int_Tables_number   1
_chemical_formula_structural   Nd4Sm2FeBr10
_chemical_formula_sum   'Nd4 Sm2 Fe1 Br10'
_cell_volume   606.46997501
_cell_formula_units_Z   1
loop_
 _symmetry_equiv_pos_site_id
 _symmetry_equiv_pos_as_xyz
  1  'x, y, z'
loop_
 _atom_site_type_symbol
 _atom_site_label
 _atom_site_symmetry_multiplicity
 _atom_site_fract_x
 _atom_site_fract_y
 _atom_site_fract_z
 _atom_site_occupancy
  Nd  Nd0  1  0.376727  0.452073  0.738063  1
  Nd  Nd1  1  0.623273  0.547927  0.261937  1
  Nd  Nd2  1  0.851734  0.631986  0.675491  1
  Nd  Nd3  1  0.148266  0.368014  0.324509  1
  Sm  Sm4  1  0.466938  0.798814  0.593551  1
  Sm  Sm5  1  0.533062  0.201186  0.406449  1
  Fe  Fe6  1  0.500000  0.500000  0.500000  1
  Br  Br7  1  0.415519  0.130254  0.668824  1
  Br  Br8  1  0.584481  0.869746  0.331176  1
  Br  Br9  1  0.047350  0.678773  0.416655  1
  Br  Br10  1  0.952650  0.321227  0.583345  1
  Br  Br11  1  0.291143  0.755265  0.843912  1
  Br  Br12  1  0.708857  0.244735  0.156088  1
  Br  Br13  1  0.249105  0.415599  0.045889  1
  Br  Br14  1  0.750895  0.584401  0.954111  1
  Br  Br15  1  0.844237  0.952259  0.771136  1
  Br  Br16  1  0.155763  0.047741  0.228864  1
