# generated using pymatgen
data_Nd2Er3In3Pb
_symmetry_space_group_name_H-M   'P 1'
_cell_length_a   8.01490400
_cell_length_b   8.42003100
_cell_length_c   15.91888200
_cell_angle_alpha   90.00000000
_cell_angle_beta   90.00000000
_cell_angle_gamma   90.00000000
_symmetry_Int_Tables_number   1
_chemical_formula_structural   Nd2Er3In3Pb
_chemical_formula_sum   'Nd8 Er12 In12 Pb4'
_cell_volume   1074.29753400
_cell_formula_units_Z   4
loop_
 _symmetry_equiv_pos_site_id
 _symmetry_equiv_pos_as_xyz
  1  'x, y, z'
loop_
 _atom_site_type_symbol
 _atom_site_label
 _atom_site_symmetry_multiplicity
 _atom_site_fract_x
 _atom_site_fract_y
 _atom_site_fract_z
 _atom_site_occupancy
  Nd  Nd0  1  0.502848  0.683405  0.594893  1
  Nd  Nd1  1  0.002848  0.816595  0.905107  1
  Nd  Nd2  1  0.497152  0.316595  0.094893  1
  Nd  Nd3  1  0.997152  0.183405  0.405107  1
  Nd  Nd4  1  0.504313  0.317774  0.404506  1
  Nd  Nd5  1  0.004313  0.182226  0.095494  1
  Nd  Nd6  1  0.495687  0.682226  0.904506  1
  Nd  Nd7  1  0.995687  0.817774  0.595494  1
  Er  Er8  1  0.662407  0.166858  0.625281  1
  Er  Er9  1  0.162407  0.333142  0.874719  1
  Er  Er10  1  0.337593  0.833142  0.125281  1
  Er  Er11  1  0.837593  0.666858  0.374719  1
  Er  Er12  1  0.344936  0.830676  0.374333  1
  Er  Er13  1  0.844936  0.669324  0.125667  1
  Er  Er14  1  0.655064  0.169324  0.874333  1
  Er  Er15  1  0.155064  0.330676  0.625667  1
  Er  Er16  1  0.822274  0.502358  0.748842  1
  Er  Er17  1  0.322274  0.997642  0.751158  1
  Er  Er18  1  0.177726  0.497642  0.248842  1
  Er  Er19  1  0.677726  0.002358  0.251158  1
  In  In20  1  0.679314  0.961723  0.458839  1
  In  In21  1  0.179314  0.538277  0.041161  1
  In  In22  1  0.320686  0.038277  0.958839  1
  In  In23  1  0.820686  0.461723  0.541161  1
  In  In24  1  0.457937  0.385173  0.746934  1
  In  In25  1  0.957937  0.114827  0.753066  1
  In  In26  1  0.542063  0.614827  0.246934  1
  In  In27  1  0.042063  0.885173  0.253066  1
  In  In28  1  0.698836  0.865205  0.750640  1
  In  In29  1  0.198836  0.634795  0.749360  1
  In  In30  1  0.301164  0.134795  0.250640  1
  In  In31  1  0.801164  0.365205  0.249360  1
  Pb  Pb32  1  0.322009  0.036840  0.540025  1
  Pb  Pb33  1  0.822009  0.463160  0.959975  1
  Pb  Pb34  1  0.677991  0.963160  0.040025  1
  Pb  Pb35  1  0.177991  0.536840  0.459975  1
