# generated using pymatgen
data_Sr4V7FeAs8(O4F)8
_symmetry_space_group_name_H-M   'P 1'
_cell_length_a   5.07304800
_cell_length_b   12.74918300
_cell_length_c   13.02335300
_cell_angle_alpha   90.00000000
_cell_angle_beta   90.00000000
_cell_angle_gamma   90.00000000
_symmetry_Int_Tables_number   1
_chemical_formula_structural   Sr4V7FeAs8(O4F)8
_chemical_formula_sum   'Sr4 V7 Fe1 As8 O32 F8'
_cell_volume   842.31423221
_cell_formula_units_Z   1
loop_
 _symmetry_equiv_pos_site_id
 _symmetry_equiv_pos_as_xyz
  1  'x, y, z'
loop_
 _atom_site_type_symbol
 _atom_site_label
 _atom_site_symmetry_multiplicity
 _atom_site_fract_x
 _atom_site_fract_y
 _atom_site_fract_z
 _atom_site_occupancy
  Sr  Sr0  1  0.741036  0.505113  0.235404  1
  Sr  Sr1  1  0.260607  0.005798  0.263361  1
  Sr  Sr2  1  0.758328  0.495223  0.736630  1
  Sr  Sr3  1  0.241629  0.994887  0.763893  1
  V  V4  1  0.485156  0.857927  0.000240  1
  V  V5  1  0.249308  0.248232  0.108450  1
  V  V6  1  0.749942  0.747492  0.390830  1
  V  V7  1  0.514722  0.358096  0.500418  1
  V  V8  1  0.014944  0.141726  0.499626  1
  V  V9  1  0.251921  0.751430  0.608876  1
  V  V10  1  0.749460  0.252015  0.890787  1
  Fe  Fe11  1  0.982383  0.641212  0.999220  1
  As  As12  1  0.963112  0.033989  0.999852  1
  As  As13  1  0.249301  0.738095  0.216568  1
  As  As14  1  0.749544  0.238021  0.282681  1
  As  As15  1  0.036907  0.533879  0.500037  1
  As  As16  1  0.537375  0.965524  0.499957  1
  As  As17  1  0.249257  0.262203  0.717460  1
  As  As18  1  0.751612  0.763029  0.783058  1
  As  As19  1  0.461979  0.466076  0.999974  1
  O  O20  1  0.682516  0.555880  0.049532  1
  O  O21  1  0.685759  0.978941  0.051185  1
  O  O22  1  0.098699  0.099730  0.102552  1
  O  O23  1  0.413514  0.393819  0.111111  1
  O  O24  1  0.336689  0.847236  0.146690  1
  O  O25  1  0.107277  0.634503  0.151189  1
  O  O26  1  0.957109  0.299659  0.196331  1
  O  O27  1  0.473889  0.185775  0.224494  1
  O  O28  1  0.522405  0.684530  0.275666  1
  O  O29  1  0.039992  0.798946  0.302813  1
  O  O30  1  0.890687  0.133054  0.345843  1
  O  O31  1  0.665036  0.346660  0.354340  1
  O  O32  1  0.585958  0.893381  0.388995  1
  O  O33  1  0.902309  0.598758  0.396722  1
  O  O34  1  0.315998  0.479110  0.449770  1
  O  O35  1  0.314417  0.054469  0.450094  1
  O  O36  1  0.813830  0.445294  0.550461  1
  O  O37  1  0.816430  0.020497  0.550142  1
  O  O38  1  0.403813  0.900116  0.603179  1
  O  O39  1  0.087099  0.605851  0.611135  1
  O  O40  1  0.163861  0.153709  0.645889  1
  O  O41  1  0.389994  0.367123  0.654242  1
  O  O42  1  0.543534  0.699817  0.697893  1
  O  O43  1  0.027323  0.814286  0.724341  1
  O  O44  1  0.973427  0.314466  0.775828  1
  O  O45  1  0.458728  0.200269  0.803002  1
  O  O46  1  0.610633  0.867635  0.845895  1
  O  O47  1  0.839610  0.655273  0.856135  1
  O  O48  1  0.913469  0.105466  0.888603  1
  O  O49  1  0.596274  0.401143  0.896665  1
  O  O50  1  0.183909  0.521000  0.950288  1
  O  O51  1  0.187270  0.945262  0.950126  1
  F  F52  1  0.536677  0.205624  0.012102  1
  F  F53  1  0.793671  0.770575  0.038028  1
  F  F54  1  0.203870  0.270833  0.462531  1
  F  F55  1  0.466715  0.704329  0.488377  1
  F  F56  1  0.966375  0.793984  0.511914  1
  F  F57  1  0.703857  0.228981  0.537449  1
  F  F58  1  0.294703  0.729128  0.963624  1
  F  F59  1  0.034142  0.294923  0.987507  1
