# generated using pymatgen
data_Y3HoTm4(WO6)4
_symmetry_space_group_name_H-M   'P 1'
_cell_length_a   5.37975800
_cell_length_b   7.67378521
_cell_length_c   11.39136151
_cell_angle_alpha   75.49901278
_cell_angle_beta   90.00000000
_cell_angle_gamma   90.00000000
_symmetry_Int_Tables_number   1
_chemical_formula_structural   Y3HoTm4(WO6)4
_chemical_formula_sum   'Y3 Ho1 Tm4 W4 O24'
_cell_volume   455.28953674
_cell_formula_units_Z   1
loop_
 _symmetry_equiv_pos_site_id
 _symmetry_equiv_pos_as_xyz
  1  'x, y, z'
loop_
 _atom_site_type_symbol
 _atom_site_label
 _atom_site_symmetry_multiplicity
 _atom_site_fract_x
 _atom_site_fract_y
 _atom_site_fract_z
 _atom_site_occupancy
  Y  Y0  1  0.741917  0.000000  0.750000  1
  Y  Y1  1  0.683886  0.500000  0.750000  1
  Y  Y2  1  0.315578  0.500000  0.250000  1
  Ho  Ho3  1  0.258620  0.000000  0.250000  1
  Tm  Tm4  1  0.183836  0.794272  0.578431  1
  Tm  Tm5  1  0.816507  0.794286  0.078943  1
  Tm  Tm6  1  0.183836  0.205728  0.921569  1
  Tm  Tm7  1  0.816507  0.205714  0.421057  1
  W  W8  1  0.255539  0.723440  0.886101  1
  W  W9  1  0.744327  0.724281  0.385622  1
  W  W10  1  0.255539  0.276560  0.613899  1
  W  W11  1  0.744327  0.275719  0.114378  1
  O  O12  1  0.046398  0.940685  0.897335  1
  O  O13  1  0.536704  0.844046  0.932699  1
  O  O14  1  0.955146  0.941091  0.396340  1
  O  O15  1  0.455862  0.791027  0.726268  1
  O  O16  1  0.463047  0.845446  0.431901  1
  O  O17  1  0.981782  0.711999  0.770671  1
  O  O18  1  0.542828  0.792302  0.226079  1
  O  O19  1  0.852664  0.635772  0.549056  1
  O  O20  1  0.358248  0.488230  0.886881  1
  O  O21  1  0.018361  0.712777  0.270310  1
  O  O22  1  0.358248  0.511770  0.613119  1
  O  O23  1  0.852664  0.364228  0.950944  1
  O  O24  1  0.146672  0.634698  0.049401  1
  O  O25  1  0.642078  0.488979  0.386305  1
  O  O26  1  0.981782  0.288001  0.729329  1
  O  O27  1  0.642078  0.511021  0.113695  1
  O  O28  1  0.146672  0.365302  0.450599  1
  O  O29  1  0.455862  0.208973  0.773732  1
  O  O30  1  0.018361  0.287223  0.229690  1
  O  O31  1  0.536704  0.155954  0.567301  1
  O  O32  1  0.542828  0.207698  0.273921  1
  O  O33  1  0.046398  0.059315  0.602665  1
  O  O34  1  0.463047  0.154554  0.068099  1
  O  O35  1  0.955146  0.058909  0.103660  1
