# generated using pymatgen
data_Mg3(H6Rh)2
_symmetry_space_group_name_H-M   'P 1'
_cell_length_a   4.55587000
_cell_length_b   4.55587023
_cell_length_c   7.71311500
_cell_angle_alpha   90.00000000
_cell_angle_beta   90.00000000
_cell_angle_gamma   119.99998380
_symmetry_Int_Tables_number   1
_chemical_formula_structural   Mg3(H6Rh)2
_chemical_formula_sum   'Mg3 H12 Rh2'
_cell_volume   138.64466971
_cell_formula_units_Z   1
loop_
 _symmetry_equiv_pos_site_id
 _symmetry_equiv_pos_as_xyz
  1  'x, y, z'
loop_
 _atom_site_type_symbol
 _atom_site_label
 _atom_site_symmetry_multiplicity
 _atom_site_fract_x
 _atom_site_fract_y
 _atom_site_fract_z
 _atom_site_occupancy
  Mg  Mg0  1  0.000000  0.000000  0.000000  1
  Mg  Mg1  1  0.666667  0.333333  0.362863  1
  Mg  Mg2  1  0.333333  0.666667  0.637137  1
  H  H3  1  0.161024  0.838976  0.377285  1
  H  H4  1  0.677950  0.838976  0.377285  1
  H  H5  1  0.161024  0.322050  0.377285  1
  H  H6  1  0.838976  0.161024  0.622715  1
  H  H7  1  0.322050  0.161024  0.622715  1
  H  H8  1  0.838976  0.677950  0.622715  1
  H  H9  1  0.498763  0.997525  0.870302  1
  H  H10  1  0.498763  0.501237  0.870302  1
  H  H11  1  0.002475  0.501237  0.870302  1
  H  H12  1  0.501237  0.002475  0.129698  1
  H  H13  1  0.501237  0.498763  0.129698  1
  H  H14  1  0.997525  0.498763  0.129698  1
  Rh  Rh15  1  0.666667  0.333333  0.742576  1
  Rh  Rh16  1  0.333333  0.666667  0.257424  1
