# generated using pymatgen
data_Sr4Tb2RuPtO12
_symmetry_space_group_name_H-M   'P 1'
_cell_length_a   5.83067547
_cell_length_b   5.90019580
_cell_length_c   8.27525000
_cell_angle_alpha   89.91112451
_cell_angle_beta   90.45547247
_cell_angle_gamma   89.99027459
_symmetry_Int_Tables_number   1
_chemical_formula_structural   Sr4Tb2RuPtO12
_chemical_formula_sum   'Sr4 Tb2 Ru1 Pt1 O12'
_cell_volume   284.67685837
_cell_formula_units_Z   1
loop_
 _symmetry_equiv_pos_site_id
 _symmetry_equiv_pos_as_xyz
  1  'x, y, z'
loop_
 _atom_site_type_symbol
 _atom_site_label
 _atom_site_symmetry_multiplicity
 _atom_site_fract_x
 _atom_site_fract_y
 _atom_site_fract_z
 _atom_site_occupancy
  Sr  Sr0  1  0.008624  0.539702  0.245776  1
  Sr  Sr1  1  0.490369  0.037751  0.248024  1
  Sr  Sr2  1  0.509632  0.962249  0.751975  1
  Sr  Sr3  1  0.991376  0.460297  0.754224  1
  Tb  Tb4  1  0.500000  0.500000  0.000000  1
  Tb  Tb5  1  0.000000  0.000000  0.500000  1
  Ru  Ru6  1  0.500000  0.500000  0.499997  1
  Pt  Pt7  1  0.999999  0.000000  0.000000  1
  O  O8  1  0.274534  0.798549  0.040398  1
  O  O9  1  0.197208  0.275726  0.041306  1
  O  O10  1  0.922869  0.979157  0.237408  1
  O  O11  1  0.574695  0.480380  0.268790  1
  O  O12  1  0.307664  0.770998  0.459357  1
  O  O13  1  0.230748  0.303884  0.460783  1
  O  O14  1  0.769252  0.696116  0.539217  1
  O  O15  1  0.692338  0.229003  0.540643  1
  O  O16  1  0.425305  0.519619  0.731210  1
  O  O17  1  0.077132  0.020842  0.762592  1
  O  O18  1  0.802790  0.724273  0.958694  1
  O  O19  1  0.725465  0.201450  0.959603  1
