# generated using pymatgen
data_LiLu9S10
_symmetry_space_group_name_H-M   'P 1'
_cell_length_a   6.61311349
_cell_length_b   7.57877361
_cell_length_c   8.47830295
_cell_angle_alpha   102.86002345
_cell_angle_beta   97.66113467
_cell_angle_gamma   106.82322458
_symmetry_Int_Tables_number   1
_chemical_formula_structural   LiLu9S10
_chemical_formula_sum   'Li1 Lu9 S10'
_cell_volume   387.53462921
_cell_formula_units_Z   1
loop_
 _symmetry_equiv_pos_site_id
 _symmetry_equiv_pos_as_xyz
  1  'x, y, z'
loop_
 _atom_site_type_symbol
 _atom_site_label
 _atom_site_symmetry_multiplicity
 _atom_site_fract_x
 _atom_site_fract_y
 _atom_site_fract_z
 _atom_site_occupancy
  Li  Li0  1  0.000000  0.500000  0.000000  1
  Lu  Lu1  1  0.798534  0.600348  0.600618  1
  Lu  Lu2  1  0.603604  0.201702  0.203217  1
  Lu  Lu3  1  0.396396  0.798298  0.796783  1
  Lu  Lu4  1  0.600888  0.701308  0.201507  1
  Lu  Lu5  1  0.201466  0.399652  0.399382  1
  Lu  Lu6  1  0.399112  0.298692  0.798493  1
  Lu  Lu7  1  0.000000  0.000000  0.000000  1
  Lu  Lu8  1  0.200774  0.900625  0.402254  1
  Lu  Lu9  1  0.799226  0.099375  0.597746  1
  S  S10  1  0.703491  0.648351  0.902393  1
  S  S11  1  0.500288  0.250547  0.499599  1
  S  S12  1  0.703686  0.154387  0.902398  1
  S  S13  1  0.296314  0.845613  0.097602  1
  S  S14  1  0.499712  0.749453  0.500401  1
  S  S15  1  0.097813  0.450438  0.704285  1
  S  S16  1  0.296509  0.351649  0.097607  1
  S  S17  1  0.901416  0.050079  0.299480  1
  S  S18  1  0.098584  0.949921  0.700520  1
  S  S19  1  0.902187  0.549562  0.295715  1
