# generated using pymatgen
data_Hf8Ta12SiGe15
_symmetry_space_group_name_H-M   'P 1'
_cell_length_a   6.81148395
_cell_length_b   6.93481805
_cell_length_c   13.26044300
_cell_angle_alpha   90.00000000
_cell_angle_beta   90.00000000
_cell_angle_gamma   89.86175325
_symmetry_Int_Tables_number   1
_chemical_formula_structural   Hf8Ta12SiGe15
_chemical_formula_sum   'Hf8 Ta12 Si1 Ge15'
_cell_volume   626.37379117
_cell_formula_units_Z   1
loop_
 _symmetry_equiv_pos_site_id
 _symmetry_equiv_pos_as_xyz
  1  'x, y, z'
loop_
 _atom_site_type_symbol
 _atom_site_label
 _atom_site_symmetry_multiplicity
 _atom_site_fract_x
 _atom_site_fract_y
 _atom_site_fract_z
 _atom_site_occupancy
  Hf  Hf0  1  0.487988  0.671500  0.591487  1
  Hf  Hf1  1  0.987606  0.824121  0.909121  1
  Hf  Hf2  1  0.512740  0.325162  0.089757  1
  Hf  Hf3  1  0.013153  0.175003  0.409517  1
  Hf  Hf4  1  0.512740  0.325162  0.410243  1
  Hf  Hf5  1  0.013153  0.175003  0.090483  1
  Hf  Hf6  1  0.487988  0.671500  0.908513  1
  Hf  Hf7  1  0.987606  0.824121  0.590879  1
  Ta  Ta8  1  0.654184  0.167402  0.625696  1
  Ta  Ta9  1  0.163501  0.337811  0.874410  1
  Ta  Ta10  1  0.340942  0.836626  0.124627  1
  Ta  Ta11  1  0.840553  0.663462  0.375677  1
  Ta  Ta12  1  0.340942  0.836626  0.375373  1
  Ta  Ta13  1  0.840553  0.663462  0.124323  1
  Ta  Ta14  1  0.654184  0.167402  0.874304  1
  Ta  Ta15  1  0.163501  0.337811  0.625590  1
  Ta  Ta16  1  0.832330  0.490881  0.750000  1
  Ta  Ta17  1  0.335252  0.010848  0.750000  1
  Ta  Ta18  1  0.163915  0.508892  0.250000  1
  Ta  Ta19  1  0.664438  0.991233  0.250000  1
  Si  Si20  1  0.460441  0.387891  0.750000  1
  Ge  Ge21  1  0.684607  0.961498  0.460525  1
  Ge  Ge22  1  0.184656  0.539356  0.040403  1
  Ge  Ge23  1  0.314544  0.037964  0.959696  1
  Ge  Ge24  1  0.817367  0.460068  0.540607  1
  Ge  Ge25  1  0.314544  0.037964  0.540304  1
  Ge  Ge26  1  0.817367  0.460068  0.959393  1
  Ge  Ge27  1  0.684607  0.961498  0.039475  1
  Ge  Ge28  1  0.184656  0.539356  0.459597  1
  Ge  Ge29  1  0.960955  0.111515  0.750000  1
  Ge  Ge30  1  0.538031  0.610654  0.250000  1
  Ge  Ge31  1  0.037569  0.889527  0.250000  1
  Ge  Ge32  1  0.691867  0.847781  0.750000  1
  Ge  Ge33  1  0.194928  0.650752  0.750000  1
  Ge  Ge34  1  0.308478  0.153538  0.250000  1
  Ge  Ge35  1  0.808116  0.346542  0.250000  1
