# generated using pymatgen
data_Y4Ga18Ir4PdRh
_symmetry_space_group_name_H-M   'P 1'
_cell_length_a   7.61173145
_cell_length_b   7.61173007
_cell_length_c   9.50952733
_cell_angle_alpha   90.04344132
_cell_angle_beta   90.04344362
_cell_angle_gamma   119.85363300
_symmetry_Int_Tables_number   1
_chemical_formula_structural   Y4Ga18Ir4PdRh
_chemical_formula_sum   'Y4 Ga18 Ir4 Pd1 Rh1'
_cell_volume   477.85325772
_cell_formula_units_Z   1
loop_
 _symmetry_equiv_pos_site_id
 _symmetry_equiv_pos_as_xyz
  1  'x, y, z'
loop_
 _atom_site_type_symbol
 _atom_site_label
 _atom_site_symmetry_multiplicity
 _atom_site_fract_x
 _atom_site_fract_y
 _atom_site_fract_z
 _atom_site_occupancy
  Y  Y0  1  0.996804  0.668445  0.250902  1
  Y  Y1  1  0.003196  0.331555  0.749098  1
  Y  Y2  1  0.668445  0.996804  0.250902  1
  Y  Y3  1  0.331555  0.003196  0.749098  1
  Ga  Ga4  1  0.127174  0.127174  0.251623  1
  Ga  Ga5  1  0.872826  0.872826  0.748377  1
  Ga  Ga6  1  0.999436  0.336597  0.081853  1
  Ga  Ga7  1  0.000564  0.663403  0.918147  1
  Ga  Ga8  1  0.001047  0.666395  0.579589  1
  Ga  Ga9  1  0.333605  0.998953  0.420411  1
  Ga  Ga10  1  0.998953  0.333605  0.420411  1
  Ga  Ga11  1  0.666395  0.001047  0.579589  1
  Ga  Ga12  1  0.663403  0.000564  0.918147  1
  Ga  Ga13  1  0.336597  0.999436  0.081853  1
  Ga  Ga14  1  0.331983  0.331983  0.563871  1
  Ga  Ga15  1  0.668017  0.668017  0.436129  1
  Ga  Ga16  1  0.664585  0.664585  0.066133  1
  Ga  Ga17  1  0.335415  0.335415  0.933867  1
  Ga  Ga18  1  0.338672  0.546518  0.250293  1
  Ga  Ga19  1  0.661328  0.453482  0.749707  1
  Ga  Ga20  1  0.546518  0.338672  0.250293  1
  Ga  Ga21  1  0.453482  0.661328  0.749707  1
  Ir  Ir22  1  0.671704  0.328296  0.000000  1
  Ir  Ir23  1  0.328296  0.671704  0.000000  1
  Ir  Ir24  1  0.328445  0.671555  0.500000  1
  Ir  Ir25  1  0.671555  0.328445  0.500000  1
  Pd  Pd26  1  0.000000  0.000000  0.000000  1
  Rh  Rh27  1  0.000000  0.000000  0.500000  1
