# generated using pymatgen
data_YbPr(Eu2Sn5)2
_symmetry_space_group_name_H-M   'P 1'
_cell_length_a   6.65315871
_cell_length_b   6.65315763
_cell_length_c   10.64533700
_cell_angle_alpha   90.00000000
_cell_angle_beta   90.00000000
_cell_angle_gamma   101.14157981
_symmetry_Int_Tables_number   1
_chemical_formula_structural   YbPr(Eu2Sn5)2
_chemical_formula_sum   'Yb1 Pr1 Eu4 Sn10'
_cell_volume   462.32961174
_cell_formula_units_Z   1
loop_
 _symmetry_equiv_pos_site_id
 _symmetry_equiv_pos_as_xyz
  1  'x, y, z'
loop_
 _atom_site_type_symbol
 _atom_site_label
 _atom_site_symmetry_multiplicity
 _atom_site_fract_x
 _atom_site_fract_y
 _atom_site_fract_z
 _atom_site_occupancy
  Yb  Yb0  1  0.628504  0.628504  0.250000  1
  Pr  Pr1  1  0.367295  0.367295  0.750000  1
  Eu  Eu2  1  0.796229  0.205089  0.000540  1
  Eu  Eu3  1  0.205089  0.796229  0.000540  1
  Eu  Eu4  1  0.205089  0.796229  0.499460  1
  Eu  Eu5  1  0.796229  0.205089  0.499460  1
  Sn  Sn6  1  0.070778  0.495898  0.250000  1
  Sn  Sn7  1  0.925155  0.506428  0.750000  1
  Sn  Sn8  1  0.495898  0.070777  0.250000  1
  Sn  Sn9  1  0.506428  0.925155  0.750000  1
  Sn  Sn10  1  0.020577  0.020577  0.250000  1
  Sn  Sn11  1  0.977211  0.977211  0.750000  1
  Sn  Sn12  1  0.311661  0.311661  0.049356  1
  Sn  Sn13  1  0.691099  0.691099  0.956692  1
  Sn  Sn14  1  0.691099  0.691099  0.543308  1
  Sn  Sn15  1  0.311661  0.311661  0.450644  1
