# generated using pymatgen
data_Ho12Th4MgZn3Co4
_symmetry_space_group_name_H-M   'P 1'
_cell_length_a   9.47031849
_cell_length_b   9.45714917
_cell_length_c   9.45715000
_cell_angle_alpha   59.99999710
_cell_angle_beta   60.04598677
_cell_angle_gamma   60.04598750
_symmetry_Int_Tables_number   1
_chemical_formula_structural   Ho12Th4MgZn3Co4
_chemical_formula_sum   'Ho12 Th4 Mg1 Zn3 Co4'
_cell_volume   599.33773314
_cell_formula_units_Z   1
loop_
 _symmetry_equiv_pos_site_id
 _symmetry_equiv_pos_as_xyz
  1  'x, y, z'
loop_
 _atom_site_type_symbol
 _atom_site_label
 _atom_site_symmetry_multiplicity
 _atom_site_fract_x
 _atom_site_fract_y
 _atom_site_fract_z
 _atom_site_occupancy
  Ho  Ho0  1  0.807994  0.190972  0.190972  1
  Ho  Ho1  1  0.185857  0.812713  0.812713  1
  Ho  Ho2  1  0.185857  0.812713  0.188716  1
  Ho  Ho3  1  0.807994  0.190972  0.810061  1
  Ho  Ho4  1  0.185857  0.188716  0.812713  1
  Ho  Ho5  1  0.807994  0.810061  0.190972  1
  Ho  Ho6  1  0.929439  0.566530  0.566530  1
  Ho  Ho7  1  0.562834  0.935426  0.935426  1
  Ho  Ho8  1  0.562834  0.935426  0.566315  1
  Ho  Ho9  1  0.929439  0.566530  0.937501  1
  Ho  Ho10  1  0.562834  0.566315  0.935426  1
  Ho  Ho11  1  0.929439  0.937501  0.566530  1
  Th  Th12  1  0.347573  0.346551  0.346551  1
  Th  Th13  1  0.347573  0.346551  0.959326  1
  Th  Th14  1  0.347573  0.959326  0.346551  1
  Th  Th15  1  0.955292  0.348236  0.348236  1
  Mg  Mg16  1  0.282060  0.572646  0.572646  1
  Zn  Zn17  1  0.587120  0.582003  0.582003  1
  Zn  Zn18  1  0.587120  0.582003  0.248873  1
  Zn  Zn19  1  0.587120  0.248873  0.582003  1
  Co  Co20  1  0.144011  0.143373  0.143373  1
  Co  Co21  1  0.144011  0.143373  0.569243  1
  Co  Co22  1  0.144011  0.569243  0.143373  1
  Co  Co23  1  0.568165  0.143945  0.143945  1
