# generated using pymatgen
data_Ho11Th5Mg3InRu4
_symmetry_space_group_name_H-M   'P 1'
_cell_length_a   9.68861871
_cell_length_b   9.76521859
_cell_length_c   9.76521995
_cell_angle_alpha   59.66217726
_cell_angle_beta   60.13438448
_cell_angle_gamma   60.13438622
_symmetry_Int_Tables_number   1
_chemical_formula_structural   Ho11Th5Mg3InRu4
_chemical_formula_sum   'Ho11 Th5 Mg3 In1 Ru4'
_cell_volume   652.92682980
_cell_formula_units_Z   1
loop_
 _symmetry_equiv_pos_site_id
 _symmetry_equiv_pos_as_xyz
  1  'x, y, z'
loop_
 _atom_site_type_symbol
 _atom_site_label
 _atom_site_symmetry_multiplicity
 _atom_site_fract_x
 _atom_site_fract_y
 _atom_site_fract_z
 _atom_site_occupancy
  Ho  Ho0  1  0.187164  0.812021  0.812021  1
  Ho  Ho1  1  0.190958  0.809028  0.185539  1
  Ho  Ho2  1  0.812292  0.186046  0.808766  1
  Ho  Ho3  1  0.190958  0.185539  0.809028  1
  Ho  Ho4  1  0.812292  0.808766  0.186046  1
  Ho  Ho5  1  0.933739  0.566988  0.566988  1
  Ho  Ho6  1  0.564803  0.935255  0.935255  1
  Ho  Ho7  1  0.562985  0.935456  0.564826  1
  Ho  Ho8  1  0.937040  0.564965  0.935514  1
  Ho  Ho9  1  0.562985  0.564826  0.935456  1
  Ho  Ho10  1  0.937040  0.935514  0.564965  1
  Th  Th11  1  0.342410  0.347798  0.347798  1
  Th  Th12  1  0.347942  0.348242  0.957627  1
  Th  Th13  1  0.347942  0.957627  0.348242  1
  Th  Th14  1  0.957312  0.350643  0.350643  1
  Th  Th15  1  0.815801  0.183729  0.183729  1
  Mg  Mg16  1  0.578661  0.582020  0.260233  1
  Mg  Mg17  1  0.578661  0.260233  0.582020  1
  Mg  Mg18  1  0.260409  0.579508  0.579508  1
  In  In19  1  0.582379  0.581801  0.581801  1
  Ru  Ru20  1  0.129015  0.146944  0.146944  1
  Ru  Ru21  1  0.145332  0.141738  0.568214  1
  Ru  Ru22  1  0.145332  0.568214  0.141738  1
  Ru  Ru23  1  0.576544  0.147098  0.147098  1
