# generated using pymatgen
data_Tb8CdPd8Pb3
_symmetry_space_group_name_H-M   'P 1'
_cell_length_a   7.97461100
_cell_length_b   7.97461100
_cell_length_c   7.33923900
_cell_angle_alpha   90.00000000
_cell_angle_beta   90.00000000
_cell_angle_gamma   90.00000000
_symmetry_Int_Tables_number   1
_chemical_formula_structural   Tb8CdPd8Pb3
_chemical_formula_sum   'Tb8 Cd1 Pd8 Pb3'
_cell_volume   466.73465186
_cell_formula_units_Z   1
loop_
 _symmetry_equiv_pos_site_id
 _symmetry_equiv_pos_as_xyz
  1  'x, y, z'
loop_
 _atom_site_type_symbol
 _atom_site_label
 _atom_site_symmetry_multiplicity
 _atom_site_fract_x
 _atom_site_fract_y
 _atom_site_fract_z
 _atom_site_occupancy
  Tb  Tb0  1  0.670893  0.661220  0.498661  1
  Tb  Tb1  1  0.826299  0.182887  0.499123  1
  Tb  Tb2  1  0.682887  0.673701  0.000877  1
  Tb  Tb3  1  0.838780  0.170893  0.001339  1
  Tb  Tb4  1  0.173701  0.817113  0.499123  1
  Tb  Tb5  1  0.317113  0.326299  0.000877  1
  Tb  Tb6  1  0.161220  0.829107  0.001339  1
  Tb  Tb7  1  0.329107  0.338780  0.498661  1
  Cd  Cd8  1  0.000000  0.500000  0.250000  1
  Pd  Pd9  1  0.628012  0.376624  0.236554  1
  Pd  Pd10  1  0.376708  0.625980  0.764042  1
  Pd  Pd11  1  0.874020  0.876708  0.735958  1
  Pd  Pd12  1  0.623292  0.374020  0.764042  1
  Pd  Pd13  1  0.371988  0.623376  0.236554  1
  Pd  Pd14  1  0.123376  0.128012  0.263446  1
  Pd  Pd15  1  0.876624  0.871988  0.263446  1
  Pd  Pd16  1  0.125980  0.123292  0.735958  1
  Pb  Pb17  1  0.500000  0.000000  0.750000  1
  Pb  Pb18  1  0.500000  0.000000  0.250000  1
  Pb  Pb19  1  0.000000  0.500000  0.750000  1
