# generated using pymatgen
data_La4PrRu2
_symmetry_space_group_name_H-M   'P 1'
_cell_length_a   9.13105771
_cell_length_b   9.13105868
_cell_length_c   7.34828282
_cell_angle_alpha   85.91096348
_cell_angle_beta   85.91096115
_cell_angle_gamma   43.16119336
_symmetry_Int_Tables_number   1
_chemical_formula_structural   La4PrRu2
_chemical_formula_sum   'La8 Pr2 Ru4'
_cell_volume   417.86630557
_cell_formula_units_Z   2
loop_
 _symmetry_equiv_pos_site_id
 _symmetry_equiv_pos_as_xyz
  1  'x, y, z'
loop_
 _atom_site_type_symbol
 _atom_site_label
 _atom_site_symmetry_multiplicity
 _atom_site_fract_x
 _atom_site_fract_y
 _atom_site_fract_z
 _atom_site_occupancy
  La  La0  1  0.016962  0.799371  0.906740  1
  La  La1  1  0.200629  0.983038  0.593260  1
  La  La2  1  0.983038  0.200629  0.093260  1
  La  La3  1  0.799371  0.016962  0.406740  1
  La  La4  1  0.363314  0.209766  0.817751  1
  La  La5  1  0.790234  0.636686  0.682249  1
  La  La6  1  0.636686  0.790234  0.182249  1
  La  La7  1  0.209766  0.363314  0.317751  1
  Pr  Pr8  1  0.574411  0.425589  0.750000  1
  Pr  Pr9  1  0.425589  0.574411  0.250000  1
  Ru  Ru10  1  0.169308  0.604265  0.582457  1
  Ru  Ru11  1  0.395735  0.830692  0.917543  1
  Ru  Ru12  1  0.830692  0.395735  0.417543  1
  Ru  Ru13  1  0.604265  0.169308  0.082457  1
