# generated using pymatgen
data_Tc4IrRu2Pt
_symmetry_space_group_name_H-M   'P 1'
_cell_length_a   5.53355093
_cell_length_b   5.53355268
_cell_length_c   4.37423100
_cell_angle_alpha   90.00000000
_cell_angle_beta   90.00000000
_cell_angle_gamma   120.46178596
_symmetry_Int_Tables_number   1
_chemical_formula_structural   Tc4IrRu2Pt
_chemical_formula_sum   'Tc4 Ir1 Ru2 Pt1'
_cell_volume   115.45175904
_cell_formula_units_Z   1
loop_
 _symmetry_equiv_pos_site_id
 _symmetry_equiv_pos_as_xyz
  1  'x, y, z'
loop_
 _atom_site_type_symbol
 _atom_site_label
 _atom_site_symmetry_multiplicity
 _atom_site_fract_x
 _atom_site_fract_y
 _atom_site_fract_z
 _atom_site_occupancy
  Tc  Tc0  1  0.322334  0.159769  0.750000  1
  Tc  Tc1  1  0.840231  0.677666  0.750000  1
  Tc  Tc2  1  0.674516  0.837895  0.250000  1
  Tc  Tc3  1  0.162105  0.325484  0.250000  1
  Ir  Ir4  1  0.333796  0.666204  0.750000  1
  Ru  Ru5  1  0.837822  0.162178  0.750000  1
  Ru  Ru6  1  0.162390  0.837610  0.250000  1
  Pt  Pt7  1  0.666806  0.333194  0.250000  1
