# generated using pymatgen
data_Y6Mn5(AlPt8)2
_symmetry_space_group_name_H-M   'P 1'
_cell_length_a   8.97846871
_cell_length_b   8.98968372
_cell_length_c   8.97846900
_cell_angle_alpha   59.95867421
_cell_angle_beta   60.20303092
_cell_angle_gamma   59.95866867
_symmetry_Int_Tables_number   1
_chemical_formula_structural   Y6Mn5(AlPt8)2
_chemical_formula_sum   'Y6 Mn5 Al2 Pt16'
_cell_volume   512.88915498
_cell_formula_units_Z   1
loop_
 _symmetry_equiv_pos_site_id
 _symmetry_equiv_pos_as_xyz
  1  'x, y, z'
loop_
 _atom_site_type_symbol
 _atom_site_label
 _atom_site_symmetry_multiplicity
 _atom_site_fract_x
 _atom_site_fract_y
 _atom_site_fract_z
 _atom_site_occupancy
  Y  Y0  1  0.709392  0.711847  0.290608  1
  Y  Y1  1  0.288293  0.711707  0.288293  1
  Y  Y2  1  0.709392  0.288153  0.290608  1
  Y  Y3  1  0.290608  0.288153  0.709392  1
  Y  Y4  1  0.711707  0.288293  0.711707  1
  Y  Y5  1  0.290608  0.711847  0.709392  1
  Mn  Mn6  1  0.000000  0.000000  0.500000  1
  Mn  Mn7  1  0.500000  0.000000  0.500000  1
  Mn  Mn8  1  0.000000  0.500000  0.500000  1
  Mn  Mn9  1  0.500000  0.500000  0.000000  1
  Mn  Mn10  1  0.500000  0.000000  0.000000  1
  Al  Al11  1  0.000000  0.000000  0.000000  1
  Al  Al12  1  0.000000  0.500000  0.000000  1
  Pt  Pt13  1  0.881681  0.881325  0.355671  1
  Pt  Pt14  1  0.881716  0.354318  0.881716  1
  Pt  Pt15  1  0.355671  0.881325  0.881681  1
  Pt  Pt16  1  0.881716  0.882250  0.881716  1
  Pt  Pt17  1  0.118319  0.118675  0.644329  1
  Pt  Pt18  1  0.118284  0.645682  0.118284  1
  Pt  Pt19  1  0.644329  0.118675  0.118319  1
  Pt  Pt20  1  0.118284  0.117750  0.118284  1
  Pt  Pt21  1  0.669502  0.662950  0.004600  1
  Pt  Pt22  1  0.665446  0.003926  0.665446  1
  Pt  Pt23  1  0.004600  0.662950  0.669502  1
  Pt  Pt24  1  0.665446  0.665182  0.665446  1
  Pt  Pt25  1  0.330498  0.337050  0.995400  1
  Pt  Pt26  1  0.334554  0.996074  0.334554  1
  Pt  Pt27  1  0.995400  0.337050  0.330498  1
  Pt  Pt28  1  0.334554  0.334818  0.334554  1
