# generated using pymatgen
data_CsSClO3
_symmetry_space_group_name_H-M   'P 1'
_cell_length_a   6.73258400
_cell_length_b   8.73867700
_cell_length_c   9.68664400
_cell_angle_alpha   90.00000000
_cell_angle_beta   90.00000000
_cell_angle_gamma   90.00000000
_symmetry_Int_Tables_number   1
_chemical_formula_structural   CsSClO3
_chemical_formula_sum   'Cs4 S4 Cl4 O12'
_cell_volume   569.90282117
_cell_formula_units_Z   4
loop_
 _symmetry_equiv_pos_site_id
 _symmetry_equiv_pos_as_xyz
  1  'x, y, z'
loop_
 _atom_site_type_symbol
 _atom_site_label
 _atom_site_symmetry_multiplicity
 _atom_site_fract_x
 _atom_site_fract_y
 _atom_site_fract_z
 _atom_site_occupancy
  Cs  Cs0  1  0.250000  0.361656  0.821971  1
  Cs  Cs1  1  0.250000  0.138344  0.321971  1
  Cs  Cs2  1  0.750000  0.638344  0.178029  1
  Cs  Cs3  1  0.750000  0.861656  0.678029  1
  S  S4  1  0.250000  0.794318  0.948707  1
  S  S5  1  0.250000  0.705682  0.448707  1
  S  S6  1  0.750000  0.205682  0.051292  1
  S  S7  1  0.750000  0.294318  0.551293  1
  Cl  Cl8  1  0.250000  0.952490  0.775036  1
  Cl  Cl9  1  0.250000  0.547510  0.275036  1
  Cl  Cl10  1  0.750000  0.047510  0.224964  1
  Cl  Cl11  1  0.750000  0.452490  0.724964  1
  O  O12  1  0.067372  0.708165  0.924759  1
  O  O13  1  0.432628  0.791835  0.424759  1
  O  O14  1  0.567372  0.291835  0.075241  1
  O  O15  1  0.932628  0.208165  0.575241  1
  O  O16  1  0.932628  0.291835  0.075241  1
  O  O17  1  0.567372  0.208165  0.575241  1
  O  O18  1  0.432628  0.708165  0.924759  1
  O  O19  1  0.067372  0.791835  0.424759  1
  O  O20  1  0.250000  0.896340  0.066335  1
  O  O21  1  0.250000  0.603660  0.566335  1
  O  O22  1  0.750000  0.103660  0.933665  1
  O  O23  1  0.750000  0.396340  0.433665  1
