# generated using pymatgen
data_ErCo3B4Os
_symmetry_space_group_name_H-M   'P 1'
_cell_length_a   7.20747194
_cell_length_b   6.96361507
_cell_length_c   3.87148200
_cell_angle_alpha   90.00000000
_cell_angle_beta   90.00000000
_cell_angle_gamma   91.25614955
_symmetry_Int_Tables_number   1
_chemical_formula_structural   ErCo3B4Os
_chemical_formula_sum   'Er2 Co6 B8 Os2'
_cell_volume   194.26321813
_cell_formula_units_Z   2
loop_
 _symmetry_equiv_pos_site_id
 _symmetry_equiv_pos_as_xyz
  1  'x, y, z'
loop_
 _atom_site_type_symbol
 _atom_site_label
 _atom_site_symmetry_multiplicity
 _atom_site_fract_x
 _atom_site_fract_y
 _atom_site_fract_z
 _atom_site_occupancy
  Er  Er0  1  0.000000  0.000000  0.934883  1
  Er  Er1  1  0.500000  0.500000  0.406526  1
  Co  Co2  1  0.338155  0.885084  0.399921  1
  Co  Co3  1  0.661845  0.114916  0.399921  1
  Co  Co4  1  0.116617  0.372474  0.622036  1
  Co  Co5  1  0.883383  0.627526  0.622036  1
  Co  Co6  1  0.125458  0.624687  0.122519  1
  Co  Co7  1  0.874542  0.375313  0.122519  1
  B  B8  1  0.816974  0.658024  0.118984  1
  B  B9  1  0.183026  0.341976  0.118984  1
  B  B10  1  0.837367  0.313707  0.617684  1
  B  B11  1  0.162633  0.686293  0.617684  1
  B  B12  1  0.727472  0.829408  0.401084  1
  B  B13  1  0.272528  0.170592  0.401084  1
  B  B14  1  0.669888  0.212611  0.901755  1
  B  B15  1  0.330112  0.787389  0.901755  1
  Os  Os16  1  0.385183  0.149199  0.895314  1
  Os  Os17  1  0.614817  0.850801  0.895314  1
