# generated using pymatgen
data_Ho7Er(BCl6)2
_symmetry_space_group_name_H-M   'P 1'
_cell_length_a   3.84574500
_cell_length_b   12.60688427
_cell_length_c   13.07084928
_cell_angle_alpha   89.97616031
_cell_angle_beta   90.00000000
_cell_angle_gamma   90.00000000
_symmetry_Int_Tables_number   1
_chemical_formula_structural   Ho7Er(BCl6)2
_chemical_formula_sum   'Ho7 Er1 B2 Cl12'
_cell_volume   633.71212921
_cell_formula_units_Z   1
loop_
 _symmetry_equiv_pos_site_id
 _symmetry_equiv_pos_as_xyz
  1  'x, y, z'
loop_
 _atom_site_type_symbol
 _atom_site_label
 _atom_site_symmetry_multiplicity
 _atom_site_fract_x
 _atom_site_fract_y
 _atom_site_fract_z
 _atom_site_occupancy
  Ho  Ho0  1  0.000000  0.106118  0.084064  1
  Ho  Ho1  1  0.000000  0.893878  0.915940  1
  Ho  Ho2  1  0.000000  0.605888  0.416119  1
  Ho  Ho3  1  0.500000  0.126222  0.851469  1
  Ho  Ho4  1  0.500000  0.873782  0.148531  1
  Ho  Ho5  1  0.500000  0.626062  0.648566  1
  Ho  Ho6  1  0.500000  0.373716  0.351617  1
  Er  Er7  1  0.000000  0.394341  0.583726  1
  B  B8  1  0.500000  0.000017  0.999975  1
  B  B9  1  0.500000  0.499653  0.500280  1
  Cl  Cl10  1  0.500000  0.268581  0.682054  1
  Cl  Cl11  1  0.500000  0.732059  0.317418  1
  Cl  Cl12  1  0.500000  0.767826  0.817319  1
  Cl  Cl13  1  0.500000  0.232158  0.182683  1
  Cl  Cl14  1  0.000000  0.256422  0.929369  1
  Cl  Cl15  1  0.000000  0.743587  0.070615  1
  Cl  Cl16  1  0.000000  0.478233  0.243642  1
  Cl  Cl17  1  0.000000  0.521263  0.756103  1
  Cl  Cl18  1  0.000000  0.978246  0.256457  1
  Cl  Cl19  1  0.000000  0.021786  0.743533  1
  Cl  Cl20  1  0.000000  0.243843  0.429919  1
  Cl  Cl21  1  0.000000  0.756319  0.570602  1
