# generated using pymatgen
data_CaU2TaSb5
_symmetry_space_group_name_H-M   'P 1'
_cell_length_a   9.29550600
_cell_length_b   9.23639857
_cell_length_c   6.14459200
_cell_angle_alpha   90.00000000
_cell_angle_beta   90.00000000
_cell_angle_gamma   120.21191729
_symmetry_Int_Tables_number   1
_chemical_formula_structural   CaU2TaSb5
_chemical_formula_sum   'Ca2 U4 Ta2 Sb10'
_cell_volume   455.89834570
_cell_formula_units_Z   2
loop_
 _symmetry_equiv_pos_site_id
 _symmetry_equiv_pos_as_xyz
  1  'x, y, z'
loop_
 _atom_site_type_symbol
 _atom_site_label
 _atom_site_symmetry_multiplicity
 _atom_site_fract_x
 _atom_site_fract_y
 _atom_site_fract_z
 _atom_site_occupancy
  Ca  Ca0  1  0.616226  0.000000  0.750000  1
  Ca  Ca1  1  0.383774  0.000000  0.250000  1
  U  U2  1  0.007902  0.618909  0.750000  1
  U  U3  1  0.992098  0.381091  0.250000  1
  U  U4  1  0.388993  0.381091  0.750000  1
  U  U5  1  0.611007  0.618909  0.250000  1
  Ta  Ta6  1  0.000000  0.000000  0.500000  1
  Ta  Ta7  1  0.000000  0.000000  0.000000  1
  Sb  Sb8  1  0.260806  0.000000  0.750000  1
  Sb  Sb9  1  0.739194  0.000000  0.250000  1
  Sb  Sb10  1  0.005797  0.268703  0.750000  1
  Sb  Sb11  1  0.994203  0.731297  0.250000  1
  Sb  Sb12  1  0.737093  0.731297  0.750000  1
  Sb  Sb13  1  0.262907  0.268703  0.250000  1
  Sb  Sb14  1  0.326901  0.653804  0.500000  1
  Sb  Sb15  1  0.673099  0.346196  0.500000  1
  Sb  Sb16  1  0.673099  0.346196  0.000000  1
  Sb  Sb17  1  0.326901  0.653804  0.000000  1
