# generated using pymatgen
data_SmZn3AgAu
_symmetry_space_group_name_H-M   'P 1'
_cell_length_a   5.37274900
_cell_length_b   5.37274914
_cell_length_c   4.56613200
_cell_angle_alpha   90.00000000
_cell_angle_beta   90.00000000
_cell_angle_gamma   120.00000527
_symmetry_Int_Tables_number   1
_chemical_formula_structural   SmZn3AgAu
_chemical_formula_sum   'Sm1 Zn3 Ag1 Au1'
_cell_volume   114.14901977
_cell_formula_units_Z   1
loop_
 _symmetry_equiv_pos_site_id
 _symmetry_equiv_pos_as_xyz
  1  'x, y, z'
loop_
 _atom_site_type_symbol
 _atom_site_label
 _atom_site_symmetry_multiplicity
 _atom_site_fract_x
 _atom_site_fract_y
 _atom_site_fract_z
 _atom_site_occupancy
  Sm  Sm0  1  0.000000  0.000000  0.000000  1
  Zn  Zn1  1  0.500628  0.001257  0.499999  1
  Zn  Zn2  1  0.998743  0.499373  0.499999  1
  Zn  Zn3  1  0.500628  0.499373  0.499999  1
  Ag  Ag4  1  0.666667  0.333334  0.000000  1
  Au  Au5  1  0.333334  0.666668  0.000000  1
