# generated using pymatgen
data_Sc4FeCo5Os2
_symmetry_space_group_name_H-M   'P 1'
_cell_length_a   4.87837498
_cell_length_b   4.94610137
_cell_length_c   8.23656600
_cell_angle_alpha   90.00000000
_cell_angle_beta   90.00000000
_cell_angle_gamma   120.46031977
_symmetry_Int_Tables_number   1
_chemical_formula_structural   Sc4FeCo5Os2
_chemical_formula_sum   'Sc4 Fe1 Co5 Os2'
_cell_volume   171.30963570
_cell_formula_units_Z   1
loop_
 _symmetry_equiv_pos_site_id
 _symmetry_equiv_pos_as_xyz
  1  'x, y, z'
loop_
 _atom_site_type_symbol
 _atom_site_label
 _atom_site_symmetry_multiplicity
 _atom_site_fract_x
 _atom_site_fract_y
 _atom_site_fract_z
 _atom_site_occupancy
  Sc  Sc0  1  0.332292  0.666147  0.432120  1
  Sc  Sc1  1  0.664866  0.332432  0.564709  1
  Sc  Sc2  1  0.664866  0.332432  0.935291  1
  Sc  Sc3  1  0.332292  0.666147  0.067880  1
  Fe  Fe4  1  0.661662  0.830831  0.750000  1
  Co  Co5  1  0.829460  0.170259  0.250000  1
  Co  Co6  1  0.829460  0.659200  0.250000  1
  Co  Co7  1  0.343137  0.171568  0.250000  1
  Co  Co8  1  0.175411  0.831224  0.750000  1
  Co  Co9  1  0.175411  0.344188  0.750000  1
  Os  Os10  1  0.995571  0.997786  0.498475  1
  Os  Os11  1  0.995571  0.997786  0.001525  1
