# generated using pymatgen
data_PrNd3S4
_symmetry_space_group_name_H-M   'P 1'
_cell_length_a   13.27413282
_cell_length_b   13.27413275
_cell_length_c   13.27413313
_cell_angle_alpha   17.84319786
_cell_angle_beta   17.84320090
_cell_angle_gamma   17.84320033
_symmetry_Int_Tables_number   1
_chemical_formula_structural   PrNd3S4
_chemical_formula_sum   'Pr1 Nd3 S4'
_cell_volume   191.71629701
_cell_formula_units_Z   1
loop_
 _symmetry_equiv_pos_site_id
 _symmetry_equiv_pos_as_xyz
  1  'x, y, z'
loop_
 _atom_site_type_symbol
 _atom_site_label
 _atom_site_symmetry_multiplicity
 _atom_site_fract_x
 _atom_site_fract_y
 _atom_site_fract_z
 _atom_site_occupancy
  Pr  Pr0  1  0.000000  0.000000  0.000000  1
  Nd  Nd1  1  0.249153  0.249153  0.249153  1
  Nd  Nd2  1  0.500000  0.500000  0.500000  1
  Nd  Nd3  1  0.750847  0.750847  0.750847  1
  S  S4  1  0.375897  0.375897  0.375897  1
  S  S5  1  0.125442  0.125442  0.125442  1
  S  S6  1  0.624103  0.624103  0.624103  1
  S  S7  1  0.874558  0.874558  0.874558  1
