# generated using pymatgen
data_Tm2Lu3ReRuC7
_symmetry_space_group_name_H-M   'P 1'
_cell_length_a   8.10192128
_cell_length_b   8.10550258
_cell_length_c   3.40257300
_cell_angle_alpha   90.00000000
_cell_angle_beta   90.00000000
_cell_angle_gamma   121.49666095
_symmetry_Int_Tables_number   1
_chemical_formula_structural   Tm2Lu3ReRuC7
_chemical_formula_sum   'Tm2 Lu3 Re1 Ru1 C7'
_cell_volume   190.52708133
_cell_formula_units_Z   1
loop_
 _symmetry_equiv_pos_site_id
 _symmetry_equiv_pos_as_xyz
  1  'x, y, z'
loop_
 _atom_site_type_symbol
 _atom_site_label
 _atom_site_symmetry_multiplicity
 _atom_site_fract_x
 _atom_site_fract_y
 _atom_site_fract_z
 _atom_site_occupancy
  Tm  Tm0  1  0.335787  0.076142  0.500000  1
  Tm  Tm1  1  0.499556  0.501088  0.000000  1
  Lu  Lu2  1  0.658929  0.919498  0.500000  1
  Lu  Lu3  1  0.080130  0.341743  0.500000  1
  Lu  Lu4  1  0.922278  0.661679  0.500000  1
  Re  Re5  1  0.716489  0.283747  0.000000  1
  Ru  Ru6  1  0.286983  0.712846  0.000000  1
  C  C7  1  0.170386  0.172593  0.000000  1
  C  C8  1  0.828857  0.828190  0.000000  1
  C  C9  1  0.000706  0.999416  0.000000  1
  C  C10  1  0.372556  0.627550  0.500000  1
  C  C11  1  0.624199  0.376750  0.500000  1
  C  C12  1  0.504236  0.001241  0.000000  1
  C  C13  1  0.998909  0.497516  0.000000  1
