# generated using pymatgen
data_Yb4Er3Tm3(CuPb3)2
_symmetry_space_group_name_H-M   'P 1'
_cell_length_a   9.12366904
_cell_length_b   9.12228245
_cell_length_c   6.79997900
_cell_angle_alpha   90.00000000
_cell_angle_beta   90.00000000
_cell_angle_gamma   120.01564123
_symmetry_Int_Tables_number   1
_chemical_formula_structural   Yb4Er3Tm3(CuPb3)2
_chemical_formula_sum   'Yb4 Er3 Tm3 Cu2 Pb6'
_cell_volume   490.05268133
_cell_formula_units_Z   1
loop_
 _symmetry_equiv_pos_site_id
 _symmetry_equiv_pos_as_xyz
  1  'x, y, z'
loop_
 _atom_site_type_symbol
 _atom_site_label
 _atom_site_symmetry_multiplicity
 _atom_site_fract_x
 _atom_site_fract_y
 _atom_site_fract_z
 _atom_site_occupancy
  Yb  Yb0  1  0.333335  0.666682  0.000015  1
  Yb  Yb1  1  0.666670  0.333270  0.000015  1
  Yb  Yb2  1  0.666670  0.333270  0.499985  1
  Yb  Yb3  1  0.333335  0.666682  0.499985  1
  Er  Er4  1  0.000030  0.745217  0.750000  1
  Er  Er5  1  0.745181  0.745214  0.250000  1
  Er  Er6  1  0.254797  0.254805  0.750000  1
  Tm  Tm7  1  0.254621  0.000005  0.250000  1
  Tm  Tm8  1  0.745383  0.000032  0.750000  1
  Tm  Tm9  1  0.999976  0.254641  0.250000  1
  Cu  Cu10  1  0.999998  0.000107  0.000059  1
  Cu  Cu11  1  0.999998  0.000107  0.499941  1
  Pb  Pb12  1  0.610880  0.000113  0.250000  1
  Pb  Pb13  1  0.389286  0.000004  0.750000  1
  Pb  Pb14  1  0.000104  0.610833  0.250000  1
  Pb  Pb15  1  0.999897  0.389049  0.750000  1
  Pb  Pb16  1  0.389022  0.389043  0.250000  1
  Pb  Pb17  1  0.610818  0.610925  0.750000  1
