# generated using pymatgen
data_Y2Ga9TcPd2
_symmetry_space_group_name_H-M   'P 1'
_cell_length_a   7.66462178
_cell_length_b   7.66462175
_cell_length_c   9.63808604
_cell_angle_alpha   90.15681806
_cell_angle_beta   90.15681335
_cell_angle_gamma   120.35825965
_symmetry_Int_Tables_number   1
_chemical_formula_structural   Y2Ga9TcPd2
_chemical_formula_sum   'Y4 Ga18 Tc2 Pd4'
_cell_volume   488.55912800
_cell_formula_units_Z   2
loop_
 _symmetry_equiv_pos_site_id
 _symmetry_equiv_pos_as_xyz
  1  'x, y, z'
loop_
 _atom_site_type_symbol
 _atom_site_label
 _atom_site_symmetry_multiplicity
 _atom_site_fract_x
 _atom_site_fract_y
 _atom_site_fract_z
 _atom_site_occupancy
  Y  Y0  1  0.995133  0.664745  0.246536  1
  Y  Y1  1  0.004867  0.335255  0.753464  1
  Y  Y2  1  0.664745  0.995133  0.246536  1
  Y  Y3  1  0.335255  0.004867  0.753464  1
  Ga  Ga4  1  0.128975  0.128975  0.251148  1
  Ga  Ga5  1  0.871025  0.871025  0.748852  1
  Ga  Ga6  1  0.002933  0.335810  0.079613  1
  Ga  Ga7  1  0.997067  0.664190  0.920387  1
  Ga  Ga8  1  0.001059  0.667888  0.581894  1
  Ga  Ga9  1  0.332112  0.998941  0.418106  1
  Ga  Ga10  1  0.998941  0.332112  0.418106  1
  Ga  Ga11  1  0.667888  0.001059  0.581894  1
  Ga  Ga12  1  0.664190  0.997067  0.920387  1
  Ga  Ga13  1  0.335810  0.002933  0.079613  1
  Ga  Ga14  1  0.334255  0.334255  0.572632  1
  Ga  Ga15  1  0.665745  0.665745  0.427368  1
  Ga  Ga16  1  0.659875  0.659875  0.062336  1
  Ga  Ga17  1  0.340125  0.340125  0.937664  1
  Ga  Ga18  1  0.335844  0.545047  0.246416  1
  Ga  Ga19  1  0.664156  0.454953  0.753584  1
  Ga  Ga20  1  0.545047  0.335844  0.246416  1
  Ga  Ga21  1  0.454953  0.664156  0.753584  1
  Tc  Tc22  1  0.675120  0.324880  0.000000  1
  Tc  Tc23  1  0.324880  0.675120  0.000000  1
  Pd  Pd24  1  0.330204  0.669796  0.500000  1
  Pd  Pd25  1  0.669796  0.330204  0.500000  1
  Pd  Pd26  1  0.000000  0.000000  0.000000  1
  Pd  Pd27  1  0.000000  0.000000  0.500000  1
