# generated using pymatgen
data_Tb3HoNi2(B8Ir)2
_symmetry_space_group_name_H-M   'P 1'
_cell_length_a   6.92754819
_cell_length_b   6.92754776
_cell_length_c   6.92754794
_cell_angle_alpha   111.25158805
_cell_angle_beta   113.25502377
_cell_angle_gamma   104.04664721
_symmetry_Int_Tables_number   1
_chemical_formula_structural   Tb3HoNi2(B8Ir)2
_chemical_formula_sum   'Tb3 Ho1 Ni2 B16 Ir2'
_cell_volume   254.14251430
_cell_formula_units_Z   1
loop_
 _symmetry_equiv_pos_site_id
 _symmetry_equiv_pos_as_xyz
  1  'x, y, z'
loop_
 _atom_site_type_symbol
 _atom_site_label
 _atom_site_symmetry_multiplicity
 _atom_site_fract_x
 _atom_site_fract_y
 _atom_site_fract_z
 _atom_site_occupancy
  Tb  Tb0  1  0.790720  0.790720  0.000000  1
  Tb  Tb1  1  0.209496  0.209496  0.000000  1
  Tb  Tb2  1  0.751721  0.251721  0.500000  1
  Ho  Ho3  1  0.248472  0.748472  0.500000  1
  Ni  Ni4  1  0.499576  0.745302  0.245726  1
  Ni  Ni5  1  0.499576  0.253850  0.754274  1
  B  B6  1  0.272898  0.108556  0.381387  1
  B  B7  1  0.727169  0.891511  0.618613  1
  B  B8  1  0.272898  0.891511  0.164342  1
  B  B9  1  0.727169  0.108556  0.835658  1
  B  B10  1  0.110554  0.730278  0.841306  1
  B  B11  1  0.888973  0.269248  0.158694  1
  B  B12  1  0.110554  0.269248  0.380276  1
  B  B13  1  0.888973  0.730278  0.619724  1
  B  B14  1  0.115532  0.109549  0.529029  1
  B  B15  1  0.580519  0.586502  0.470971  1
  B  B16  1  0.115532  0.586502  0.005984  1
  B  B17  1  0.580519  0.109549  0.994016  1
  B  B18  1  0.884995  0.890022  0.471157  1
  B  B19  1  0.418866  0.413838  0.528843  1
  B  B20  1  0.884995  0.413838  0.994972  1
  B  B21  1  0.418866  0.890022  0.005028  1
  Ir  Ir22  1  0.277002  0.500714  0.776288  1
  Ir  Ir23  1  0.724426  0.500714  0.223712  1
