# generated using pymatgen
data_La2Si5Tc3
_symmetry_space_group_name_H-M   'P 1'
_cell_length_a   8.51886720
_cell_length_b   8.51886792
_cell_length_c   8.51886712
_cell_angle_alpha   140.71790166
_cell_angle_beta   108.58947062
_cell_angle_gamma   84.67395507
_symmetry_Int_Tables_number   1
_chemical_formula_structural   La2Si5Tc3
_chemical_formula_sum   'La4 Si10 Tc6'
_cell_volume   358.58756771
_cell_formula_units_Z   2
loop_
 _symmetry_equiv_pos_site_id
 _symmetry_equiv_pos_as_xyz
  1  'x, y, z'
loop_
 _atom_site_type_symbol
 _atom_site_label
 _atom_site_symmetry_multiplicity
 _atom_site_fract_x
 _atom_site_fract_y
 _atom_site_fract_z
 _atom_site_occupancy
  La  La0  1  0.633158  0.869247  0.763912  1
  La  La1  1  0.366842  0.130753  0.236088  1
  La  La2  1  0.894665  0.630753  0.263912  1
  La  La3  1  0.105335  0.369247  0.736088  1
  Si  Si4  1  0.000000  0.250000  0.250000  1
  Si  Si5  1  0.000000  0.750000  0.750000  1
  Si  Si6  1  0.290581  0.540581  0.250000  1
  Si  Si7  1  0.709419  0.959419  0.250000  1
  Si  Si8  1  0.709419  0.459419  0.750000  1
  Si  Si9  1  0.290581  0.040581  0.750000  1
  Si  Si10  1  0.432182  0.600683  0.831499  1
  Si  Si11  1  0.769184  0.100683  0.668501  1
  Si  Si12  1  0.230816  0.899317  0.331499  1
  Si  Si13  1  0.567818  0.399317  0.168501  1
  Tc  Tc14  1  0.057093  0.147308  0.909784  1
  Tc  Tc15  1  0.500000  0.750000  0.250000  1
  Tc  Tc16  1  0.237523  0.647308  0.590216  1
  Tc  Tc17  1  0.762477  0.352692  0.409784  1
  Tc  Tc18  1  0.942907  0.852692  0.090216  1
  Tc  Tc19  1  0.500000  0.250000  0.750000  1
