# generated using pymatgen
data_La2Sn5Pd3
_symmetry_space_group_name_H-M   'P 1'
_cell_length_a   9.16877298
_cell_length_b   9.16877217
_cell_length_c   9.16877298
_cell_angle_alpha   137.21272125
_cell_angle_beta   106.22219254
_cell_angle_gamma   89.24116913
_symmetry_Int_Tables_number   1
_chemical_formula_structural   La2Sn5Pd3
_chemical_formula_sum   'La4 Sn10 Pd6'
_cell_volume   480.50955584
_cell_formula_units_Z   2
loop_
 _symmetry_equiv_pos_site_id
 _symmetry_equiv_pos_as_xyz
  1  'x, y, z'
loop_
 _atom_site_type_symbol
 _atom_site_label
 _atom_site_symmetry_multiplicity
 _atom_site_fract_x
 _atom_site_fract_y
 _atom_site_fract_z
 _atom_site_occupancy
  La  La0  1  0.913194  0.142102  0.771092  1
  La  La1  1  0.086806  0.857898  0.228908  1
  La  La2  1  0.628989  0.357898  0.271092  1
  La  La3  1  0.371011  0.642102  0.728908  1
  Sn  Sn4  1  0.575910  0.909412  0.666499  1
  Sn  Sn5  1  0.242914  0.409412  0.833501  1
  Sn  Sn6  1  0.424090  0.090588  0.333501  1
  Sn  Sn7  1  0.757086  0.590588  0.166499  1
  Sn  Sn8  1  0.000000  0.250000  0.250000  1
  Sn  Sn9  1  0.000000  0.750000  0.750000  1
  Sn  Sn10  1  0.722393  0.972393  0.250000  1
  Sn  Sn11  1  0.277607  0.527607  0.250000  1
  Sn  Sn12  1  0.277607  0.027607  0.750000  1
  Sn  Sn13  1  0.722393  0.472393  0.750000  1
  Pd  Pd14  1  0.245505  0.141175  0.104330  1
  Pd  Pd15  1  0.963155  0.358825  0.604330  1
  Pd  Pd16  1  0.036845  0.641175  0.395670  1
  Pd  Pd17  1  0.754495  0.858825  0.895670  1
  Pd  Pd18  1  0.500000  0.250000  0.750000  1
  Pd  Pd19  1  0.500000  0.750000  0.250000  1
