# generated using pymatgen
data_Ca(Co2B)6
_symmetry_space_group_name_H-M   'P 1'
_cell_length_a   5.96260808
_cell_length_b   5.96260842
_cell_length_c   5.96260712
_cell_angle_alpha   103.98845208
_cell_angle_beta   103.98845128
_cell_angle_gamma   103.98845181
_symmetry_Int_Tables_number   1
_chemical_formula_structural   Ca(Co2B)6
_chemical_formula_sum   'Ca1 Co12 B6'
_cell_volume   189.18631000
_cell_formula_units_Z   1
loop_
 _symmetry_equiv_pos_site_id
 _symmetry_equiv_pos_as_xyz
  1  'x, y, z'
loop_
 _atom_site_type_symbol
 _atom_site_label
 _atom_site_symmetry_multiplicity
 _atom_site_fract_x
 _atom_site_fract_y
 _atom_site_fract_z
 _atom_site_occupancy
  Ca  Ca0  1  0.000000  0.000000  0.000000  1
  Co  Co1  1  0.132744  0.500000  0.867256  1
  Co  Co2  1  0.187313  0.458473  0.458473  1
  Co  Co3  1  0.500000  0.867256  0.132744  1
  Co  Co4  1  0.458473  0.187313  0.458473  1
  Co  Co5  1  0.541527  0.812687  0.541527  1
  Co  Co6  1  0.812687  0.541527  0.541527  1
  Co  Co7  1  0.541527  0.541527  0.812687  1
  Co  Co8  1  0.500000  0.132744  0.867256  1
  Co  Co9  1  0.867256  0.500000  0.132744  1
  Co  Co10  1  0.132744  0.867256  0.500000  1
  Co  Co11  1  0.458473  0.458473  0.187313  1
  Co  Co12  1  0.867256  0.132744  0.500000  1
  B  B13  1  0.768182  0.768182  0.325080  1
  B  B14  1  0.231818  0.674920  0.231818  1
  B  B15  1  0.231818  0.231818  0.674920  1
  B  B16  1  0.674920  0.231818  0.231818  1
  B  B17  1  0.325080  0.768182  0.768182  1
  B  B18  1  0.768182  0.325080  0.768182  1
