# generated using pymatgen
data_Er7Tm3(GaBi2)2
_symmetry_space_group_name_H-M   'P 1'
_cell_length_a   8.01678204
_cell_length_b   9.22198801
_cell_length_c   11.99638107
_cell_angle_alpha   90.00474710
_cell_angle_beta   90.01134156
_cell_angle_gamma   89.99928828
_symmetry_Int_Tables_number   1
_chemical_formula_structural   Er7Tm3(GaBi2)2
_chemical_formula_sum   'Er14 Tm6 Ga4 Bi8'
_cell_volume   886.90044350
_cell_formula_units_Z   2
loop_
 _symmetry_equiv_pos_site_id
 _symmetry_equiv_pos_as_xyz
  1  'x, y, z'
loop_
 _atom_site_type_symbol
 _atom_site_label
 _atom_site_symmetry_multiplicity
 _atom_site_fract_x
 _atom_site_fract_y
 _atom_site_fract_z
 _atom_site_occupancy
  Er  Er0  1  0.667729  0.749975  0.715708  1
  Er  Er1  1  0.332271  0.250025  0.284292  1
  Er  Er2  1  0.167652  0.250024  0.784298  1
  Er  Er3  1  0.832348  0.749976  0.215702  1
  Er  Er4  1  0.143108  0.749993  0.795329  1
  Er  Er5  1  0.856892  0.250007  0.204671  1
  Er  Er6  1  0.643110  0.250033  0.704774  1
  Er  Er7  1  0.356890  0.749967  0.295226  1
  Er  Er8  1  0.540245  0.749991  0.002605  1
  Er  Er9  1  0.459755  0.250009  0.997395  1
  Er  Er10  1  0.040144  0.250068  0.497360  1
  Er  Er11  1  0.959856  0.749932  0.502640  1
  Er  Er12  1  0.680827  0.053562  0.436019  1
  Er  Er13  1  0.319173  0.946438  0.563981  1
  Tm  Tm14  1  0.819402  0.446285  0.936015  1
  Tm  Tm15  1  0.180598  0.553715  0.063985  1
  Tm  Tm16  1  0.319394  0.553607  0.564018  1
  Tm  Tm17  1  0.180577  0.946307  0.063982  1
  Tm  Tm18  1  0.680606  0.446393  0.435982  1
  Tm  Tm19  1  0.819423  0.053693  0.936018  1
  Ga  Ga20  1  0.909100  0.750020  0.975936  1
  Ga  Ga21  1  0.090900  0.249980  0.024064  1
  Ga  Ga22  1  0.409092  0.250353  0.524070  1
  Ga  Ga23  1  0.590908  0.749647  0.475930  1
  Bi  Bi24  1  0.935157  0.008736  0.674201  1
  Bi  Bi25  1  0.064843  0.991264  0.325799  1
  Bi  Bi26  1  0.435287  0.991249  0.825919  1
  Bi  Bi27  1  0.064733  0.508757  0.325840  1
  Bi  Bi28  1  0.564713  0.008751  0.174081  1
  Bi  Bi29  1  0.935267  0.491243  0.674160  1
  Bi  Bi30  1  0.564750  0.491272  0.174131  1
  Bi  Bi31  1  0.435250  0.508728  0.825869  1
