# generated using pymatgen
data_LaTb2Co9(CuB2)2
_symmetry_space_group_name_H-M   'P 1'
_cell_length_a   5.08995100
_cell_length_b   5.09726930
_cell_length_c   9.80691600
_cell_angle_alpha   90.00005990
_cell_angle_beta   89.99990254
_cell_angle_gamma   119.95252432
_symmetry_Int_Tables_number   1
_chemical_formula_structural   LaTb2Co9(CuB2)2
_chemical_formula_sum   'La1 Tb2 Co9 Cu2 B4'
_cell_volume   220.45595436
_cell_formula_units_Z   1
loop_
 _symmetry_equiv_pos_site_id
 _symmetry_equiv_pos_as_xyz
  1  'x, y, z'
loop_
 _atom_site_type_symbol
 _atom_site_label
 _atom_site_symmetry_multiplicity
 _atom_site_fract_x
 _atom_site_fract_y
 _atom_site_fract_z
 _atom_site_occupancy
  La  La0  1  0.999982  0.000000  0.999886  1
  Tb  Tb1  1  0.999998  0.000000  0.343822  1
  Tb  Tb2  1  0.999999  0.000000  0.656184  1
  Co  Co3  1  0.500001  0.000000  0.500030  1
  Co  Co4  1  0.500000  0.500000  0.500032  1
  Co  Co5  1  0.999999  0.500000  0.500032  1
  Co  Co6  1  0.499995  0.000000  0.212530  1
  Co  Co7  1  0.499994  0.499999  0.212414  1
  Co  Co8  1  0.999995  0.500001  0.212414  1
  Co  Co9  1  0.499994  0.000000  0.787551  1
  Co  Co10  1  0.499994  0.500000  0.787538  1
  Co  Co11  1  0.999994  0.500000  0.787538  1
  Cu  Cu12  1  0.333183  0.666398  0.000000  1
  Cu  Cu13  1  0.666784  0.333602  0.000000  1
  B  B14  1  0.333168  0.666342  0.351965  1
  B  B15  1  0.666826  0.333658  0.351965  1
  B  B16  1  0.666807  0.333620  0.648051  1
  B  B17  1  0.333186  0.666380  0.648051  1
