# generated using pymatgen
data_Y4Ho7ScPb10
_symmetry_space_group_name_H-M   'P 1'
_cell_length_a   11.72459211
_cell_length_b   11.72310323
_cell_length_c   11.73319723
_cell_angle_alpha   147.38019410
_cell_angle_beta   132.61388917
_cell_angle_gamma   58.62589045
_symmetry_Int_Tables_number   1
_chemical_formula_structural   Y4Ho7ScPb10
_chemical_formula_sum   'Y4 Ho7 Sc1 Pb10'
_cell_volume   634.75689963
_cell_formula_units_Z   1
loop_
 _symmetry_equiv_pos_site_id
 _symmetry_equiv_pos_as_xyz
  1  'x, y, z'
loop_
 _atom_site_type_symbol
 _atom_site_label
 _atom_site_symmetry_multiplicity
 _atom_site_fract_x
 _atom_site_fract_y
 _atom_site_fract_z
 _atom_site_occupancy
  Y  Y0  1  0.696362  0.946347  0.249990  1
  Y  Y1  1  0.252111  0.639534  0.611321  1
  Y  Y2  1  0.675296  0.941049  0.733641  1
  Y  Y3  1  0.028291  0.140775  0.888769  1
  Ho  Ho4  1  0.970782  0.858191  0.110928  1
  Ho  Ho5  1  0.792534  0.559679  0.233463  1
  Ho  Ho6  1  0.207388  0.441618  0.766395  1
  Ho  Ho7  1  0.303608  0.053693  0.749917  1
  Ho  Ho8  1  0.326273  0.059003  0.266614  1
  Ho  Ho9  1  0.304039  0.554118  0.249921  1
  Ho  Ho10  1  0.747399  0.359844  0.389210  1
  Sc  Sc11  1  0.694787  0.444790  0.749979  1
  Pb  Pb12  1  0.480008  0.569339  0.895927  1
  Pb  Pb13  1  0.598885  0.786666  0.799383  1
  Pb  Pb14  1  0.673528  0.084413  0.604032  1
  Pb  Pb15  1  0.000367  0.750058  0.750006  1
  Pb  Pb16  1  0.987494  0.299624  0.700588  1
  Pb  Pb17  1  0.523427  0.424320  0.098447  1
  Pb  Pb18  1  0.006671  0.702229  0.297025  1
  Pb  Pb19  1  0.405252  0.209666  0.203025  1
  Pb  Pb20  1  0.325343  0.924902  0.401109  1
  Pb  Pb21  1  0.000152  0.250142  0.250309  1
