# generated using pymatgen
data_Cs3Na2HfSb3
_symmetry_space_group_name_H-M   'P 1'
_cell_length_a   11.78587654
_cell_length_b   11.78587644
_cell_length_c   17.60944600
_cell_angle_alpha   90.00000000
_cell_angle_beta   90.00000000
_cell_angle_gamma   142.90352161
_symmetry_Int_Tables_number   1
_chemical_formula_structural   Cs3Na2HfSb3
_chemical_formula_sum   'Cs12 Na8 Hf4 Sb12'
_cell_volume   1475.37102750
_cell_formula_units_Z   4
loop_
 _symmetry_equiv_pos_site_id
 _symmetry_equiv_pos_as_xyz
  1  'x, y, z'
loop_
 _atom_site_type_symbol
 _atom_site_label
 _atom_site_symmetry_multiplicity
 _atom_site_fract_x
 _atom_site_fract_y
 _atom_site_fract_z
 _atom_site_occupancy
  Cs  Cs0  1  0.946916  0.607873  0.826678  1
  Cs  Cs1  1  0.553084  0.892127  0.326678  1
  Cs  Cs2  1  0.392127  0.053084  0.173322  1
  Cs  Cs3  1  0.053084  0.392127  0.173322  1
  Cs  Cs4  1  0.892127  0.553084  0.326678  1
  Cs  Cs5  1  0.446916  0.107873  0.673322  1
  Cs  Cs6  1  0.607873  0.946916  0.826678  1
  Cs  Cs7  1  0.280412  0.280412  0.317664  1
  Cs  Cs8  1  0.780412  0.780412  0.182336  1
  Cs  Cs9  1  0.219588  0.219588  0.817664  1
  Cs  Cs10  1  0.719588  0.719588  0.682336  1
  Cs  Cs11  1  0.107873  0.446916  0.673322  1
  Na  Na12  1  0.919479  0.080521  0.000000  1
  Na  Na13  1  0.580521  0.419479  0.500000  1
  Na  Na14  1  0.080521  0.919479  0.000000  1
  Na  Na15  1  0.419479  0.580521  0.500000  1
  Na  Na16  1  0.754118  0.245882  0.000000  1
  Na  Na17  1  0.745882  0.254118  0.500000  1
  Na  Na18  1  0.245882  0.754118  0.000000  1
  Na  Na19  1  0.254118  0.745882  0.500000  1
  Hf  Hf20  1  0.584999  0.415001  0.000000  1
  Hf  Hf21  1  0.915001  0.084999  0.500000  1
  Hf  Hf22  1  0.415001  0.584999  0.000000  1
  Hf  Hf23  1  0.084999  0.915001  0.500000  1
  Sb  Sb24  1  0.874454  0.560793  0.093788  1
  Sb  Sb25  1  0.439207  0.125546  0.906212  1
  Sb  Sb26  1  0.625546  0.939207  0.593788  1
  Sb  Sb27  1  0.939207  0.625546  0.593788  1
  Sb  Sb28  1  0.125546  0.439207  0.906212  1
  Sb  Sb29  1  0.560793  0.874454  0.093788  1
  Sb  Sb30  1  0.374454  0.060793  0.406212  1
  Sb  Sb31  1  0.204818  0.204818  0.587316  1
  Sb  Sb32  1  0.704818  0.704818  0.912684  1
  Sb  Sb33  1  0.295182  0.295182  0.087316  1
  Sb  Sb34  1  0.060793  0.374454  0.406212  1
  Sb  Sb35  1  0.795182  0.795182  0.412684  1
