# generated using pymatgen
data_MgScGaB2Rh5
_symmetry_space_group_name_H-M   'P 1'
_cell_length_a   9.42586200
_cell_length_b   9.41199300
_cell_length_c   2.99004700
_cell_angle_alpha   90.00000000
_cell_angle_beta   90.00000000
_cell_angle_gamma   90.00000000
_symmetry_Int_Tables_number   1
_chemical_formula_structural   MgScGaB2Rh5
_chemical_formula_sum   'Mg2 Sc2 Ga2 B4 Rh10'
_cell_volume   265.26544968
_cell_formula_units_Z   2
loop_
 _symmetry_equiv_pos_site_id
 _symmetry_equiv_pos_as_xyz
  1  'x, y, z'
loop_
 _atom_site_type_symbol
 _atom_site_label
 _atom_site_symmetry_multiplicity
 _atom_site_fract_x
 _atom_site_fract_y
 _atom_site_fract_z
 _atom_site_occupancy
  Mg  Mg0  1  0.176263  0.677686  0.000000  1
  Mg  Mg1  1  0.676265  0.822316  0.000000  1
  Sc  Sc2  1  0.324962  0.173660  0.000000  1
  Sc  Sc3  1  0.824963  0.326339  0.000000  1
  Ga  Ga4  1  0.000128  0.999980  0.000000  1
  Ga  Ga5  1  0.500128  0.500020  0.000000  1
  B  B6  1  0.625117  0.124619  0.000000  1
  B  B7  1  0.125116  0.375380  0.000000  1
  B  B8  1  0.872472  0.628392  0.000000  1
  B  B9  1  0.372471  0.871609  0.000000  1
  Rh  Rh10  1  0.500753  0.999046  0.499998  1
  Rh  Rh11  1  0.784097  0.073161  0.499998  1
  Rh  Rh12  1  0.070494  0.216704  0.499998  1
  Rh  Rh13  1  0.570493  0.283296  0.499998  1
  Rh  Rh14  1  0.284096  0.426841  0.499998  1
  Rh  Rh15  1  0.000753  0.500954  0.499998  1
  Rh  Rh16  1  0.716822  0.568484  0.499998  1
  Rh  Rh17  1  0.428896  0.715285  0.499998  1
  Rh  Rh18  1  0.928895  0.784716  0.499998  1
  Rh  Rh19  1  0.216822  0.931516  0.499998  1
