# generated using pymatgen
data_LiPrSmSi3Ag
_symmetry_space_group_name_H-M   'P 1'
_cell_length_a   9.50121010
_cell_length_b   9.50121074
_cell_length_c   6.92724839
_cell_angle_alpha   89.79546203
_cell_angle_beta   90.20453752
_cell_angle_gamma   153.32974927
_symmetry_Int_Tables_number   1
_chemical_formula_structural   LiPrSmSi3Ag
_chemical_formula_sum   'Li2 Pr2 Sm2 Si6 Ag2'
_cell_volume   280.68671282
_cell_formula_units_Z   2
loop_
 _symmetry_equiv_pos_site_id
 _symmetry_equiv_pos_as_xyz
  1  'x, y, z'
loop_
 _atom_site_type_symbol
 _atom_site_label
 _atom_site_symmetry_multiplicity
 _atom_site_fract_x
 _atom_site_fract_y
 _atom_site_fract_z
 _atom_site_occupancy
  Li  Li0  1  0.188518  0.811482  0.058392  1
  Li  Li1  1  0.811482  0.188518  0.941608  1
  Pr  Pr2  1  0.553273  0.446727  0.250727  1
  Pr  Pr3  1  0.446727  0.553273  0.749273  1
  Sm  Sm4  1  0.345295  0.654705  0.243583  1
  Sm  Sm5  1  0.654705  0.345295  0.756417  1
  Si  Si6  1  0.941641  0.058359  0.074038  1
  Si  Si7  1  0.058359  0.941641  0.925962  1
  Si  Si8  1  0.057609  0.942391  0.579714  1
  Si  Si9  1  0.942391  0.057609  0.420286  1
  Si  Si10  1  0.722557  0.277443  0.241736  1
  Si  Si11  1  0.277443  0.722557  0.758264  1
  Ag  Ag12  1  0.812778  0.187222  0.565795  1
  Ag  Ag13  1  0.187222  0.812778  0.434205  1
