# generated using pymatgen
data_Sr4Ga10(IrPt)3
_symmetry_space_group_name_H-M   'P 1'
_cell_length_a   8.73731647
_cell_length_b   8.74548119
_cell_length_c   8.74524900
_cell_angle_alpha   140.38566355
_cell_angle_beta   107.65732721
_cell_angle_gamma   85.78662864
_symmetry_Int_Tables_number   1
_chemical_formula_structural   Sr4Ga10(IrPt)3
_chemical_formula_sum   'Sr4 Ga10 Ir3 Pt3'
_cell_volume   391.64210203
_cell_formula_units_Z   1
loop_
 _symmetry_equiv_pos_site_id
 _symmetry_equiv_pos_as_xyz
  1  'x, y, z'
loop_
 _atom_site_type_symbol
 _atom_site_label
 _atom_site_symmetry_multiplicity
 _atom_site_fract_x
 _atom_site_fract_y
 _atom_site_fract_z
 _atom_site_occupancy
  Sr  Sr0  1  0.093433  0.864230  0.229230  1
  Sr  Sr1  1  0.635014  0.363290  0.271693  1
  Sr  Sr2  1  0.907125  0.136017  0.771078  1
  Sr  Sr3  1  0.364573  0.635921  0.728719  1
  Ga  Ga4  1  0.291339  0.042070  0.754708  1
  Ga  Ga5  1  0.291392  0.536612  0.249277  1
  Ga  Ga6  1  0.003605  0.248509  0.249510  1
  Ga  Ga7  1  0.244218  0.406209  0.837954  1
  Ga  Ga8  1  0.756320  0.594113  0.162302  1
  Ga  Ga9  1  0.708875  0.459261  0.749566  1
  Ga  Ga10  1  0.568113  0.905992  0.662133  1
  Ga  Ga11  1  0.708928  0.959359  0.249666  1
  Ga  Ga12  1  0.427893  0.094487  0.333369  1
  Ga  Ga13  1  0.003678  0.754096  0.755154  1
  Ir  Ir14  1  0.239847  0.142627  0.097248  1
  Ir  Ir15  1  0.499944  0.751057  0.250245  1
  Ir  Ir16  1  0.499988  0.249701  0.748909  1
  Pt  Pt17  1  0.042990  0.643568  0.399373  1
  Pt  Pt18  1  0.756255  0.856369  0.899911  1
  Pt  Pt19  1  0.956471  0.356514  0.599958  1
