# generated using pymatgen
data_SmEr3(CBr)2
_symmetry_space_group_name_H-M   'P 1'
_cell_length_a   3.66776800
_cell_length_b   3.66776827
_cell_length_c   14.19390000
_cell_angle_alpha   90.00000000
_cell_angle_beta   90.00000000
_cell_angle_gamma   120.00001558
_symmetry_Int_Tables_number   1
_chemical_formula_structural   SmEr3(CBr)2
_chemical_formula_sum   'Sm1 Er3 C2 Br2'
_cell_volume   165.36212749
_cell_formula_units_Z   1
loop_
 _symmetry_equiv_pos_site_id
 _symmetry_equiv_pos_as_xyz
  1  'x, y, z'
loop_
 _atom_site_type_symbol
 _atom_site_label
 _atom_site_symmetry_multiplicity
 _atom_site_fract_x
 _atom_site_fract_y
 _atom_site_fract_z
 _atom_site_occupancy
  Sm  Sm0  1  0.333333  0.666667  0.410683  1
  Er  Er1  1  0.333333  0.666667  0.085538  1
  Er  Er2  1  0.666667  0.333333  0.593231  1
  Er  Er3  1  0.666667  0.333333  0.909436  1
  C  C4  1  0.000000  0.000000  0.996971  1
  C  C5  1  0.000000  0.000000  0.510190  1
  Br  Br6  1  0.666667  0.333333  0.240765  1
  Br  Br7  1  0.333333  0.666667  0.753187  1
