# generated using pymatgen
data_Ti8Al14SiIr6Rh
_symmetry_space_group_name_H-M   'P 1'
_cell_length_a   8.63706716
_cell_length_b   8.63706662
_cell_length_c   8.63706611
_cell_angle_alpha   120.05847906
_cell_angle_beta   119.86091147
_cell_angle_gamma   90.06990766
_symmetry_Int_Tables_number   1
_chemical_formula_structural   Ti8Al14SiIr6Rh
_chemical_formula_sum   'Ti8 Al14 Si1 Ir6 Rh1'
_cell_volume   455.87560236
_cell_formula_units_Z   1
loop_
 _symmetry_equiv_pos_site_id
 _symmetry_equiv_pos_as_xyz
  1  'x, y, z'
loop_
 _atom_site_type_symbol
 _atom_site_label
 _atom_site_symmetry_multiplicity
 _atom_site_fract_x
 _atom_site_fract_y
 _atom_site_fract_z
 _atom_site_occupancy
  Ti  Ti0  1  0.797803  0.296851  0.087694  1
  Ti  Ti1  1  0.209158  0.296851  0.499048  1
  Ti  Ti2  1  0.202253  0.702253  0.500000  1
  Ti  Ti3  1  0.209158  0.710109  0.912306  1
  Ti  Ti4  1  0.797803  0.710109  0.500952  1
  Ti  Ti5  1  0.790956  0.290956  0.500000  1
  Ti  Ti6  1  0.379201  0.122626  0.743425  1
  Ti  Ti7  1  0.379201  0.635776  0.256575  1
  Al  Al8  1  0.156638  0.340486  0.183847  1
  Al  Al9  1  0.156638  0.972791  0.816153  1
  Al  Al10  1  0.152781  0.343788  0.808993  1
  Al  Al11  1  0.534794  0.343788  0.191007  1
  Al  Al12  1  0.842643  0.655640  0.812998  1
  Al  Al13  1  0.842643  0.029644  0.187002  1
  Al  Al14  1  0.840488  0.657538  0.182950  1
  Al  Al15  1  0.474587  0.657538  0.817050  1
  Al  Al16  1  0.379971  0.120392  0.259579  1
  Al  Al17  1  0.860814  0.120392  0.740421  1
  Al  Al18  1  0.620599  0.878769  0.258171  1
  Al  Al19  1  0.620599  0.362428  0.741829  1
  Al  Al20  1  0.620722  0.878903  0.741819  1
  Al  Al21  1  0.137082  0.878903  0.258181  1
  Si  Si22  1  0.997382  0.497382  0.500000  1
  Ir  Ir23  1  0.001824  0.999962  0.501831  1
  Ir  Ir24  1  0.498131  0.999962  0.998138  1
  Ir  Ir25  1  0.497537  0.497537  0.000000  1
  Ir  Ir26  1  0.498131  0.499993  0.498169  1
  Ir  Ir27  1  0.001824  0.499993  0.001862  1
  Ir  Ir28  1  0.999605  0.999605  0.000000  1
  Rh  Rh29  1  0.499034  0.999034  0.500000  1
