# generated using pymatgen
data_Dy4Tc2B16MoW
_symmetry_space_group_name_H-M   'P 1'
_cell_length_a   3.61149000
_cell_length_b   6.00022860
_cell_length_c   11.60702400
_cell_angle_alpha   90.09091559
_cell_angle_beta   90.00000000
_cell_angle_gamma   90.00000000
_symmetry_Int_Tables_number   1
_chemical_formula_structural   Dy4Tc2B16MoW
_chemical_formula_sum   'Dy4 Tc2 B16 Mo1 W1'
_cell_volume   251.52117266
_cell_formula_units_Z   1
loop_
 _symmetry_equiv_pos_site_id
 _symmetry_equiv_pos_as_xyz
  1  'x, y, z'
loop_
 _atom_site_type_symbol
 _atom_site_label
 _atom_site_symmetry_multiplicity
 _atom_site_fract_x
 _atom_site_fract_y
 _atom_site_fract_z
 _atom_site_occupancy
  Dy  Dy0  1  0.000000  0.127224  0.151481  1
  Dy  Dy1  1  0.000000  0.873085  0.848392  1
  Dy  Dy2  1  0.000000  0.627550  0.351284  1
  Dy  Dy3  1  0.000000  0.372489  0.648913  1
  Tc  Tc4  1  0.000000  0.133990  0.413587  1
  Tc  Tc5  1  0.000000  0.865848  0.586339  1
  B  B6  1  0.500000  0.475414  0.194459  1
  B  B7  1  0.500000  0.524065  0.805645  1
  B  B8  1  0.500000  0.977385  0.308795  1
  B  B9  1  0.500000  0.022795  0.691261  1
  B  B10  1  0.500000  0.284956  0.315832  1
  B  B11  1  0.500000  0.714974  0.684241  1
  B  B12  1  0.500000  0.789413  0.187238  1
  B  B13  1  0.500000  0.211030  0.813108  1
  B  B14  1  0.500000  0.363506  0.468954  1
  B  B15  1  0.500000  0.636476  0.531077  1
  B  B16  1  0.500000  0.867397  0.032247  1
  B  B17  1  0.500000  0.133068  0.967498  1
  B  B18  1  0.500000  0.384920  0.047315  1
  B  B19  1  0.500000  0.614552  0.952350  1
  B  B20  1  0.500000  0.887174  0.452970  1
  B  B21  1  0.500000  0.112842  0.547030  1
  Mo  Mo22  1  0.000000  0.370199  0.914946  1
  W  W23  1  0.000000  0.629649  0.085039  1
