# generated using pymatgen
data_Dy4TlRh
_symmetry_space_group_name_H-M   'P 1'
_cell_length_a   9.69344471
_cell_length_b   9.69344452
_cell_length_c   9.69344400
_cell_angle_alpha   59.99999496
_cell_angle_beta   59.99999561
_cell_angle_gamma   59.99999839
_symmetry_Int_Tables_number   1
_chemical_formula_structural   Dy4TlRh
_chemical_formula_sum   'Dy16 Tl4 Rh4'
_cell_volume   644.04963484
_cell_formula_units_Z   4
loop_
 _symmetry_equiv_pos_site_id
 _symmetry_equiv_pos_as_xyz
  1  'x, y, z'
loop_
 _atom_site_type_symbol
 _atom_site_label
 _atom_site_symmetry_multiplicity
 _atom_site_fract_x
 _atom_site_fract_y
 _atom_site_fract_z
 _atom_site_occupancy
  Dy  Dy0  1  0.687708  0.312292  0.312292  1
  Dy  Dy1  1  0.687708  0.687708  0.312292  1
  Dy  Dy2  1  0.312292  0.687708  0.312292  1
  Dy  Dy3  1  0.938271  0.938271  0.561729  1
  Dy  Dy4  1  0.150475  0.150475  0.548575  1
  Dy  Dy5  1  0.561729  0.938271  0.561729  1
  Dy  Dy6  1  0.150475  0.150475  0.150475  1
  Dy  Dy7  1  0.312292  0.312292  0.687708  1
  Dy  Dy8  1  0.938271  0.561729  0.561729  1
  Dy  Dy9  1  0.561729  0.561729  0.938271  1
  Dy  Dy10  1  0.561729  0.938271  0.938271  1
  Dy  Dy11  1  0.938271  0.561729  0.938271  1
  Dy  Dy12  1  0.150475  0.548575  0.150475  1
  Dy  Dy13  1  0.312292  0.687708  0.687708  1
  Dy  Dy14  1  0.687708  0.312292  0.687708  1
  Dy  Dy15  1  0.548575  0.150475  0.150475  1
  Tl  Tl16  1  0.914614  0.914614  0.256159  1
  Tl  Tl17  1  0.256159  0.914614  0.914614  1
  Tl  Tl18  1  0.914614  0.256159  0.914614  1
  Tl  Tl19  1  0.914614  0.914614  0.914614  1
  Rh  Rh20  1  0.357385  0.357385  0.357385  1
  Rh  Rh21  1  0.927846  0.357385  0.357385  1
  Rh  Rh22  1  0.357385  0.357385  0.927846  1
  Rh  Rh23  1  0.357385  0.927846  0.357385  1
