# generated using pymatgen
data_Er4ScIn4CuRh
_symmetry_space_group_name_H-M   'P 1'
_cell_length_a   3.56807100
_cell_length_b   7.96195457
_cell_length_c   17.92368627
_cell_angle_alpha   89.97260050
_cell_angle_beta   90.00000000
_cell_angle_gamma   90.00000000
_symmetry_Int_Tables_number   1
_chemical_formula_structural   Er4ScIn4CuRh
_chemical_formula_sum   'Er8 Sc2 In8 Cu2 Rh2'
_cell_volume   509.19070435
_cell_formula_units_Z   2
loop_
 _symmetry_equiv_pos_site_id
 _symmetry_equiv_pos_as_xyz
  1  'x, y, z'
loop_
 _atom_site_type_symbol
 _atom_site_label
 _atom_site_symmetry_multiplicity
 _atom_site_fract_x
 _atom_site_fract_y
 _atom_site_fract_z
 _atom_site_occupancy
  Er  Er0  1  0.000000  0.000000  0.000000  1
  Er  Er1  1  0.000000  0.500000  0.500000  1
  Er  Er2  1  0.000000  0.740996  0.785279  1
  Er  Er3  1  0.000000  0.259004  0.214721  1
  Er  Er4  1  0.000000  0.261606  0.721980  1
  Er  Er5  1  0.000000  0.738394  0.278020  1
  Er  Er6  1  0.000000  0.878826  0.585107  1
  Er  Er7  1  0.000000  0.121174  0.414893  1
  Sc  Sc8  1  0.000000  0.377988  0.912880  1
  Sc  Sc9  1  0.000000  0.622012  0.087120  1
  In  In10  1  0.500000  0.795017  0.431771  1
  In  In11  1  0.500000  0.204983  0.568229  1
  In  In12  1  0.500000  0.308791  0.061002  1
  In  In13  1  0.500000  0.691209  0.938998  1
  In  In14  1  0.500000  0.920580  0.149366  1
  In  In15  1  0.500000  0.079420  0.850634  1
  In  In16  1  0.500000  0.425924  0.348173  1
  In  In17  1  0.500000  0.574076  0.651827  1
  Cu  Cu18  1  0.500000  0.968286  0.699916  1
  Cu  Cu19  1  0.500000  0.031714  0.300084  1
  Rh  Rh20  1  0.500000  0.464964  0.809142  1
  Rh  Rh21  1  0.500000  0.535036  0.190858  1
