# generated using pymatgen
data_HoEr11(IrPd)2
_symmetry_space_group_name_H-M   'P 1'
_cell_length_a   6.39092252
_cell_length_b   7.09719887
_cell_length_c   9.32742000
_cell_angle_alpha   90.00000000
_cell_angle_beta   90.00000000
_cell_angle_gamma   90.00526351
_symmetry_Int_Tables_number   1
_chemical_formula_structural   HoEr11(IrPd)2
_chemical_formula_sum   'Ho1 Er11 Ir2 Pd2'
_cell_volume   423.06983222
_cell_formula_units_Z   1
loop_
 _symmetry_equiv_pos_site_id
 _symmetry_equiv_pos_as_xyz
  1  'x, y, z'
loop_
 _atom_site_type_symbol
 _atom_site_label
 _atom_site_symmetry_multiplicity
 _atom_site_fract_x
 _atom_site_fract_y
 _atom_site_fract_z
 _atom_site_occupancy
  Ho  Ho0  1  0.865652  0.522709  0.250000  1
  Er  Er1  1  0.331373  0.676873  0.059466  1
  Er  Er2  1  0.177011  0.182990  0.437765  1
  Er  Er3  1  0.668787  0.323220  0.559829  1
  Er  Er4  1  0.823078  0.817233  0.937502  1
  Er  Er5  1  0.668787  0.323220  0.940171  1
  Er  Er6  1  0.823078  0.817233  0.562498  1
  Er  Er7  1  0.331373  0.676873  0.440534  1
  Er  Er8  1  0.177011  0.182990  0.062235  1
  Er  Er9  1  0.627348  0.037161  0.250000  1
  Er  Er10  1  0.134628  0.476177  0.750000  1
  Er  Er11  1  0.372644  0.963062  0.750000  1
  Ir  Ir12  1  0.450079  0.385353  0.250000  1
  Ir  Ir13  1  0.548954  0.614470  0.750000  1
  Pd  Pd14  1  0.048705  0.885869  0.250000  1
  Pd  Pd15  1  0.951491  0.114569  0.750000  1
