# generated using pymatgen
data_Pr16MgCd3(OsPd)2
_symmetry_space_group_name_H-M   'P 1'
_cell_length_a   10.07025689
_cell_length_b   10.07025816
_cell_length_c   10.16014712
_cell_angle_alpha   59.68966819
_cell_angle_beta   59.68966396
_cell_angle_gamma   59.65809057
_symmetry_Int_Tables_number   1
_chemical_formula_structural   Pr16MgCd3(OsPd)2
_chemical_formula_sum   'Pr16 Mg1 Cd3 Os2 Pd2'
_cell_volume   723.25060117
_cell_formula_units_Z   1
loop_
 _symmetry_equiv_pos_site_id
 _symmetry_equiv_pos_as_xyz
  1  'x, y, z'
loop_
 _atom_site_type_symbol
 _atom_site_label
 _atom_site_symmetry_multiplicity
 _atom_site_fract_x
 _atom_site_fract_y
 _atom_site_fract_z
 _atom_site_occupancy
  Pr  Pr0  1  0.347998  0.347998  0.355637  1
  Pr  Pr1  1  0.347898  0.347898  0.948563  1
  Pr  Pr2  1  0.343239  0.958168  0.348418  1
  Pr  Pr3  1  0.958168  0.343239  0.348418  1
  Pr  Pr4  1  0.815599  0.189993  0.191940  1
  Pr  Pr5  1  0.187304  0.816239  0.804482  1
  Pr  Pr6  1  0.189993  0.815599  0.191940  1
  Pr  Pr7  1  0.816239  0.187304  0.804482  1
  Pr  Pr8  1  0.189412  0.189412  0.810428  1
  Pr  Pr9  1  0.807174  0.807174  0.192744  1
  Pr  Pr10  1  0.937905  0.556832  0.566682  1
  Pr  Pr11  1  0.556030  0.938086  0.940715  1
  Pr  Pr12  1  0.556832  0.937905  0.566682  1
  Pr  Pr13  1  0.938086  0.556030  0.940715  1
  Pr  Pr14  1  0.563130  0.563130  0.938348  1
  Pr  Pr15  1  0.939227  0.939227  0.560218  1
  Mg  Mg16  1  0.575561  0.575561  0.575715  1
  Cd  Cd17  1  0.580169  0.580169  0.259860  1
  Cd  Cd18  1  0.580977  0.258392  0.580360  1
  Cd  Cd19  1  0.258392  0.580977  0.580360  1
  Os  Os20  1  0.144345  0.144345  0.137328  1
  Os  Os21  1  0.144738  0.144738  0.575316  1
  Pd  Pd22  1  0.147482  0.574103  0.140325  1
  Pd  Pd23  1  0.574103  0.147482  0.140325  1
