# generated using pymatgen
data_Dy4Ho3FeBr12
_symmetry_space_group_name_H-M   'P 1'
_cell_length_a   9.23566516
_cell_length_b   9.15311886
_cell_length_c   9.22323442
_cell_angle_alpha   106.73162496
_cell_angle_beta   106.98987392
_cell_angle_gamma   106.86352065
_symmetry_Int_Tables_number   1
_chemical_formula_structural   Dy4Ho3FeBr12
_chemical_formula_sum   'Dy4 Ho3 Fe1 Br12'
_cell_volume   651.76324473
_cell_formula_units_Z   1
loop_
 _symmetry_equiv_pos_site_id
 _symmetry_equiv_pos_as_xyz
  1  'x, y, z'
loop_
 _atom_site_type_symbol
 _atom_site_label
 _atom_site_symmetry_multiplicity
 _atom_site_fract_x
 _atom_site_fract_y
 _atom_site_fract_z
 _atom_site_occupancy
  Dy  Dy0  1  0.805557  0.520591  0.598546  1
  Dy  Dy1  1  0.406596  0.207094  0.478690  1
  Dy  Dy2  1  0.478878  0.402323  0.195027  1
  Dy  Dy3  1  0.593490  0.792542  0.519879  1
  Ho  Ho4  1  0.998353  0.000719  0.000869  1
  Ho  Ho5  1  0.522172  0.596532  0.802494  1
  Ho  Ho6  1  0.197533  0.479828  0.402677  1
  Fe  Fe7  1  0.501264  0.500039  0.499462  1
  Br  Br8  1  0.666194  0.960378  0.884088  1
  Br  Br9  1  0.720422  0.178298  0.569587  1
  Br  Br10  1  0.885297  0.667557  0.963921  1
  Br  Br11  1  0.278287  0.819617  0.430370  1
  Br  Br12  1  0.180906  0.570772  0.722384  1
  Br  Br13  1  0.039811  0.116031  0.333229  1
  Br  Br14  1  0.570365  0.722965  0.179145  1
  Br  Br15  1  0.112897  0.333776  0.038382  1
  Br  Br16  1  0.823291  0.429792  0.278506  1
  Br  Br17  1  0.428577  0.277166  0.818564  1
  Br  Br18  1  0.960388  0.886517  0.669445  1
  Br  Br19  1  0.329721  0.037463  0.114737  1
