# generated using pymatgen
data_Pu2AsNO
_symmetry_space_group_name_H-M   'P 1'
_cell_length_a   3.84745600
_cell_length_b   3.84745632
_cell_length_c   6.74977600
_cell_angle_alpha   90.00000000
_cell_angle_beta   90.00000000
_cell_angle_gamma   119.99999729
_symmetry_Int_Tables_number   1
_chemical_formula_structural   Pu2AsNO
_chemical_formula_sum   'Pu2 As1 N1 O1'
_cell_volume   86.53013143
_cell_formula_units_Z   1
loop_
 _symmetry_equiv_pos_site_id
 _symmetry_equiv_pos_as_xyz
  1  'x, y, z'
loop_
 _atom_site_type_symbol
 _atom_site_label
 _atom_site_symmetry_multiplicity
 _atom_site_fract_x
 _atom_site_fract_y
 _atom_site_fract_z
 _atom_site_occupancy
  Pu  Pu0  1  0.666667  0.333333  0.709715  1
  Pu  Pu1  1  0.333333  0.666667  0.287488  1
  As  As2  1  0.000000  0.000000  0.999223  1
  N  N3  1  0.666667  0.333333  0.376386  1
  O  O4  1  0.333333  0.666667  0.627187  1
