# generated using pymatgen
data_Sm7FeI12
_symmetry_space_group_name_H-M   'P 1'
_cell_length_a   9.81986235
_cell_length_b   9.81986298
_cell_length_c   9.81986257
_cell_angle_alpha   107.28785536
_cell_angle_beta   107.28785657
_cell_angle_gamma   107.28784678
_symmetry_Int_Tables_number   1
_chemical_formula_structural   Sm7FeI12
_chemical_formula_sum   'Sm7 Fe1 I12'
_cell_volume   782.33439299
_cell_formula_units_Z   1
loop_
 _symmetry_equiv_pos_site_id
 _symmetry_equiv_pos_as_xyz
  1  'x, y, z'
loop_
 _atom_site_type_symbol
 _atom_site_label
 _atom_site_symmetry_multiplicity
 _atom_site_fract_x
 _atom_site_fract_y
 _atom_site_fract_z
 _atom_site_occupancy
  Sm  Sm0  1  0.797307  0.529150  0.597679  1
  Sm  Sm1  1  0.529150  0.597679  0.797307  1
  Sm  Sm2  1  0.202693  0.470850  0.402321  1
  Sm  Sm3  1  0.470850  0.402321  0.202693  1
  Sm  Sm4  1  0.000000  0.000000  0.000000  1
  Sm  Sm5  1  0.597679  0.797307  0.529150  1
  Sm  Sm6  1  0.402321  0.202693  0.470850  1
  Fe  Fe7  1  0.500000  0.500000  0.500000  1
  I  I8  1  0.729211  0.184127  0.575446  1
  I  I9  1  0.971478  0.891412  0.657220  1
  I  I10  1  0.575446  0.729211  0.184127  1
  I  I11  1  0.108588  0.342780  0.028522  1
  I  I12  1  0.657220  0.971478  0.891412  1
  I  I13  1  0.891412  0.657220  0.971478  1
  I  I14  1  0.028522  0.108588  0.342780  1
  I  I15  1  0.815873  0.424554  0.270789  1
  I  I16  1  0.342780  0.028522  0.108588  1
  I  I17  1  0.270789  0.815873  0.424554  1
  I  I18  1  0.184127  0.575446  0.729211  1
  I  I19  1  0.424554  0.270789  0.815873  1
