# generated using pymatgen
data_Li2CeTmPt2
_symmetry_space_group_name_H-M   'P 1'
_cell_length_a   4.02511500
_cell_length_b   7.05374100
_cell_length_c   8.46213900
_cell_angle_alpha   90.00000000
_cell_angle_beta   90.00000000
_cell_angle_gamma   90.00000000
_symmetry_Int_Tables_number   1
_chemical_formula_structural   Li2CeTmPt2
_chemical_formula_sum   'Li4 Ce2 Tm2 Pt4'
_cell_volume   240.25805499
_cell_formula_units_Z   2
loop_
 _symmetry_equiv_pos_site_id
 _symmetry_equiv_pos_as_xyz
  1  'x, y, z'
loop_
 _atom_site_type_symbol
 _atom_site_label
 _atom_site_symmetry_multiplicity
 _atom_site_fract_x
 _atom_site_fract_y
 _atom_site_fract_z
 _atom_site_occupancy
  Li  Li0  1  0.250000  0.375193  0.550807  1
  Li  Li1  1  0.250000  0.875193  0.949193  1
  Li  Li2  1  0.750000  0.624274  0.439084  1
  Li  Li3  1  0.750000  0.124274  0.060916  1
  Ce  Ce4  1  0.750000  0.049306  0.681032  1
  Ce  Ce5  1  0.750000  0.549306  0.818968  1
  Tm  Tm6  1  0.250000  0.949412  0.314082  1
  Tm  Tm7  1  0.250000  0.449412  0.185918  1
  Pt  Pt8  1  0.250000  0.259622  0.876556  1
  Pt  Pt9  1  0.250000  0.759622  0.623444  1
  Pt  Pt10  1  0.750000  0.742192  0.127723  1
  Pt  Pt11  1  0.750000  0.242192  0.372277  1
