# generated using pymatgen
data_Pr16Mg3InIr4
_symmetry_space_group_name_H-M   'P 1'
_cell_length_a   10.08061042
_cell_length_b   10.09238499
_cell_length_c   10.09238500
_cell_angle_alpha   60.00000325
_cell_angle_beta   59.96135723
_cell_angle_gamma   59.96135628
_symmetry_Int_Tables_number   1
_chemical_formula_structural   Pr16Mg3InIr4
_chemical_formula_sum   'Pr16 Mg3 In1 Ir4'
_cell_volume   725.61382279
_cell_formula_units_Z   1
loop_
 _symmetry_equiv_pos_site_id
 _symmetry_equiv_pos_as_xyz
  1  'x, y, z'
loop_
 _atom_site_type_symbol
 _atom_site_label
 _atom_site_symmetry_multiplicity
 _atom_site_fract_x
 _atom_site_fract_y
 _atom_site_fract_z
 _atom_site_occupancy
  Pr  Pr0  1  0.345548  0.346739  0.346739  1
  Pr  Pr1  1  0.345548  0.346739  0.960972  1
  Pr  Pr2  1  0.345548  0.960972  0.346739  1
  Pr  Pr3  1  0.963543  0.345485  0.345485  1
  Pr  Pr4  1  0.812464  0.187635  0.187635  1
  Pr  Pr5  1  0.189776  0.809760  0.809760  1
  Pr  Pr6  1  0.189776  0.809760  0.190703  1
  Pr  Pr7  1  0.812464  0.187635  0.812267  1
  Pr  Pr8  1  0.189776  0.190703  0.809760  1
  Pr  Pr9  1  0.812464  0.812267  0.187635  1
  Pr  Pr10  1  0.938487  0.561638  0.561638  1
  Pr  Pr11  1  0.561336  0.938253  0.938253  1
  Pr  Pr12  1  0.561336  0.938253  0.562159  1
  Pr  Pr13  1  0.938487  0.561638  0.938236  1
  Pr  Pr14  1  0.561336  0.562159  0.938253  1
  Pr  Pr15  1  0.938487  0.938236  0.561638  1
  Mg  Mg16  1  0.577076  0.578156  0.578156  1
  Mg  Mg17  1  0.577076  0.578156  0.266610  1
  Mg  Mg18  1  0.577076  0.266610  0.578156  1
  In  In19  1  0.261581  0.579473  0.579473  1
  Ir  Ir20  1  0.141520  0.141251  0.141251  1
  Ir  Ir21  1  0.141520  0.141251  0.575979  1
  Ir  Ir22  1  0.141520  0.575979  0.141251  1
  Ir  Ir23  1  0.576254  0.141249  0.141249  1
