# generated using pymatgen
data_Ga2Sb8AsPd4
_symmetry_space_group_name_H-M   'P 1'
_cell_length_a   20.30622550
_cell_length_b   20.30622411
_cell_length_c   6.63672000
_cell_angle_alpha   69.72811766
_cell_angle_beta   69.72811611
_cell_angle_gamma   8.12736825
_symmetry_Int_Tables_number   1
_chemical_formula_structural   Ga2Sb8AsPd4
_chemical_formula_sum   'Ga2 Sb8 As1 Pd4'
_cell_volume   362.79592425
_cell_formula_units_Z   1
loop_
 _symmetry_equiv_pos_site_id
 _symmetry_equiv_pos_as_xyz
  1  'x, y, z'
loop_
 _atom_site_type_symbol
 _atom_site_label
 _atom_site_symmetry_multiplicity
 _atom_site_fract_x
 _atom_site_fract_y
 _atom_site_fract_z
 _atom_site_occupancy
  Ga  Ga0  1  0.079569  0.079569  0.703062  1
  Ga  Ga1  1  0.474336  0.474336  0.740648  1
  Sb  Sb2  1  0.674851  0.674851  0.715217  1
  Sb  Sb3  1  0.277001  0.277001  0.724372  1
  Sb  Sb4  1  0.877043  0.877043  0.731027  1
  Sb  Sb5  1  0.545688  0.545688  0.392130  1
  Sb  Sb6  1  0.133223  0.133223  0.255732  1
  Sb  Sb7  1  0.732377  0.732377  0.258493  1
  Sb  Sb8  1  0.333666  0.333666  0.269956  1
  Sb  Sb9  1  0.933868  0.933868  0.264815  1
  As  As10  1  0.006076  0.006076  0.982863  1
  Pd  Pd11  1  0.601774  0.601774  0.984468  1
  Pd  Pd12  1  0.203673  0.203673  0.987991  1
  Pd  Pd13  1  0.804902  0.804902  0.999485  1
  Pd  Pd14  1  0.407674  0.407674  0.989738  1
