# generated using pymatgen
data_Th5U(Cu3Sn4)2
_symmetry_space_group_name_H-M   'P 1'
_cell_length_a   8.42556919
_cell_length_b   8.42556883
_cell_length_c   8.42556872
_cell_angle_alpha   109.29557426
_cell_angle_beta   109.29557242
_cell_angle_gamma   109.82308488
_symmetry_Int_Tables_number   1
_chemical_formula_structural   Th5U(Cu3Sn4)2
_chemical_formula_sum   'Th5 U1 Cu6 Sn8'
_cell_volume   460.42992717
_cell_formula_units_Z   1
loop_
 _symmetry_equiv_pos_site_id
 _symmetry_equiv_pos_as_xyz
  1  'x, y, z'
loop_
 _atom_site_type_symbol
 _atom_site_label
 _atom_site_symmetry_multiplicity
 _atom_site_fract_x
 _atom_site_fract_y
 _atom_site_fract_z
 _atom_site_occupancy
  Th  Th0  1  0.875268  0.252018  0.123351  1
  Th  Th1  1  0.628667  0.751917  0.376649  1
  Th  Th2  1  0.248083  0.124732  0.876750  1
  Th  Th3  1  0.747982  0.371333  0.623250  1
  Th  Th4  1  0.125000  0.875000  0.250000  1
  U  U5  1  0.375000  0.625000  0.750000  1
  Cu  Cu6  1  0.375628  0.253528  0.630400  1
  Cu  Cu7  1  0.123128  0.745228  0.869600  1
  Cu  Cu8  1  0.254772  0.624372  0.377899  1
  Cu  Cu9  1  0.746472  0.876872  0.122101  1
  Cu  Cu10  1  0.625000  0.375000  0.250000  1
  Cu  Cu11  1  0.875000  0.125000  0.750000  1
  Sn  Sn12  1  0.663670  0.503119  0.998075  1
  Sn  Sn13  1  0.497574  0.996409  0.668127  1
  Sn  Sn14  1  0.005043  0.665594  0.501925  1
  Sn  Sn15  1  0.828282  0.829447  0.831873  1
  Sn  Sn16  1  0.496881  0.994957  0.160551  1
  Sn  Sn17  1  0.170553  0.502426  0.998835  1
  Sn  Sn18  1  0.003591  0.171718  0.501165  1
  Sn  Sn19  1  0.334406  0.336330  0.339449  1
