# generated using pymatgen
data_Tb8LuSc11Si15Os
_symmetry_space_group_name_H-M   'P 1'
_cell_length_a   7.10575558
_cell_length_b   7.46912975
_cell_length_c   14.02016649
_cell_angle_alpha   89.94052481
_cell_angle_beta   90.05510169
_cell_angle_gamma   90.27930571
_symmetry_Int_Tables_number   1
_chemical_formula_structural   Tb8LuSc11Si15Os
_chemical_formula_sum   'Tb8 Lu1 Sc11 Si15 Os1'
_cell_volume   744.09407492
_cell_formula_units_Z   1
loop_
 _symmetry_equiv_pos_site_id
 _symmetry_equiv_pos_as_xyz
  1  'x, y, z'
loop_
 _atom_site_type_symbol
 _atom_site_label
 _atom_site_symmetry_multiplicity
 _atom_site_fract_x
 _atom_site_fract_y
 _atom_site_fract_z
 _atom_site_occupancy
  Tb  Tb0  1  0.011634  0.178882  0.096439  1
  Tb  Tb1  1  0.990349  0.827568  0.903903  1
  Tb  Tb2  1  0.488234  0.676471  0.904458  1
  Tb  Tb3  1  0.989403  0.826426  0.596638  1
  Tb  Tb4  1  0.511376  0.323096  0.096472  1
  Tb  Tb5  1  0.011412  0.178835  0.403258  1
  Tb  Tb6  1  0.511998  0.323048  0.402476  1
  Tb  Tb7  1  0.488269  0.676701  0.596211  1
  Lu  Lu8  1  0.318462  0.172524  0.626280  1
  Sc  Sc9  1  0.154607  0.497368  0.751152  1
  Sc  Sc10  1  0.838531  0.495348  0.249952  1
  Sc  Sc11  1  0.339280  0.005154  0.249722  1
  Sc  Sc12  1  0.670266  0.998175  0.750705  1
  Sc  Sc13  1  0.672349  0.825517  0.373200  1
  Sc  Sc14  1  0.171563  0.677808  0.373375  1
  Sc  Sc15  1  0.672114  0.825728  0.126233  1
  Sc  Sc16  1  0.836835  0.318788  0.627761  1
  Sc  Sc17  1  0.317641  0.172037  0.873035  1
  Sc  Sc18  1  0.837320  0.318724  0.872922  1
  Sc  Sc19  1  0.171361  0.678053  0.125843  1
  Si  Si20  1  0.968733  0.883305  0.249763  1
  Si  Si21  1  0.469184  0.615215  0.249843  1
  Si  Si22  1  0.530933  0.391449  0.751474  1
  Si  Si23  1  0.284807  0.866233  0.751361  1
  Si  Si24  1  0.712976  0.128949  0.249950  1
  Si  Si25  1  0.213827  0.371833  0.249834  1
  Si  Si26  1  0.779290  0.626301  0.750315  1
  Si  Si27  1  0.155502  0.473123  0.535944  1
  Si  Si28  1  0.844979  0.536733  0.461065  1
  Si  Si29  1  0.346855  0.962936  0.457288  1
  Si  Si30  1  0.845364  0.536332  0.038664  1
  Si  Si31  1  0.658923  0.032837  0.536954  1
  Si  Si32  1  0.158815  0.468789  0.963255  1
  Si  Si33  1  0.654597  0.034166  0.961902  1
  Si  Si34  1  0.345881  0.965592  0.040161  1
  Os  Os35  1  0.026328  0.109955  0.752191  1
