# generated using pymatgen
data_Cs6CeDy(TaS4)4
_symmetry_space_group_name_H-M   'P 1'
_cell_length_a   9.81989528
_cell_length_b   10.84332835
_cell_length_c   11.55974900
_cell_angle_alpha   107.48380216
_cell_angle_beta   103.79446917
_cell_angle_gamma   113.39808476
_symmetry_Int_Tables_number   1
_chemical_formula_structural   Cs6CeDy(TaS4)4
_chemical_formula_sum   'Cs6 Ce1 Dy1 Ta4 S16'
_cell_volume   983.39005067
_cell_formula_units_Z   1
loop_
 _symmetry_equiv_pos_site_id
 _symmetry_equiv_pos_as_xyz
  1  'x, y, z'
loop_
 _atom_site_type_symbol
 _atom_site_label
 _atom_site_symmetry_multiplicity
 _atom_site_fract_x
 _atom_site_fract_y
 _atom_site_fract_z
 _atom_site_occupancy
  Cs  Cs0  1  0.000700  0.499013  0.998760  1
  Cs  Cs1  1  0.498192  0.499904  0.998789  1
  Cs  Cs2  1  0.265579  0.015554  0.031281  1
  Cs  Cs3  1  0.484002  0.733943  0.467842  1
  Cs  Cs4  1  0.516953  0.267039  0.534184  1
  Cs  Cs5  1  0.734307  0.984238  0.968602  1
  Ce  Ce6  1  0.996763  0.247015  0.493565  1
  Dy  Dy7  1  0.001250  0.751533  0.502642  1
  Ta  Ta8  1  0.760340  0.356877  0.262742  1
  Ta  Ta9  1  0.002398  0.906010  0.262799  1
  Ta  Ta10  1  0.999300  0.088214  0.737413  1
  Ta  Ta11  1  0.238041  0.649016  0.737252  1
  S  S12  1  0.655370  0.277369  0.040377  1
  S  S13  1  0.885062  0.763052  0.040483  1
  S  S14  1  0.118103  0.154272  0.302442  1
  S  S15  1  0.684475  0.148406  0.302536  1
  S  S16  1  0.036026  0.498063  0.354667  1
  S  S17  1  0.818262  0.855828  0.354292  1
  S  S18  1  0.189575  0.855187  0.365195  1
  S  S19  1  0.675615  0.510041  0.365352  1
  S  S20  1  0.331088  0.501959  0.638111  1
  S  S21  1  0.807419  0.136238  0.637889  1
  S  S22  1  0.186921  0.147401  0.650431  1
  S  S23  1  0.963425  0.503075  0.650686  1
  S  S24  1  0.302898  0.853098  0.691023  1
  S  S25  1  0.888059  0.837918  0.691203  1
  S  S26  1  0.112962  0.230802  0.959807  1
  S  S27  1  0.346910  0.728932  0.959633  1
