# generated using pymatgen
data_GdDy3C5
_symmetry_space_group_name_H-M   'P 1'
_cell_length_a   3.67703500
_cell_length_b   6.59669615
_cell_length_c   12.03236673
_cell_angle_alpha   89.88810164
_cell_angle_beta   90.00000000
_cell_angle_gamma   90.00000000
_symmetry_Int_Tables_number   1
_chemical_formula_structural   GdDy3C5
_chemical_formula_sum   'Gd2 Dy6 C10'
_cell_volume   291.85993143
_cell_formula_units_Z   2
loop_
 _symmetry_equiv_pos_site_id
 _symmetry_equiv_pos_as_xyz
  1  'x, y, z'
loop_
 _atom_site_type_symbol
 _atom_site_label
 _atom_site_symmetry_multiplicity
 _atom_site_fract_x
 _atom_site_fract_y
 _atom_site_fract_z
 _atom_site_occupancy
  Gd  Gd0  1  0.000000  0.246244  0.042581  1
  Gd  Gd1  1  0.000000  0.753756  0.957419  1
  Dy  Dy2  1  0.500000  0.392455  0.304320  1
  Dy  Dy3  1  0.500000  0.607545  0.695680  1
  Dy  Dy4  1  0.500000  0.107792  0.803388  1
  Dy  Dy5  1  0.500000  0.892208  0.196612  1
  Dy  Dy6  1  0.000000  0.256035  0.542125  1
  Dy  Dy7  1  0.000000  0.743965  0.457875  1
  C  C8  1  0.500000  0.000000  0.000000  1
  C  C9  1  0.500000  0.500000  0.500000  1
  C  C10  1  0.000000  0.138641  0.236669  1
  C  C11  1  0.000000  0.861360  0.763331  1
  C  C12  1  0.000000  0.360206  0.733508  1
  C  C13  1  0.000000  0.639794  0.266492  1
  C  C14  1  0.000000  0.094165  0.344748  1
  C  C15  1  0.000000  0.905835  0.655252  1
  C  C16  1  0.000000  0.403547  0.841430  1
  C  C17  1  0.000000  0.596453  0.158570  1
