# generated using pymatgen
data_Ce4Pr4Al8Ir7Rh
_symmetry_space_group_name_H-M   'P 1'
_cell_length_a   4.24265000
_cell_length_b   7.08497107
_cell_length_c   16.27115115
_cell_angle_alpha   90.01568355
_cell_angle_beta   90.00000000
_cell_angle_gamma   90.00000000
_symmetry_Int_Tables_number   1
_chemical_formula_structural   Ce4Pr4Al8Ir7Rh
_chemical_formula_sum   'Ce4 Pr4 Al8 Ir7 Rh1'
_cell_volume   489.09536832
_cell_formula_units_Z   1
loop_
 _symmetry_equiv_pos_site_id
 _symmetry_equiv_pos_as_xyz
  1  'x, y, z'
loop_
 _atom_site_type_symbol
 _atom_site_label
 _atom_site_symmetry_multiplicity
 _atom_site_fract_x
 _atom_site_fract_y
 _atom_site_fract_z
 _atom_site_occupancy
  Ce  Ce0  1  0.250000  0.027509  0.778951  1
  Ce  Ce1  1  0.750000  0.972672  0.220856  1
  Ce  Ce2  1  0.250000  0.527481  0.721063  1
  Ce  Ce3  1  0.750000  0.471796  0.278755  1
  Pr  Pr4  1  0.250000  0.154410  0.560677  1
  Pr  Pr5  1  0.750000  0.844568  0.439412  1
  Pr  Pr6  1  0.250000  0.654830  0.939379  1
  Pr  Pr7  1  0.750000  0.344428  0.060362  1
  Al  Al8  1  0.250000  0.149814  0.349712  1
  Al  Al9  1  0.750000  0.852160  0.650417  1
  Al  Al10  1  0.250000  0.647064  0.149478  1
  Al  Al11  1  0.750000  0.351953  0.849537  1
  Al  Al12  1  0.250000  0.006504  0.062689  1
  Al  Al13  1  0.750000  0.993337  0.937383  1
  Al  Al14  1  0.250000  0.505797  0.438016  1
  Al  Al15  1  0.750000  0.493459  0.562758  1
  Ir  Ir16  1  0.750000  0.284920  0.425036  1
  Ir  Ir17  1  0.250000  0.716316  0.574300  1
  Ir  Ir18  1  0.750000  0.784996  0.074962  1
  Ir  Ir19  1  0.250000  0.215781  0.925464  1
  Ir  Ir20  1  0.750000  0.743826  0.810610  1
  Ir  Ir21  1  0.250000  0.256160  0.189846  1
  Ir  Ir22  1  0.750000  0.244420  0.689357  1
  Rh  Rh23  1  0.250000  0.755798  0.310978  1
