# generated using pymatgen
data_Ti4ReRh
_symmetry_space_group_name_H-M   'P 1'
_cell_length_a   13.40405200
_cell_length_b   3.13634800
_cell_length_c   4.46011400
_cell_angle_alpha   90.00000000
_cell_angle_beta   90.00000000
_cell_angle_gamma   90.00000000
_symmetry_Int_Tables_number   1
_chemical_formula_structural   Ti4ReRh
_chemical_formula_sum   'Ti8 Re2 Rh2'
_cell_volume   187.50217424
_cell_formula_units_Z   2
loop_
 _symmetry_equiv_pos_site_id
 _symmetry_equiv_pos_as_xyz
  1  'x, y, z'
loop_
 _atom_site_type_symbol
 _atom_site_label
 _atom_site_symmetry_multiplicity
 _atom_site_fract_x
 _atom_site_fract_y
 _atom_site_fract_z
 _atom_site_occupancy
  Ti  Ti0  1  0.644763  0.000000  0.000000  1
  Ti  Ti1  1  0.959680  0.000000  0.000000  1
  Ti  Ti2  1  0.144717  0.499999  0.000000  1
  Ti  Ti3  1  0.459677  0.499999  0.000000  1
  Ti  Ti4  1  0.481235  0.000000  0.500001  1
  Ti  Ti5  1  0.804715  0.000000  0.500001  1
  Ti  Ti6  1  0.304666  0.499999  0.500001  1
  Ti  Ti7  1  0.981144  0.499999  0.500001  1
  Re  Re8  1  0.303749  0.000000  0.000000  1
  Re  Re9  1  0.803723  0.499999  0.000000  1
  Rh  Rh10  1  0.139277  0.000000  0.500001  1
  Rh  Rh11  1  0.639295  0.499999  0.500001  1
