# generated using pymatgen
data_Zr10Bi4Pb3Au
_symmetry_space_group_name_H-M   'P 1'
_cell_length_a   8.89725890
_cell_length_b   8.90354576
_cell_length_c   6.01960640
_cell_angle_alpha   89.95730492
_cell_angle_beta   90.02136388
_cell_angle_gamma   120.02338123
_symmetry_Int_Tables_number   1
_chemical_formula_structural   Zr10Bi4Pb3Au
_chemical_formula_sum   'Zr10 Bi4 Pb3 Au1'
_cell_volume   412.87202733
_cell_formula_units_Z   1
loop_
 _symmetry_equiv_pos_site_id
 _symmetry_equiv_pos_as_xyz
  1  'x, y, z'
loop_
 _atom_site_type_symbol
 _atom_site_label
 _atom_site_symmetry_multiplicity
 _atom_site_fract_x
 _atom_site_fract_y
 _atom_site_fract_z
 _atom_site_occupancy
  Zr  Zr0  1  0.334032  0.667016  0.000000  1
  Zr  Zr1  1  0.665613  0.332806  0.500000  1
  Zr  Zr2  1  0.666363  0.333181  0.000000  1
  Zr  Zr3  1  0.334242  0.667122  0.500000  1
  Zr  Zr4  1  0.280250  0.001565  0.243049  1
  Zr  Zr5  1  0.280250  0.278686  0.756951  1
  Zr  Zr6  1  0.000851  0.720513  0.756061  1
  Zr  Zr7  1  0.000851  0.280337  0.243939  1
  Zr  Zr8  1  0.719772  0.720228  0.244514  1
  Zr  Zr9  1  0.719772  0.999546  0.755486  1
  Bi  Bi10  1  0.616417  0.000456  0.249733  1
  Bi  Bi11  1  0.616417  0.615961  0.750267  1
  Bi  Bi12  1  0.000685  0.383123  0.749558  1
  Bi  Bi13  1  0.000685  0.617562  0.250442  1
  Pb  Pb14  1  0.000312  0.000156  0.500000  1
  Pb  Pb15  1  0.381992  0.382193  0.250963  1
  Pb  Pb16  1  0.381992  0.999799  0.749037  1
  Au  Au17  1  0.999503  0.999751  0.000000  1
