# generated using pymatgen
data_Li2Lu3AgPb3
_symmetry_space_group_name_H-M   'P 1'
_cell_length_a   7.29201000
_cell_length_b   7.27823683
_cell_length_c   4.60080700
_cell_angle_alpha   90.00000000
_cell_angle_beta   90.00000000
_cell_angle_gamma   120.06261910
_symmetry_Int_Tables_number   1
_chemical_formula_structural   Li2Lu3AgPb3
_chemical_formula_sum   'Li2 Lu3 Ag1 Pb3'
_cell_volume   211.33124119
_cell_formula_units_Z   1
loop_
 _symmetry_equiv_pos_site_id
 _symmetry_equiv_pos_as_xyz
  1  'x, y, z'
loop_
 _atom_site_type_symbol
 _atom_site_label
 _atom_site_symmetry_multiplicity
 _atom_site_fract_x
 _atom_site_fract_y
 _atom_site_fract_z
 _atom_site_occupancy
  Li  Li0  1  0.771835  0.768325  0.000000  1
  Li  Li1  1  0.003510  0.231675  0.000000  1
  Lu  Lu2  1  0.548453  0.000000  0.500000  1
  Lu  Lu3  1  0.434943  0.430750  0.500000  1
  Lu  Lu4  1  0.004192  0.569250  0.500000  1
  Ag  Ag5  1  0.236440  0.000000  0.000000  1
  Pb  Pb6  1  0.983583  0.000000  0.500000  1
  Pb  Pb7  1  0.336983  0.656922  0.000000  1
  Pb  Pb8  1  0.680062  0.343078  0.000000  1
