# generated using pymatgen
data_Zr2PaB6
_symmetry_space_group_name_H-M   'P 1'
_cell_length_a   3.18481600
_cell_length_b   3.18481601
_cell_length_c   11.17847300
_cell_angle_alpha   90.00000000
_cell_angle_beta   90.00000000
_cell_angle_gamma   120.00002064
_symmetry_Int_Tables_number   1
_chemical_formula_structural   Zr2PaB6
_chemical_formula_sum   'Zr2 Pa1 B6'
_cell_volume   98.19326890
_cell_formula_units_Z   1
loop_
 _symmetry_equiv_pos_site_id
 _symmetry_equiv_pos_as_xyz
  1  'x, y, z'
loop_
 _atom_site_type_symbol
 _atom_site_label
 _atom_site_symmetry_multiplicity
 _atom_site_fract_x
 _atom_site_fract_y
 _atom_site_fract_z
 _atom_site_occupancy
  Zr  Zr0  1  0.000000  0.000000  0.658529  1
  Zr  Zr1  1  0.000000  0.000000  0.341471  1
  Pa  Pa2  1  0.000000  0.000000  0.000000  1
  B  B3  1  0.666667  0.333333  0.817595  1
  B  B4  1  0.666667  0.333333  0.500000  1
  B  B5  1  0.666667  0.333333  0.182405  1
  B  B6  1  0.333333  0.666667  0.817595  1
  B  B7  1  0.333333  0.666667  0.500000  1
  B  B8  1  0.333333  0.666667  0.182405  1
