# generated using pymatgen
data_Ba2As2IrPt
_symmetry_space_group_name_H-M   'P 1'
_cell_length_a   6.77687000
_cell_length_b   6.77532605
_cell_length_c   6.78673774
_cell_angle_alpha   89.77653687
_cell_angle_beta   90.00000000
_cell_angle_gamma   90.00000000
_symmetry_Int_Tables_number   1
_chemical_formula_structural   Ba2As2IrPt
_chemical_formula_sum   'Ba4 As4 Ir2 Pt2'
_cell_volume   311.61411268
_cell_formula_units_Z   2
loop_
 _symmetry_equiv_pos_site_id
 _symmetry_equiv_pos_as_xyz
  1  'x, y, z'
loop_
 _atom_site_type_symbol
 _atom_site_label
 _atom_site_symmetry_multiplicity
 _atom_site_fract_x
 _atom_site_fract_y
 _atom_site_fract_z
 _atom_site_occupancy
  Ba  Ba0  1  0.619918  0.378144  0.882274  1
  Ba  Ba1  1  0.380552  0.882275  0.622815  1
  Ba  Ba2  1  0.119918  0.121856  0.117726  1
  Ba  Ba3  1  0.880552  0.617725  0.377185  1
  As  As4  1  0.162882  0.340897  0.669164  1
  As  As5  1  0.662882  0.159103  0.330836  1
  As  As6  1  0.337132  0.667478  0.155246  1
  As  As7  1  0.837132  0.832522  0.844754  1
  Ir  Ir8  1  0.592654  0.907390  0.092326  1
  Ir  Ir9  1  0.092654  0.592610  0.907674  1
  Pt  Pt10  1  0.406862  0.407822  0.406279  1
  Pt  Pt11  1  0.906862  0.092178  0.593721  1
