# generated using pymatgen
data_DyHo2Lu13(In3Os)2
_symmetry_space_group_name_H-M   'P 1'
_cell_length_a   10.21584262
_cell_length_b   10.21584379
_cell_length_c   7.00373142
_cell_angle_alpha   89.95509215
_cell_angle_beta   90.04490460
_cell_angle_gamma   120.02026775
_symmetry_Int_Tables_number   1
_chemical_formula_structural   DyHo2Lu13(In3Os)2
_chemical_formula_sum   'Dy1 Ho2 Lu13 In6 Os2'
_cell_volume   632.87747845
_cell_formula_units_Z   1
loop_
 _symmetry_equiv_pos_site_id
 _symmetry_equiv_pos_as_xyz
  1  'x, y, z'
loop_
 _atom_site_type_symbol
 _atom_site_label
 _atom_site_symmetry_multiplicity
 _atom_site_fract_x
 _atom_site_fract_y
 _atom_site_fract_z
 _atom_site_occupancy
  Dy  Dy0  1  0.000080  0.999920  0.999888  1
  Ho  Ho1  1  0.532164  0.064589  0.514190  1
  Ho  Ho2  1  0.935411  0.467836  0.514190  1
  Lu  Lu3  1  0.532952  0.467048  0.514603  1
  Lu  Lu4  1  0.466339  0.932663  0.014549  1
  Lu  Lu5  1  0.067337  0.533661  0.014549  1
  Lu  Lu6  1  0.466631  0.533369  0.014891  1
  Lu  Lu7  1  0.178606  0.356165  0.718370  1
  Lu  Lu8  1  0.643835  0.821394  0.718370  1
  Lu  Lu9  1  0.177732  0.822268  0.718949  1
  Lu  Lu10  1  0.821522  0.643969  0.218261  1
  Lu  Lu11  1  0.356031  0.178478  0.218261  1
  Lu  Lu12  1  0.822179  0.177821  0.217767  1
  Lu  Lu13  1  0.666285  0.333715  0.896641  1
  Lu  Lu14  1  0.333775  0.666225  0.397207  1
  Lu  Lu15  1  0.999925  0.000075  0.498985  1
  In  In16  1  0.835998  0.673037  0.760737  1
  In  In17  1  0.326963  0.164002  0.760737  1
  In  In18  1  0.836901  0.163099  0.761097  1
  In  In19  1  0.163666  0.327267  0.263172  1
  In  In20  1  0.672733  0.836334  0.263172  1
  In  In21  1  0.163601  0.836399  0.263133  1
  Os  Os22  1  0.666094  0.333906  0.290062  1
  Os  Os23  1  0.333242  0.666758  0.792421  1
