# generated using pymatgen
data_LaPr2Ti(Co4P3)2
_symmetry_space_group_name_H-M   'P 1'
_cell_length_a   3.78150600
_cell_length_b   10.80430200
_cell_length_c   12.52817300
_cell_angle_alpha   90.00000000
_cell_angle_beta   90.00000000
_cell_angle_gamma   90.00000000
_symmetry_Int_Tables_number   1
_chemical_formula_structural   LaPr2Ti(Co4P3)2
_chemical_formula_sum   'La2 Pr4 Ti2 Co16 P12'
_cell_volume   511.85771158
_cell_formula_units_Z   2
loop_
 _symmetry_equiv_pos_site_id
 _symmetry_equiv_pos_as_xyz
  1  'x, y, z'
loop_
 _atom_site_type_symbol
 _atom_site_label
 _atom_site_symmetry_multiplicity
 _atom_site_fract_x
 _atom_site_fract_y
 _atom_site_fract_z
 _atom_site_occupancy
  La  La0  1  0.000000  0.500000  0.526141  1
  La  La1  1  0.500000  0.000000  0.473859  1
  Pr  Pr2  1  0.500000  0.819629  0.204734  1
  Pr  Pr3  1  0.500000  0.180371  0.204734  1
  Pr  Pr4  1  0.000000  0.680371  0.795266  1
  Pr  Pr5  1  0.000000  0.319629  0.795266  1
  Ti  Ti6  1  0.500000  0.500000  0.150199  1
  Ti  Ti7  1  0.000000  0.000000  0.849801  1
  Co  Co8  1  0.500000  0.500000  0.704068  1
  Co  Co9  1  0.000000  0.000000  0.295932  1
  Co  Co10  1  0.000000  0.500000  0.988606  1
  Co  Co11  1  0.500000  0.000000  0.011394  1
  Co  Co12  1  0.500000  0.332342  0.995069  1
  Co  Co13  1  0.500000  0.667658  0.995069  1
  Co  Co14  1  0.000000  0.167658  0.004931  1
  Co  Co15  1  0.000000  0.832342  0.004931  1
  Co  Co16  1  0.500000  0.296679  0.431225  1
  Co  Co17  1  0.500000  0.703321  0.431225  1
  Co  Co18  1  0.000000  0.203321  0.568775  1
  Co  Co19  1  0.000000  0.796679  0.568775  1
  Co  Co20  1  0.500000  0.881191  0.707459  1
  Co  Co21  1  0.500000  0.118809  0.707459  1
  Co  Co22  1  0.000000  0.618809  0.292541  1
  Co  Co23  1  0.000000  0.381191  0.292541  1
  P  P24  1  0.500000  0.500000  0.888150  1
  P  P25  1  0.000000  0.000000  0.111850  1
  P  P26  1  0.500000  0.500000  0.346555  1
  P  P27  1  0.000000  0.000000  0.653445  1
  P  P28  1  0.500000  0.303350  0.613879  1
  P  P29  1  0.500000  0.696650  0.613879  1
  P  P30  1  0.000000  0.196650  0.386121  1
  P  P31  1  0.000000  0.803350  0.386121  1
  P  P32  1  0.500000  0.845070  0.895448  1
  P  P33  1  0.500000  0.154930  0.895448  1
  P  P34  1  0.000000  0.654930  0.104552  1
  P  P35  1  0.000000  0.345070  0.104552  1
