# generated using pymatgen
data_YTm15In3HgRh4
_symmetry_space_group_name_H-M   'P 1'
_cell_length_a   9.51919430
_cell_length_b   9.51919412
_cell_length_c   9.51628833
_cell_angle_alpha   60.00416461
_cell_angle_beta   60.00416347
_cell_angle_gamma   60.00473731
_symmetry_Int_Tables_number   1
_chemical_formula_structural   YTm15In3HgRh4
_chemical_formula_sum   'Y1 Tm15 In3 Hg1 Rh4'
_cell_volume   609.81183513
_cell_formula_units_Z   1
loop_
 _symmetry_equiv_pos_site_id
 _symmetry_equiv_pos_as_xyz
  1  'x, y, z'
loop_
 _atom_site_type_symbol
 _atom_site_label
 _atom_site_symmetry_multiplicity
 _atom_site_fract_x
 _atom_site_fract_y
 _atom_site_fract_z
 _atom_site_occupancy
  Y  Y0  1  0.061940  0.061940  0.438063  1
  Tm  Tm1  1  0.437315  0.065453  0.436834  1
  Tm  Tm2  1  0.061769  0.438635  0.061322  1
  Tm  Tm3  1  0.052205  0.647741  0.648362  1
  Tm  Tm4  1  0.436831  0.436831  0.065482  1
  Tm  Tm5  1  0.647741  0.052205  0.648362  1
  Tm  Tm6  1  0.188977  0.812727  0.188665  1
  Tm  Tm7  1  0.188878  0.188878  0.812963  1
  Tm  Tm8  1  0.810292  0.810292  0.190627  1
  Tm  Tm9  1  0.438635  0.061769  0.061322  1
  Tm  Tm10  1  0.812727  0.188977  0.188665  1
  Tm  Tm11  1  0.065453  0.437315  0.436834  1
  Tm  Tm12  1  0.810056  0.190706  0.810624  1
  Tm  Tm13  1  0.190706  0.810056  0.810624  1
  Tm  Tm14  1  0.648125  0.648125  0.052169  1
  Tm  Tm15  1  0.651441  0.651441  0.651400  1
  In  In16  1  0.748235  0.417751  0.417164  1
  In  In17  1  0.417751  0.748235  0.417164  1
  In  In18  1  0.417150  0.417150  0.748867  1
  Hg  Hg19  1  0.413566  0.413566  0.413606  1
  Rh  Rh20  1  0.857993  0.857993  0.427338  1
  Rh  Rh21  1  0.856613  0.856613  0.857181  1
  Rh  Rh22  1  0.427458  0.858138  0.858180  1
  Rh  Rh23  1  0.858138  0.427458  0.858180  1
