# generated using pymatgen
data_ErTaFe3P7Ru9
_symmetry_space_group_name_H-M   'P 1'
_cell_length_a   9.24522700
_cell_length_b   9.24522586
_cell_length_c   3.80756600
_cell_angle_alpha   90.00000000
_cell_angle_beta   90.00000000
_cell_angle_gamma   119.99999333
_symmetry_Int_Tables_number   1
_chemical_formula_structural   ErTaFe3P7Ru9
_chemical_formula_sum   'Er1 Ta1 Fe3 P7 Ru9'
_cell_volume   281.84686306
_cell_formula_units_Z   1
loop_
 _symmetry_equiv_pos_site_id
 _symmetry_equiv_pos_as_xyz
  1  'x, y, z'
loop_
 _atom_site_type_symbol
 _atom_site_label
 _atom_site_symmetry_multiplicity
 _atom_site_fract_x
 _atom_site_fract_y
 _atom_site_fract_z
 _atom_site_occupancy
  Er  Er0  1  0.333333  0.666667  0.000000  1
  Ta  Ta1  1  0.666667  0.333333  0.500000  1
  Fe  Fe2  1  0.728816  0.886392  0.000000  1
  Fe  Fe3  1  0.113608  0.842424  0.000000  1
  Fe  Fe4  1  0.157576  0.271184  0.000000  1
  P  P5  1  0.601289  0.722396  0.500000  1
  P  P6  1  0.000000  0.000000  0.000000  1
  P  P7  1  0.277604  0.878894  0.500000  1
  P  P8  1  0.121106  0.398711  0.500000  1
  P  P9  1  0.891455  0.584954  0.000000  1
  P  P10  1  0.415046  0.306502  0.000000  1
  P  P11  1  0.693498  0.108545  0.000000  1
  Ru  Ru12  1  0.561111  0.953568  0.500000  1
  Ru  Ru13  1  0.392459  0.438889  0.500000  1
  Ru  Ru14  1  0.912203  0.118979  0.500000  1
  Ru  Ru15  1  0.206776  0.087797  0.500000  1
  Ru  Ru16  1  0.881021  0.793224  0.500000  1
  Ru  Ru17  1  0.429458  0.074062  0.000000  1
  Ru  Ru18  1  0.925938  0.355396  0.000000  1
  Ru  Ru19  1  0.644604  0.570542  0.000000  1
  Ru  Ru20  1  0.046432  0.607541  0.500000  1
