# generated using pymatgen
data_LiDy7Ho9Cd(HgIr2)2
_symmetry_space_group_name_H-M   'P 1'
_cell_length_a   9.63444594
_cell_length_b   9.63444710
_cell_length_c   9.63592000
_cell_angle_alpha   59.72854409
_cell_angle_beta   59.72854006
_cell_angle_gamma   59.74741024
_symmetry_Int_Tables_number   1
_chemical_formula_structural   LiDy7Ho9Cd(HgIr2)2
_chemical_formula_sum   'Li1 Dy7 Ho9 Cd1 Hg2 Ir4'
_cell_volume   628.64935894
_cell_formula_units_Z   1
loop_
 _symmetry_equiv_pos_site_id
 _symmetry_equiv_pos_as_xyz
  1  'x, y, z'
loop_
 _atom_site_type_symbol
 _atom_site_label
 _atom_site_symmetry_multiplicity
 _atom_site_fract_x
 _atom_site_fract_y
 _atom_site_fract_z
 _atom_site_occupancy
  Li  Li0  1  0.821039  0.818886  0.818992  1
  Dy  Dy1  1  0.061960  0.062228  0.435649  1
  Dy  Dy2  1  0.189630  0.810571  0.811092  1
  Dy  Dy3  1  0.811358  0.187384  0.187059  1
  Dy  Dy4  1  0.810507  0.190919  0.810956  1
  Dy  Dy5  1  0.186005  0.811390  0.188288  1
  Dy  Dy6  1  0.810694  0.810614  0.190934  1
  Dy  Dy7  1  0.185784  0.188366  0.811670  1
  Ho  Ho8  1  0.601137  0.600859  0.600798  1
  Ho  Ho9  1  0.598258  0.598065  0.206481  1
  Ho  Ho10  1  0.597781  0.206910  0.598039  1
  Ho  Ho11  1  0.205508  0.597887  0.598371  1
  Ho  Ho12  1  0.059962  0.440883  0.440699  1
  Ho  Ho13  1  0.434820  0.062726  0.062557  1
  Ho  Ho14  1  0.440109  0.060658  0.440260  1
  Ho  Ho15  1  0.062076  0.435576  0.062252  1
  Ho  Ho16  1  0.439942  0.440235  0.060689  1
  Cd  Cd17  1  0.506066  0.833031  0.833010  1
  Hg  Hg18  1  0.835772  0.837658  0.498069  1
  Hg  Hg19  1  0.835754  0.498155  0.837667  1
  Ir  Ir20  1  0.391771  0.392038  0.391937  1
  Ir  Ir21  1  0.393910  0.394494  0.825946  1
  Ir  Ir22  1  0.394544  0.825562  0.394385  1
  Ir  Ir23  1  0.825614  0.394906  0.394202  1
