# generated using pymatgen
data_Sc4Si4RuPt5
_symmetry_space_group_name_H-M   'P 1'
_cell_length_a   4.12083000
_cell_length_b   6.41011806
_cell_length_c   8.61170651
_cell_angle_alpha   89.52796796
_cell_angle_beta   90.00000000
_cell_angle_gamma   90.00000000
_symmetry_Int_Tables_number   1
_chemical_formula_structural   Sc4Si4RuPt5
_chemical_formula_sum   'Sc4 Si4 Ru1 Pt5'
_cell_volume   227.47056601
_cell_formula_units_Z   1
loop_
 _symmetry_equiv_pos_site_id
 _symmetry_equiv_pos_as_xyz
  1  'x, y, z'
loop_
 _atom_site_type_symbol
 _atom_site_label
 _atom_site_symmetry_multiplicity
 _atom_site_fract_x
 _atom_site_fract_y
 _atom_site_fract_z
 _atom_site_occupancy
  Sc  Sc0  1  0.000000  0.884662  0.337917  1
  Sc  Sc1  1  0.000000  0.115338  0.662083  1
  Sc  Sc2  1  0.000000  0.391708  0.174325  1
  Sc  Sc3  1  0.000000  0.608292  0.825675  1
  Si  Si4  1  0.500000  0.571625  0.354165  1
  Si  Si5  1  0.500000  0.428375  0.645835  1
  Si  Si6  1  0.500000  0.070363  0.152413  1
  Si  Si7  1  0.500000  0.929637  0.847587  1
  Ru  Ru8  1  0.000000  0.500000  0.500000  1
  Pt  Pt9  1  0.500000  0.689482  0.084593  1
  Pt  Pt10  1  0.500000  0.310518  0.915407  1
  Pt  Pt11  1  0.500000  0.190794  0.413693  1
  Pt  Pt12  1  0.500000  0.809206  0.586307  1
  Pt  Pt13  1  0.000000  0.000000  0.000000  1
