# generated using pymatgen
data_CaU9S20
_symmetry_space_group_name_H-M   'P 1'
_cell_length_a   10.08773000
_cell_length_b   10.08773000
_cell_length_c   6.24705100
_cell_angle_alpha   90.00000000
_cell_angle_beta   90.00000000
_cell_angle_gamma   90.00000000
_symmetry_Int_Tables_number   1
_chemical_formula_structural   CaU9S20
_chemical_formula_sum   'Ca1 U9 S20'
_cell_volume   635.71425644
_cell_formula_units_Z   1
loop_
 _symmetry_equiv_pos_site_id
 _symmetry_equiv_pos_as_xyz
  1  'x, y, z'
loop_
 _atom_site_type_symbol
 _atom_site_label
 _atom_site_symmetry_multiplicity
 _atom_site_fract_x
 _atom_site_fract_y
 _atom_site_fract_z
 _atom_site_occupancy
  Ca  Ca0  1  0.500000  0.000000  0.864992  1
  U  U1  1  0.839984  0.151031  0.247961  1
  U  U2  1  0.651031  0.660016  0.247961  1
  U  U3  1  0.348969  0.339984  0.247961  1
  U  U4  1  0.160016  0.848969  0.247961  1
  U  U5  1  0.340930  0.654954  0.748072  1
  U  U6  1  0.154954  0.159070  0.748072  1
  U  U7  1  0.845046  0.840930  0.748072  1
  U  U8  1  0.659070  0.345046  0.748072  1
  U  U9  1  0.000000  0.500000  0.146237  1
  S  S10  1  0.716604  0.094465  0.616908  1
  S  S11  1  0.594465  0.783396  0.616908  1
  S  S12  1  0.405535  0.216604  0.616908  1
  S  S13  1  0.283396  0.905535  0.616908  1
  S  S14  1  0.715513  0.907123  0.111253  1
  S  S15  1  0.592877  0.215513  0.111253  1
  S  S16  1  0.407123  0.784487  0.111253  1
  S  S17  1  0.284487  0.092877  0.111253  1
  S  S18  1  0.500000  0.500000  0.994087  1
  S  S19  1  0.000000  0.000000  0.994087  1
  S  S20  1  0.207317  0.413227  0.891256  1
  S  S21  1  0.086773  0.707317  0.891256  1
  S  S22  1  0.913227  0.292683  0.891256  1
  S  S23  1  0.792683  0.586773  0.891256  1
  S  S24  1  0.500000  0.500000  0.496296  1
  S  S25  1  0.000000  0.000000  0.496296  1
  S  S26  1  0.206139  0.587740  0.386551  1
  S  S27  1  0.087740  0.293861  0.386551  1
  S  S28  1  0.912260  0.706139  0.386551  1
  S  S29  1  0.793861  0.412260  0.386551  1
