# generated using pymatgen
data_Nb(Re6Mo)4
_symmetry_space_group_name_H-M   'P 1'
_cell_length_a   8.37342436
_cell_length_b   8.37342420
_cell_length_c   8.37342400
_cell_angle_alpha   109.47122498
_cell_angle_beta   109.47122461
_cell_angle_gamma   109.47121704
_symmetry_Int_Tables_number   1
_chemical_formula_structural   Nb(Re6Mo)4
_chemical_formula_sum   'Nb1 Re24 Mo4'
_cell_volume   451.94684768
_cell_formula_units_Z   1
loop_
 _symmetry_equiv_pos_site_id
 _symmetry_equiv_pos_as_xyz
  1  'x, y, z'
loop_
 _atom_site_type_symbol
 _atom_site_label
 _atom_site_symmetry_multiplicity
 _atom_site_fract_x
 _atom_site_fract_y
 _atom_site_fract_z
 _atom_site_occupancy
  Nb  Nb0  1  0.000000  0.000000  0.000000  1
  Re  Re1  1  0.315259  0.315259  0.716603  1
  Re  Re2  1  0.401345  0.684741  0.000000  1
  Re  Re3  1  0.684741  0.401345  0.000000  1
  Re  Re4  1  0.598655  0.283397  0.598655  1
  Re  Re5  1  0.401345  0.000000  0.684741  1
  Re  Re6  1  0.000000  0.401345  0.684741  1
  Re  Re7  1  0.283397  0.598655  0.598655  1
  Re  Re8  1  0.716603  0.315259  0.315259  1
  Re  Re9  1  0.315259  0.716603  0.315259  1
  Re  Re10  1  0.684741  0.000000  0.401345  1
  Re  Re11  1  0.000000  0.684741  0.401345  1
  Re  Re12  1  0.598655  0.598655  0.283397  1
  Re  Re13  1  0.805678  0.805678  0.182027  1
  Re  Re14  1  0.376350  0.194322  0.000000  1
  Re  Re15  1  0.194322  0.376350  0.000000  1
  Re  Re16  1  0.623650  0.817973  0.623650  1
  Re  Re17  1  0.376350  0.000000  0.194322  1
  Re  Re18  1  0.000000  0.376350  0.194322  1
  Re  Re19  1  0.817973  0.623650  0.623650  1
  Re  Re20  1  0.182027  0.805678  0.805678  1
  Re  Re21  1  0.805678  0.182027  0.805678  1
  Re  Re22  1  0.194322  0.000000  0.376350  1
  Re  Re23  1  0.000000  0.194322  0.376350  1
  Re  Re24  1  0.623650  0.623650  0.817973  1
  Mo  Mo25  1  0.000000  0.000000  0.638145  1
  Mo  Mo26  1  0.638145  0.000000  0.000000  1
  Mo  Mo27  1  0.000000  0.638145  0.000000  1
  Mo  Mo28  1  0.361855  0.361855  0.361855  1
