# generated using pymatgen
data_Er8TaSi16W11
_symmetry_space_group_name_H-M   'P 1'
_cell_length_a   6.86449167
_cell_length_b   6.86777667
_cell_length_c   12.76358169
_cell_angle_alpha   89.95242002
_cell_angle_beta   90.07992776
_cell_angle_gamma   90.03797372
_symmetry_Int_Tables_number   1
_chemical_formula_structural   Er8TaSi16W11
_chemical_formula_sum   'Er8 Ta1 Si16 W11'
_cell_volume   601.72276402
_cell_formula_units_Z   1
loop_
 _symmetry_equiv_pos_site_id
 _symmetry_equiv_pos_as_xyz
  1  'x, y, z'
loop_
 _atom_site_type_symbol
 _atom_site_label
 _atom_site_symmetry_multiplicity
 _atom_site_fract_x
 _atom_site_fract_y
 _atom_site_fract_z
 _atom_site_occupancy
  Er  Er0  1  0.336622  0.998336  0.468407  1
  Er  Er1  1  0.500643  0.836976  0.719375  1
  Er  Er2  1  0.497029  0.162841  0.219127  1
  Er  Er3  1  0.837059  0.501745  0.280256  1
  Er  Er4  1  0.163459  0.497486  0.781257  1
  Er  Er5  1  0.662275  0.002644  0.969666  1
  Er  Er6  1  0.998330  0.337056  0.531061  1
  Er  Er7  1  0.002518  0.662805  0.030850  1
  Ta  Ta8  1  0.996073  0.839108  0.624848  1
  Si  Si9  1  0.204781  0.128692  0.683094  1
  Si  Si10  1  0.374754  0.702847  0.933230  1
  Si  Si11  1  0.627769  0.297786  0.432953  1
  Si  Si12  1  0.702617  0.373978  0.067297  1
  Si  Si13  1  0.299086  0.627128  0.565748  1
  Si  Si14  1  0.797193  0.873702  0.183237  1
  Si  Si15  1  0.125690  0.202078  0.316931  1
  Si  Si16  1  0.873091  0.795942  0.818447  1
  Si  Si17  1  0.288341  0.965167  0.063440  1
  Si  Si18  1  0.536397  0.789460  0.313963  1
  Si  Si19  1  0.463978  0.209890  0.813773  1
  Si  Si20  1  0.789041  0.534176  0.687148  1
  Si  Si21  1  0.210355  0.463173  0.186239  1
  Si  Si22  1  0.704677  0.040541  0.563902  1
  Si  Si23  1  0.965151  0.288652  0.937027  1
  Si  Si24  1  0.039814  0.708699  0.433416  1
  W  W25  1  0.334538  0.333781  0.000439  1
  W  W26  1  0.166669  0.833673  0.248263  1
  W  W27  1  0.833674  0.165981  0.750802  1
  W  W28  1  0.666908  0.665927  0.499931  1
  W  W29  1  0.166045  0.998761  0.872956  1
  W  W30  1  0.499761  0.664481  0.123777  1
  W  W31  1  0.499753  0.337113  0.622960  1
  W  W32  1  0.663849  0.498060  0.877527  1
  W  W33  1  0.338394  0.496692  0.375965  1
  W  W34  1  0.836082  0.999690  0.374904  1
  W  W35  1  0.997585  0.164933  0.127781  1
