# generated using pymatgen
data_Ac8TlNi6
_symmetry_space_group_name_H-M   'P 1'
_cell_length_a   7.82018254
_cell_length_b   7.82018161
_cell_length_c   7.82018212
_cell_angle_alpha   73.60712624
_cell_angle_beta   73.60711948
_cell_angle_gamma   73.60712860
_symmetry_Int_Tables_number   1
_chemical_formula_structural   Ac8TlNi6
_chemical_formula_sum   'Ac8 Tl1 Ni6'
_cell_volume   429.35912461
_cell_formula_units_Z   1
loop_
 _symmetry_equiv_pos_site_id
 _symmetry_equiv_pos_as_xyz
  1  'x, y, z'
loop_
 _atom_site_type_symbol
 _atom_site_label
 _atom_site_symmetry_multiplicity
 _atom_site_fract_x
 _atom_site_fract_y
 _atom_site_fract_z
 _atom_site_occupancy
  Ac  Ac0  1  0.297961  0.297961  0.297961  1
  Ac  Ac1  1  0.702039  0.702039  0.702039  1
  Ac  Ac2  1  0.813544  0.333214  0.137411  1
  Ac  Ac3  1  0.333214  0.137411  0.813544  1
  Ac  Ac4  1  0.137411  0.813544  0.333214  1
  Ac  Ac5  1  0.186456  0.666786  0.862589  1
  Ac  Ac6  1  0.666786  0.862589  0.186456  1
  Ac  Ac7  1  0.862589  0.186456  0.666786  1
  Tl  Tl8  1  0.500000  0.500000  0.500000  1
  Ni  Ni9  1  0.466940  0.634980  0.082136  1
  Ni  Ni10  1  0.634980  0.082136  0.466940  1
  Ni  Ni11  1  0.082136  0.466940  0.634980  1
  Ni  Ni12  1  0.533060  0.365020  0.917864  1
  Ni  Ni13  1  0.365020  0.917864  0.533060  1
  Ni  Ni14  1  0.917864  0.533060  0.365020  1
