# generated using pymatgen
data_Sc22Os7Rh
_symmetry_space_group_name_H-M   'P 1'
_cell_length_a   9.47005171
_cell_length_b   9.47005194
_cell_length_c   9.43073900
_cell_angle_alpha   60.13723233
_cell_angle_beta   60.13723153
_cell_angle_gamma   60.15474108
_symmetry_Int_Tables_number   1
_chemical_formula_structural   Sc22Os7Rh
_chemical_formula_sum   'Sc22 Os7 Rh1'
_cell_volume   599.98527066
_cell_formula_units_Z   1
loop_
 _symmetry_equiv_pos_site_id
 _symmetry_equiv_pos_as_xyz
  1  'x, y, z'
loop_
 _atom_site_type_symbol
 _atom_site_label
 _atom_site_symmetry_multiplicity
 _atom_site_fract_x
 _atom_site_fract_y
 _atom_site_fract_z
 _atom_site_occupancy
  Sc  Sc0  1  0.843866  0.843866  0.843359  1
  Sc  Sc1  1  0.533077  0.154188  0.156367  1
  Sc  Sc2  1  0.156134  0.156134  0.531089  1
  Sc  Sc3  1  0.154188  0.533077  0.156367  1
  Sc  Sc4  1  0.843866  0.843866  0.468911  1
  Sc  Sc5  1  0.845812  0.466923  0.843633  1
  Sc  Sc6  1  0.466923  0.845812  0.843633  1
  Sc  Sc7  1  0.156134  0.156134  0.156641  1
  Sc  Sc8  1  0.196338  0.803662  0.200175  1
  Sc  Sc9  1  0.196338  0.803662  0.799825  1
  Sc  Sc10  1  0.803662  0.196338  0.200175  1
  Sc  Sc11  1  0.800591  0.800591  0.199409  1
  Sc  Sc12  1  0.199409  0.199409  0.800591  1
  Sc  Sc13  1  0.803662  0.196338  0.799825  1
  Sc  Sc14  1  0.380808  0.380808  0.387112  1
  Sc  Sc15  1  0.148648  0.617424  0.616964  1
  Sc  Sc16  1  0.617424  0.148648  0.616964  1
  Sc  Sc17  1  0.619192  0.619192  0.148729  1
  Sc  Sc18  1  0.382576  0.851352  0.383036  1
  Sc  Sc19  1  0.380808  0.380808  0.851271  1
  Sc  Sc20  1  0.851352  0.382576  0.383036  1
  Sc  Sc21  1  0.619192  0.619192  0.612888  1
  Os  Os22  1  0.000000  0.000000  0.500000  1
  Os  Os23  1  0.500000  0.000000  0.500000  1
  Os  Os24  1  0.000000  0.500000  0.500000  1
  Os  Os25  1  0.500000  0.000000  0.000000  1
  Os  Os26  1  0.000000  0.500000  0.000000  1
  Os  Os27  1  0.500000  0.500000  0.500000  1
  Os  Os28  1  0.000000  0.000000  0.000000  1
  Rh  Rh29  1  0.500000  0.500000  0.000000  1
