# generated using pymatgen
data_Tm2Zr(Ni10P3)2
_symmetry_space_group_name_H-M   'P 1'
_cell_length_a   7.93385217
_cell_length_b   7.93385225
_cell_length_c   7.93385200
_cell_angle_alpha   59.99999268
_cell_angle_beta   59.99999237
_cell_angle_gamma   60.00000004
_symmetry_Int_Tables_number   1
_chemical_formula_structural   Tm2Zr(Ni10P3)2
_chemical_formula_sum   'Tm2 Zr1 Ni20 P6'
_cell_volume   353.13215136
_cell_formula_units_Z   1
loop_
 _symmetry_equiv_pos_site_id
 _symmetry_equiv_pos_as_xyz
  1  'x, y, z'
loop_
 _atom_site_type_symbol
 _atom_site_label
 _atom_site_symmetry_multiplicity
 _atom_site_fract_x
 _atom_site_fract_y
 _atom_site_fract_z
 _atom_site_occupancy
  Tm  Tm0  1  0.750000  0.750000  0.750000  1
  Tm  Tm1  1  0.250000  0.250000  0.250000  1
  Zr  Zr2  1  0.000000  0.000000  0.000000  1
  Ni  Ni3  1  0.386769  0.839691  0.386769  1
  Ni  Ni4  1  0.386769  0.386769  0.839691  1
  Ni  Ni5  1  0.350369  0.000000  0.649631  1
  Ni  Ni6  1  0.000000  0.350369  0.649631  1
  Ni  Ni7  1  0.160309  0.613231  0.613231  1
  Ni  Ni8  1  0.649631  0.000000  0.000000  1
  Ni  Ni9  1  0.839691  0.386769  0.386769  1
  Ni  Ni10  1  0.649631  0.350369  0.000000  1
  Ni  Ni11  1  0.000000  0.350369  0.000000  1
  Ni  Ni12  1  0.350369  0.649631  0.000000  1
  Ni  Ni13  1  0.000000  0.000000  0.350369  1
  Ni  Ni14  1  0.613231  0.160309  0.613231  1
  Ni  Ni15  1  0.649631  0.000000  0.350369  1
  Ni  Ni16  1  0.000000  0.649631  0.000000  1
  Ni  Ni17  1  0.613231  0.613231  0.160309  1
  Ni  Ni18  1  0.000000  0.649631  0.350369  1
  Ni  Ni19  1  0.350369  0.000000  0.000000  1
  Ni  Ni20  1  0.000000  0.000000  0.649631  1
  Ni  Ni21  1  0.386769  0.386769  0.386769  1
  Ni  Ni22  1  0.613231  0.613231  0.613231  1
  P  P23  1  0.262089  0.262089  0.737911  1
  P  P24  1  0.262089  0.737911  0.262089  1
  P  P25  1  0.737911  0.262089  0.262089  1
  P  P26  1  0.262089  0.737911  0.737911  1
  P  P27  1  0.737911  0.262089  0.737911  1
  P  P28  1  0.737911  0.737911  0.262089  1
