# generated using pymatgen
data_Cs4LuUTe6
_symmetry_space_group_name_H-M   'P 1'
_cell_length_a   15.35426300
_cell_length_b   7.45952630
_cell_length_c   10.31072388
_cell_angle_alpha   71.78145609
_cell_angle_beta   90.00000000
_cell_angle_gamma   90.00000000
_symmetry_Int_Tables_number   1
_chemical_formula_structural   Cs4LuUTe6
_chemical_formula_sum   'Cs8 Lu2 U2 Te12'
_cell_volume   1121.74455698
_cell_formula_units_Z   2
loop_
 _symmetry_equiv_pos_site_id
 _symmetry_equiv_pos_as_xyz
  1  'x, y, z'
loop_
 _atom_site_type_symbol
 _atom_site_label
 _atom_site_symmetry_multiplicity
 _atom_site_fract_x
 _atom_site_fract_y
 _atom_site_fract_z
 _atom_site_occupancy
  Cs  Cs0  1  0.954654  0.673504  0.656722  1
  Cs  Cs1  1  0.454654  0.826496  0.343278  1
  Cs  Cs2  1  0.045642  0.326930  0.342480  1
  Cs  Cs3  1  0.545642  0.173070  0.657520  1
  Cs  Cs4  1  0.869412  0.082034  0.899947  1
  Cs  Cs5  1  0.369412  0.417966  0.100053  1
  Cs  Cs6  1  0.130617  0.916537  0.099959  1
  Cs  Cs7  1  0.630617  0.583463  0.900041  1
  Lu  Lu8  1  0.750136  0.655846  0.296395  1
  Lu  Lu9  1  0.250136  0.844154  0.703605  1
  U  U10  1  0.249839  0.344036  0.702908  1
  U  U11  1  0.749839  0.155964  0.297092  1
  Te  Te12  1  0.906228  0.915135  0.282318  1
  Te  Te13  1  0.406228  0.584865  0.717682  1
  Te  Te14  1  0.093579  0.091697  0.717820  1
  Te  Te15  1  0.593579  0.408303  0.282180  1
  Te  Te16  1  0.816459  0.306598  0.516563  1
  Te  Te17  1  0.316459  0.193402  0.483437  1
  Te  Te18  1  0.183522  0.684909  0.483455  1
  Te  Te19  1  0.683522  0.815091  0.516545  1
  Te  Te20  1  0.840667  0.490511  0.092339  1
  Te  Te21  1  0.340667  0.009489  0.907661  1
  Te  Te22  1  0.159245  0.500319  0.907741  1
  Te  Te23  1  0.659245  0.999681  0.092259  1
