# generated using pymatgen
data_Na2Sn(BrO3)6
_symmetry_space_group_name_H-M   'P 1'
_cell_length_a   5.80958600
_cell_length_b   9.67310191
_cell_length_c   9.67304900
_cell_angle_alpha   60.00004756
_cell_angle_beta   90.00040435
_cell_angle_gamma   90.00029102
_symmetry_Int_Tables_number   1
_chemical_formula_structural   Na2Sn(BrO3)6
_chemical_formula_sum   'Na2 Sn1 Br6 O18'
_cell_volume   470.76609361
_cell_formula_units_Z   1
loop_
 _symmetry_equiv_pos_site_id
 _symmetry_equiv_pos_as_xyz
  1  'x, y, z'
loop_
 _atom_site_type_symbol
 _atom_site_label
 _atom_site_symmetry_multiplicity
 _atom_site_fract_x
 _atom_site_fract_y
 _atom_site_fract_z
 _atom_site_occupancy
  Na  Na0  1  0.723420  0.333333  0.333333  1
  Na  Na1  1  0.218096  0.666668  0.666665  1
  Sn  Sn2  1  0.664626  0.000000  0.999999  1
  Br  Br3  1  0.818060  0.965359  0.681363  1
  Br  Br4  1  0.818068  0.353273  0.965363  1
  Br  Br5  1  0.818061  0.681363  0.353278  1
  Br  Br6  1  0.341073  0.023138  0.303579  1
  Br  Br7  1  0.341072  0.673283  0.023136  1
  Br  Br8  1  0.341072  0.303582  0.673282  1
  O  O9  1  0.478955  0.232182  0.572628  1
  O  O10  1  0.478956  0.195190  0.232180  1
  O  O11  1  0.478957  0.572630  0.195190  1
  O  O12  1  0.976072  0.763060  0.436171  1
  O  O13  1  0.976072  0.800772  0.763058  1
  O  O14  1  0.976076  0.436169  0.800775  1
  O  O15  1  0.880283  0.047784  0.807550  1
  O  O16  1  0.880288  0.144663  0.047786  1
  O  O17  1  0.880283  0.807551  0.144667  1
  O  O18  1  0.455756  0.926013  0.202570  1
  O  O19  1  0.455756  0.871417  0.926011  1
  O  O20  1  0.455760  0.202572  0.871416  1
  O  O21  1  0.946920  0.099068  0.514772  1
  O  O22  1  0.946924  0.386157  0.099074  1
  O  O23  1  0.946921  0.514774  0.386160  1
  O  O24  1  0.437024  0.903225  0.487140  1
  O  O25  1  0.437021  0.609637  0.903223  1
  O  O26  1  0.437020  0.487141  0.609635  1
