# generated using pymatgen
data_Y2Fe3Co8NiAs7
_symmetry_space_group_name_H-M   'P 1'
_cell_length_a   3.76546800
_cell_length_b   9.33149345
_cell_length_c   9.34101204
_cell_angle_alpha   119.90340583
_cell_angle_beta   90.00000000
_cell_angle_gamma   90.00000000
_symmetry_Int_Tables_number   1
_chemical_formula_structural   Y2Fe3Co8NiAs7
_chemical_formula_sum   'Y2 Fe3 Co8 Ni1 As7'
_cell_volume   284.52247465
_cell_formula_units_Z   1
loop_
 _symmetry_equiv_pos_site_id
 _symmetry_equiv_pos_as_xyz
  1  'x, y, z'
loop_
 _atom_site_type_symbol
 _atom_site_label
 _atom_site_symmetry_multiplicity
 _atom_site_fract_x
 _atom_site_fract_y
 _atom_site_fract_z
 _atom_site_occupancy
  Y  Y0  1  0.000000  0.666839  0.334755  1
  Y  Y1  1  0.500000  0.331983  0.665218  1
  Fe  Fe2  1  0.500000  0.785703  0.905151  1
  Fe  Fe3  1  0.500000  0.119869  0.215148  1
  Fe  Fe4  1  0.500000  0.094883  0.880176  1
  Co  Co5  1  0.000000  0.373363  0.431251  1
  Co  Co6  1  0.000000  0.058535  0.625458  1
  Co  Co7  1  0.000000  0.877743  0.156379  1
  Co  Co8  1  0.000000  0.278075  0.121757  1
  Co  Co9  1  0.000000  0.844195  0.723213  1
  Co  Co10  1  0.500000  0.951589  0.382090  1
  Co  Co11  1  0.500000  0.430760  0.048741  1
  Co  Co12  1  0.500000  0.620050  0.569416  1
  Ni  Ni13  1  0.000000  0.566682  0.940707  1
  As  As14  1  0.000000  0.000682  0.001080  1
  As  As15  1  0.500000  0.710162  0.117078  1
  As  As16  1  0.500000  0.405208  0.292300  1
  As  As17  1  0.500000  0.888289  0.595083  1
  As  As18  1  0.000000  0.589414  0.702273  1
  As  As19  1  0.000000  0.115477  0.408908  1
  As  As20  1  0.000000  0.290497  0.883819  1
