# generated using pymatgen
data_Yb8Cu8GePd16
_symmetry_space_group_name_H-M   'P 1'
_cell_length_a   8.10966409
_cell_length_b   8.06318500
_cell_length_c   8.26039803
_cell_angle_alpha   90.00000000
_cell_angle_beta   90.01347747
_cell_angle_gamma   90.00000000
_symmetry_Int_Tables_number   1
_chemical_formula_structural   Yb8Cu8GePd16
_chemical_formula_sum   'Yb8 Cu8 Ge1 Pd16'
_cell_volume   540.14511453
_cell_formula_units_Z   1
loop_
 _symmetry_equiv_pos_site_id
 _symmetry_equiv_pos_as_xyz
  1  'x, y, z'
loop_
 _atom_site_type_symbol
 _atom_site_label
 _atom_site_symmetry_multiplicity
 _atom_site_fract_x
 _atom_site_fract_y
 _atom_site_fract_z
 _atom_site_occupancy
  Yb  Yb0  1  0.249823  0.255856  0.251560  1
  Yb  Yb1  1  0.747903  0.753720  0.745506  1
  Yb  Yb2  1  0.750838  0.748783  0.253232  1
  Yb  Yb3  1  0.747903  0.246280  0.745506  1
  Yb  Yb4  1  0.251297  0.251898  0.748921  1
  Yb  Yb5  1  0.249823  0.744144  0.251560  1
  Yb  Yb6  1  0.251297  0.748102  0.748921  1
  Yb  Yb7  1  0.750838  0.251217  0.253232  1
  Cu  Cu8  1  0.267189  0.500000  0.999100  1
  Cu  Cu9  1  0.732464  0.500000  0.998890  1
  Cu  Cu10  1  0.000044  0.263862  0.499783  1
  Cu  Cu11  1  0.499986  0.269207  0.999808  1
  Cu  Cu12  1  0.000044  0.736138  0.499783  1
  Cu  Cu13  1  0.499986  0.730793  0.999808  1
  Cu  Cu14  1  0.496575  0.000000  0.275185  1
  Cu  Cu15  1  0.271874  0.000000  0.496718  1
  Ge  Ge16  1  0.997705  0.000000  0.997122  1
  Pd  Pd17  1  0.493529  0.000000  0.737681  1
  Pd  Pd18  1  0.740195  0.000000  0.493621  1
  Pd  Pd19  1  0.997995  0.500000  0.271316  1
  Pd  Pd20  1  0.997966  0.500000  0.727627  1
  Pd  Pd21  1  0.253161  0.500000  0.500399  1
  Pd  Pd22  1  0.741932  0.500000  0.500234  1
  Pd  Pd23  1  0.494767  0.251562  0.493966  1
  Pd  Pd24  1  0.494767  0.748438  0.493966  1
  Pd  Pd25  1  0.500211  0.500000  0.236916  1
  Pd  Pd26  1  0.500098  0.500000  0.760365  1
  Pd  Pd27  1  0.304824  0.000000  0.014839  1
  Pd  Pd28  1  0.690172  0.000000  0.012323  1
  Pd  Pd29  1  0.999218  0.303725  0.999106  1
  Pd  Pd30  1  0.999218  0.696275  0.999106  1
  Pd  Pd31  1  0.014366  0.000000  0.299329  1
  Pd  Pd32  1  0.011995  0.000000  0.694566  1
