# generated using pymatgen
data_Pr16Cd4TcPt3
_symmetry_space_group_name_H-M   'P 1'
_cell_length_a   10.12723726
_cell_length_b   10.12723741
_cell_length_c   10.12723741
_cell_angle_alpha   59.42886035
_cell_angle_beta   59.42886114
_cell_angle_gamma   59.42885872
_symmetry_Int_Tables_number   1
_chemical_formula_structural   Pr16Cd4TcPt3
_chemical_formula_sum   'Pr16 Cd4 Tc1 Pt3'
_cell_volume   724.89881488
_cell_formula_units_Z   1
loop_
 _symmetry_equiv_pos_site_id
 _symmetry_equiv_pos_as_xyz
  1  'x, y, z'
loop_
 _atom_site_type_symbol
 _atom_site_label
 _atom_site_symmetry_multiplicity
 _atom_site_fract_x
 _atom_site_fract_y
 _atom_site_fract_z
 _atom_site_occupancy
  Pr  Pr0  1  0.351634  0.351634  0.351634  1
  Pr  Pr1  1  0.347380  0.347380  0.954024  1
  Pr  Pr2  1  0.347380  0.954024  0.347380  1
  Pr  Pr3  1  0.954024  0.347380  0.347380  1
  Pr  Pr4  1  0.815999  0.188457  0.188457  1
  Pr  Pr5  1  0.189364  0.806896  0.806896  1
  Pr  Pr6  1  0.188457  0.815999  0.188457  1
  Pr  Pr7  1  0.806896  0.189364  0.806896  1
  Pr  Pr8  1  0.188457  0.188457  0.815999  1
  Pr  Pr9  1  0.806896  0.806896  0.189364  1
  Pr  Pr10  1  0.937187  0.564203  0.564203  1
  Pr  Pr11  1  0.555052  0.939343  0.939343  1
  Pr  Pr12  1  0.564203  0.937187  0.564203  1
  Pr  Pr13  1  0.939343  0.555052  0.939343  1
  Pr  Pr14  1  0.564203  0.564203  0.937187  1
  Pr  Pr15  1  0.939343  0.939343  0.555052  1
  Cd  Cd16  1  0.579735  0.579735  0.579735  1
  Cd  Cd17  1  0.580275  0.580275  0.257461  1
  Cd  Cd18  1  0.580275  0.257461  0.580275  1
  Cd  Cd19  1  0.257461  0.580275  0.580275  1
  Tc  Tc20  1  0.142259  0.142259  0.142259  1
  Pt  Pt21  1  0.145159  0.145159  0.573856  1
  Pt  Pt22  1  0.145159  0.573856  0.145159  1
  Pt  Pt23  1  0.573856  0.145159  0.145159  1
