# generated using pymatgen
data_Pr10PaIn9Rh4
_symmetry_space_group_name_H-M   'P 1'
_cell_length_a   13.50618434
_cell_length_b   13.50636716
_cell_length_c   3.80073300
_cell_angle_alpha   90.00000000
_cell_angle_beta   90.00000000
_cell_angle_gamma   111.08127674
_symmetry_Int_Tables_number   1
_chemical_formula_structural   Pr10PaIn9Rh4
_chemical_formula_sum   'Pr10 Pa1 In9 Rh4'
_cell_volume   646.92410898
_cell_formula_units_Z   1
loop_
 _symmetry_equiv_pos_site_id
 _symmetry_equiv_pos_as_xyz
  1  'x, y, z'
loop_
 _atom_site_type_symbol
 _atom_site_label
 _atom_site_symmetry_multiplicity
 _atom_site_fract_x
 _atom_site_fract_y
 _atom_site_fract_z
 _atom_site_occupancy
  Pr  Pr0  1  0.502025  0.502018  0.500000  1
  Pr  Pr1  1  0.189286  0.189287  0.500000  1
  Pr  Pr2  1  0.576558  0.918043  0.500000  1
  Pr  Pr3  1  0.423949  0.080310  0.500000  1
  Pr  Pr4  1  0.918050  0.576567  0.500000  1
  Pr  Pr5  1  0.080335  0.423960  0.500000  1
  Pr  Pr6  1  0.131816  0.877091  0.500000  1
  Pr  Pr7  1  0.877101  0.131827  0.500000  1
  Pr  Pr8  1  0.342991  0.659910  0.500000  1
  Pr  Pr9  1  0.659915  0.342983  0.500000  1
  Pa  Pa10  1  0.818029  0.818027  0.500000  1
  In  In11  1  0.337485  0.864511  0.000000  1
  In  In12  1  0.660474  0.133629  0.000000  1
  In  In13  1  0.864504  0.337469  0.000000  1
  In  In14  1  0.133605  0.660443  0.000000  1
  In  In15  1  0.579732  0.719867  0.000000  1
  In  In16  1  0.421096  0.280532  0.000000  1
  In  In17  1  0.719840  0.579737  0.000000  1
  In  In18  1  0.280578  0.421140  0.000000  1
  In  In19  1  0.001225  0.001245  0.000000  1
  Rh  Rh20  1  0.754237  0.921919  0.000000  1
  Rh  Rh21  1  0.255683  0.049573  0.000000  1
  Rh  Rh22  1  0.921927  0.754244  0.000000  1
  Rh  Rh23  1  0.049560  0.255669  0.000000  1
