# generated using pymatgen
data_Dy5Ho3Ta10(TiSi8)2
_symmetry_space_group_name_H-M   'P 1'
_cell_length_a   7.04809887
_cell_length_b   7.04787958
_cell_length_c   12.97999204
_cell_angle_alpha   89.94593589
_cell_angle_beta   90.04739360
_cell_angle_gamma   90.01869862
_symmetry_Int_Tables_number   1
_chemical_formula_structural   Dy5Ho3Ta10(TiSi8)2
_chemical_formula_sum   'Dy5 Ho3 Ta10 Ti2 Si16'
_cell_volume   644.76955661
_cell_formula_units_Z   1
loop_
 _symmetry_equiv_pos_site_id
 _symmetry_equiv_pos_as_xyz
  1  'x, y, z'
loop_
 _atom_site_type_symbol
 _atom_site_label
 _atom_site_symmetry_multiplicity
 _atom_site_fract_x
 _atom_site_fract_y
 _atom_site_fract_z
 _atom_site_occupancy
  Dy  Dy0  1  0.159500  0.503061  0.782322  1
  Dy  Dy1  1  0.841380  0.497850  0.281949  1
  Dy  Dy2  1  0.503076  0.159519  0.217652  1
  Dy  Dy3  1  0.497878  0.841325  0.718097  1
  Dy  Dy4  1  0.341142  0.002042  0.468032  1
  Ho  Ho5  1  0.998632  0.657938  0.032549  1
  Ho  Ho6  1  0.001782  0.341331  0.531952  1
  Ho  Ho7  1  0.657935  0.998605  0.967509  1
  Ta  Ta8  1  0.346247  0.508380  0.376042  1
  Ta  Ta9  1  0.847350  0.992383  0.374644  1
  Ta  Ta10  1  0.008032  0.152845  0.126249  1
  Ta  Ta11  1  0.992376  0.847345  0.625406  1
  Ta  Ta12  1  0.508500  0.346317  0.623998  1
  Ta  Ta13  1  0.152825  0.008083  0.873732  1
  Ta  Ta14  1  0.672210  0.672067  0.500015  1
  Ta  Ta15  1  0.829355  0.170361  0.750092  1
  Ta  Ta16  1  0.170297  0.829314  0.249856  1
  Ta  Ta17  1  0.326341  0.326329  0.999990  1
  Ti  Ti18  1  0.492782  0.653020  0.124004  1
  Ti  Ti19  1  0.653031  0.492788  0.875991  1
  Si  Si20  1  0.045573  0.705247  0.436063  1
  Si  Si21  1  0.952445  0.295319  0.935905  1
  Si  Si22  1  0.705674  0.045754  0.563992  1
  Si  Si23  1  0.207874  0.455492  0.185178  1
  Si  Si24  1  0.793842  0.545135  0.687243  1
  Si  Si25  1  0.455479  0.207920  0.814823  1
  Si  Si26  1  0.545279  0.793690  0.312658  1
  Si  Si27  1  0.295290  0.952456  0.064094  1
  Si  Si28  1  0.795048  0.865074  0.181417  1
  Si  Si29  1  0.296503  0.633304  0.568467  1
  Si  Si30  1  0.701385  0.368435  0.066275  1
  Si  Si31  1  0.633703  0.296694  0.431584  1
  Si  Si32  1  0.368452  0.701360  0.933696  1
  Si  Si33  1  0.133677  0.204283  0.317945  1
  Si  Si34  1  0.204029  0.133933  0.681990  1
  Si  Si35  1  0.865080  0.795003  0.818588  1
