# generated using pymatgen
data_Pr2Pa(GaRh)3
_symmetry_space_group_name_H-M   'P 1'
_cell_length_a   7.48889100
_cell_length_b   7.39759648
_cell_length_c   3.87642100
_cell_angle_alpha   90.00000000
_cell_angle_beta   90.00000000
_cell_angle_gamma   120.40909163
_symmetry_Int_Tables_number   1
_chemical_formula_structural   Pr2Pa(GaRh)3
_chemical_formula_sum   'Pr2 Pa1 Ga3 Rh3'
_cell_volume   185.21008590
_cell_formula_units_Z   1
loop_
 _symmetry_equiv_pos_site_id
 _symmetry_equiv_pos_as_xyz
  1  'x, y, z'
loop_
 _atom_site_type_symbol
 _atom_site_label
 _atom_site_symmetry_multiplicity
 _atom_site_fract_x
 _atom_site_fract_y
 _atom_site_fract_z
 _atom_site_occupancy
  Pr  Pr0  1  0.411716  0.408539  0.500000  1
  Pr  Pr1  1  0.003177  0.591461  0.500000  1
  Pa  Pa2  1  0.587936  0.000000  0.500000  1
  Ga  Ga3  1  0.237936  0.000000  0.000000  1
  Ga  Ga4  1  0.751990  0.749732  0.000000  1
  Ga  Ga5  1  0.002257  0.250268  0.000000  1
  Rh  Rh6  1  0.973583  0.000000  0.500000  1
  Rh  Rh7  1  0.372394  0.713383  0.000000  1
  Rh  Rh8  1  0.659012  0.286617  0.000000  1
