# generated using pymatgen
data_CaAl8Cu3Rh
_symmetry_space_group_name_H-M   'P 1'
_cell_length_a   6.73920016
_cell_length_b   6.73919929
_cell_length_c   6.75512186
_cell_angle_alpha   98.86623958
_cell_angle_beta   98.86623256
_cell_angle_gamma   134.32313284
_symmetry_Int_Tables_number   1
_chemical_formula_structural   CaAl8Cu3Rh
_chemical_formula_sum   'Ca1 Al8 Cu3 Rh1'
_cell_volume   201.43807072
_cell_formula_units_Z   1
loop_
 _symmetry_equiv_pos_site_id
 _symmetry_equiv_pos_as_xyz
  1  'x, y, z'
loop_
 _atom_site_type_symbol
 _atom_site_label
 _atom_site_symmetry_multiplicity
 _atom_site_fract_x
 _atom_site_fract_y
 _atom_site_fract_z
 _atom_site_occupancy
  Ca  Ca0  1  0.000000  0.000000  0.000000  1
  Al  Al1  1  0.005831  0.350172  0.348275  1
  Al  Al2  1  0.649828  0.994169  0.651725  1
  Al  Al3  1  0.350172  0.005831  0.348275  1
  Al  Al4  1  0.994169  0.649828  0.651725  1
  Al  Al5  1  0.500995  0.276506  0.776916  1
  Al  Al6  1  0.723494  0.499005  0.223084  1
  Al  Al7  1  0.276506  0.500995  0.776916  1
  Al  Al8  1  0.499005  0.723494  0.223084  1
  Cu  Cu9  1  0.000000  0.500000  0.000000  1
  Cu  Cu10  1  0.000000  0.000000  0.500000  1
  Cu  Cu11  1  0.500000  0.000000  0.000000  1
  Rh  Rh12  1  0.500000  0.500000  0.500000  1
