# generated using pymatgen
data_Ca2YbInPt2
_symmetry_space_group_name_H-M   'P 1'
_cell_length_a   4.46036400
_cell_length_b   7.43004300
_cell_length_c   8.76162700
_cell_angle_alpha   90.00000000
_cell_angle_beta   90.00000000
_cell_angle_gamma   90.00000000
_symmetry_Int_Tables_number   1
_chemical_formula_structural   Ca2YbInPt2
_chemical_formula_sum   'Ca4 Yb2 In2 Pt4'
_cell_volume   290.36641964
_cell_formula_units_Z   2
loop_
 _symmetry_equiv_pos_site_id
 _symmetry_equiv_pos_as_xyz
  1  'x, y, z'
loop_
 _atom_site_type_symbol
 _atom_site_label
 _atom_site_symmetry_multiplicity
 _atom_site_fract_x
 _atom_site_fract_y
 _atom_site_fract_z
 _atom_site_occupancy
  Ca  Ca0  1  0.250000  0.013893  0.322772  1
  Ca  Ca1  1  0.250000  0.542428  0.172331  1
  Ca  Ca2  1  0.750000  0.957572  0.672331  1
  Ca  Ca3  1  0.750000  0.486107  0.822772  1
  Yb  Yb4  1  0.750000  0.360760  0.437285  1
  Yb  Yb5  1  0.250000  0.139240  0.937285  1
  In  In6  1  0.750000  0.850015  0.066194  1
  In  In7  1  0.250000  0.649985  0.566194  1
  Pt  Pt8  1  0.750000  0.237408  0.123221  1
  Pt  Pt9  1  0.750000  0.736992  0.378197  1
  Pt  Pt10  1  0.250000  0.763008  0.878197  1
  Pt  Pt11  1  0.250000  0.262592  0.623221  1
