# generated using pymatgen
data_Li2AcTbSi4
_symmetry_space_group_name_H-M   'P 1'
_cell_length_a   3.91080600
_cell_length_b   7.82200842
_cell_length_c   10.63194583
_cell_angle_alpha   89.53616496
_cell_angle_beta   90.00000000
_cell_angle_gamma   90.00000000
_symmetry_Int_Tables_number   1
_chemical_formula_structural   Li2AcTbSi4
_chemical_formula_sum   'Li4 Ac2 Tb2 Si8'
_cell_volume   325.22436619
_cell_formula_units_Z   2
loop_
 _symmetry_equiv_pos_site_id
 _symmetry_equiv_pos_as_xyz
  1  'x, y, z'
loop_
 _atom_site_type_symbol
 _atom_site_label
 _atom_site_symmetry_multiplicity
 _atom_site_fract_x
 _atom_site_fract_y
 _atom_site_fract_z
 _atom_site_occupancy
  Li  Li0  1  0.250000  0.998305  0.386173  1
  Li  Li1  1  0.750000  0.001695  0.613827  1
  Li  Li2  1  0.250000  0.491460  0.104244  1
  Li  Li3  1  0.750000  0.508540  0.895756  1
  Ac  Ac4  1  0.250000  0.642895  0.636542  1
  Ac  Ac5  1  0.750000  0.357105  0.363458  1
  Tb  Tb6  1  0.250000  0.130823  0.867799  1
  Tb  Tb7  1  0.750000  0.869177  0.132201  1
  Si  Si8  1  0.750000  0.261915  0.061567  1
  Si  Si9  1  0.250000  0.738085  0.938433  1
  Si  Si10  1  0.750000  0.787732  0.416216  1
  Si  Si11  1  0.250000  0.212268  0.583784  1
  Si  Si12  1  0.750000  0.845258  0.831846  1
  Si  Si13  1  0.250000  0.154742  0.168154  1
  Si  Si14  1  0.750000  0.323902  0.688351  1
  Si  Si15  1  0.250000  0.676098  0.311649  1
