# generated using pymatgen
data_Dy3Tm2(FeB3)2
_symmetry_space_group_name_H-M   'P 1'
_cell_length_a   5.39375780
_cell_length_b   5.39375769
_cell_length_c   8.21293955
_cell_angle_alpha   70.83015737
_cell_angle_beta   70.83015706
_cell_angle_gamma   60.00000101
_symmetry_Int_Tables_number   1
_chemical_formula_structural   Dy3Tm2(FeB3)2
_chemical_formula_sum   'Dy3 Tm2 Fe2 B6'
_cell_volume   191.47305933
_cell_formula_units_Z   1
loop_
 _symmetry_equiv_pos_site_id
 _symmetry_equiv_pos_as_xyz
  1  'x, y, z'
loop_
 _atom_site_type_symbol
 _atom_site_label
 _atom_site_symmetry_multiplicity
 _atom_site_fract_x
 _atom_site_fract_y
 _atom_site_fract_z
 _atom_site_occupancy
  Dy  Dy0  1  0.000000  0.000000  0.000000  1
  Dy  Dy1  1  0.747746  0.747746  0.756762  1
  Dy  Dy2  1  0.252254  0.252254  0.243238  1
  Tm  Tm3  1  0.582403  0.582403  0.252792  1
  Tm  Tm4  1  0.417597  0.417597  0.747208  1
  Fe  Fe5  1  0.882549  0.882549  0.352352  1
  Fe  Fe6  1  0.117451  0.117451  0.647648  1
  B  B7  1  0.500000  0.168193  0.500000  1
  B  B8  1  0.831807  0.500000  0.500000  1
  B  B9  1  0.168193  0.831807  0.500000  1
  B  B10  1  0.168193  0.500000  0.500000  1
  B  B11  1  0.831807  0.168193  0.500000  1
  B  B12  1  0.500000  0.831807  0.500000  1
