# generated using pymatgen
data_AlCu3Sn5(IrS8)2
_symmetry_space_group_name_H-M   'P 1'
_cell_length_a   7.33015000
_cell_length_b   7.28095927
_cell_length_c   10.32967316
_cell_angle_alpha   90.56453113
_cell_angle_beta   90.00000000
_cell_angle_gamma   90.00000000
_symmetry_Int_Tables_number   1
_chemical_formula_structural   AlCu3Sn5(IrS8)2
_chemical_formula_sum   'Al1 Cu3 Sn5 Ir2 S16'
_cell_volume   551.27330511
_cell_formula_units_Z   1
loop_
 _symmetry_equiv_pos_site_id
 _symmetry_equiv_pos_as_xyz
  1  'x, y, z'
loop_
 _atom_site_type_symbol
 _atom_site_label
 _atom_site_symmetry_multiplicity
 _atom_site_fract_x
 _atom_site_fract_y
 _atom_site_fract_z
 _atom_site_occupancy
  Al  Al0  1  0.000000  0.253577  0.744212  1
  Cu  Cu1  1  0.000000  0.003162  0.125817  1
  Cu  Cu2  1  0.500000  0.499622  0.629323  1
  Cu  Cu3  1  0.500000  0.999466  0.866311  1
  Sn  Sn4  1  0.500000  0.739900  0.252797  1
  Sn  Sn5  1  0.759181  0.008025  0.505182  1
  Sn  Sn6  1  0.248953  0.495370  0.997667  1
  Sn  Sn7  1  0.240819  0.008025  0.505182  1
  Sn  Sn8  1  0.751047  0.495370  0.997667  1
  Ir  Ir9  1  0.500000  0.246506  0.246185  1
  Ir  Ir10  1  0.000000  0.755236  0.752131  1
  S  S11  1  0.000000  0.262214  0.511687  1
  S  S12  1  0.500000  0.750025  0.998313  1
  S  S13  1  0.000000  0.755541  0.523077  1
  S  S14  1  0.500000  0.246485  0.014884  1
  S  S15  1  0.222915  0.000235  0.752186  1
  S  S16  1  0.728969  0.474940  0.245504  1
  S  S17  1  0.777085  0.000235  0.752186  1
  S  S18  1  0.271031  0.474940  0.245504  1
  S  S19  1  0.500000  0.755456  0.503328  1
  S  S20  1  0.000000  0.244703  0.984422  1
  S  S21  1  0.500000  0.248985  0.480937  1
  S  S22  1  0.000000  0.746748  0.984796  1
  S  S23  1  0.267325  0.010933  0.252593  1
  S  S24  1  0.777399  0.506685  0.750258  1
  S  S25  1  0.732675  0.010933  0.252593  1
  S  S26  1  0.222601  0.506685  0.750258  1
