# generated using pymatgen
data_HoLu4SiBi2
_symmetry_space_group_name_H-M   'P 1'
_cell_length_a   7.92074500
_cell_length_b   9.03789600
_cell_length_c   11.84743700
_cell_angle_alpha   90.00000000
_cell_angle_beta   90.00000000
_cell_angle_gamma   90.00000000
_symmetry_Int_Tables_number   1
_chemical_formula_structural   HoLu4SiBi2
_chemical_formula_sum   'Ho4 Lu16 Si4 Bi8'
_cell_volume   848.12092705
_cell_formula_units_Z   4
loop_
 _symmetry_equiv_pos_site_id
 _symmetry_equiv_pos_as_xyz
  1  'x, y, z'
loop_
 _atom_site_type_symbol
 _atom_site_label
 _atom_site_symmetry_multiplicity
 _atom_site_fract_x
 _atom_site_fract_y
 _atom_site_fract_z
 _atom_site_occupancy
  Ho  Ho0  1  0.637330  0.750000  0.295110  1
  Ho  Ho1  1  0.862670  0.750000  0.795110  1
  Ho  Ho2  1  0.362670  0.250000  0.704890  1
  Ho  Ho3  1  0.137330  0.250000  0.204890  1
  Lu  Lu4  1  0.820988  0.554320  0.062612  1
  Lu  Lu5  1  0.679012  0.945680  0.562612  1
  Lu  Lu6  1  0.179012  0.054320  0.937388  1
  Lu  Lu7  1  0.320988  0.445680  0.437388  1
  Lu  Lu8  1  0.179012  0.445680  0.937388  1
  Lu  Lu9  1  0.320988  0.054320  0.437388  1
  Lu  Lu10  1  0.820988  0.945680  0.062612  1
  Lu  Lu11  1  0.679012  0.554320  0.562612  1
  Lu  Lu12  1  0.166149  0.750000  0.211359  1
  Lu  Lu13  1  0.333851  0.750000  0.711359  1
  Lu  Lu14  1  0.833851  0.250000  0.788641  1
  Lu  Lu15  1  0.666149  0.250000  0.288641  1
  Lu  Lu16  1  0.460877  0.750000  0.001536  1
  Lu  Lu17  1  0.039123  0.750000  0.501536  1
  Lu  Lu18  1  0.539123  0.250000  0.998464  1
  Lu  Lu19  1  0.960877  0.250000  0.498464  1
  Si  Si20  1  0.410017  0.750000  0.479662  1
  Si  Si21  1  0.089983  0.750000  0.979662  1
  Si  Si22  1  0.589983  0.250000  0.520338  1
  Si  Si23  1  0.910017  0.250000  0.020338  1
  Bi  Bi24  1  0.933171  0.511237  0.325866  1
  Bi  Bi25  1  0.566829  0.988763  0.825866  1
  Bi  Bi26  1  0.066829  0.011237  0.674134  1
  Bi  Bi27  1  0.433171  0.488763  0.174134  1
  Bi  Bi28  1  0.066829  0.488763  0.674134  1
  Bi  Bi29  1  0.433171  0.011237  0.174134  1
  Bi  Bi30  1  0.933171  0.988763  0.325866  1
  Bi  Bi31  1  0.566829  0.511237  0.825866  1
