# generated using pymatgen
data_PrEr3Ta4(Bi2O11)2
_symmetry_space_group_name_H-M   'P 1'
_cell_length_a   6.59286584
_cell_length_b   7.69484874
_cell_length_c   9.72837328
_cell_angle_alpha   101.46117048
_cell_angle_beta   90.01653545
_cell_angle_gamma   90.19348055
_symmetry_Int_Tables_number   1
_chemical_formula_structural   PrEr3Ta4(Bi2O11)2
_chemical_formula_sum   'Pr1 Er3 Ta4 Bi4 O22'
_cell_volume   483.68692825
_cell_formula_units_Z   1
loop_
 _symmetry_equiv_pos_site_id
 _symmetry_equiv_pos_as_xyz
  1  'x, y, z'
loop_
 _atom_site_type_symbol
 _atom_site_label
 _atom_site_symmetry_multiplicity
 _atom_site_fract_x
 _atom_site_fract_y
 _atom_site_fract_z
 _atom_site_occupancy
  Pr  Pr0  1  0.746641  0.372062  0.491282  1
  Er  Er1  1  0.251550  0.635559  0.521577  1
  Er  Er2  1  0.757892  0.870457  0.488864  1
  Er  Er3  1  0.238626  0.126868  0.509282  1
  Ta  Ta4  1  0.913186  0.703964  0.807321  1
  Ta  Ta5  1  0.090154  0.299621  0.196448  1
  Ta  Ta6  1  0.915940  0.197750  0.805836  1
  Ta  Ta7  1  0.088330  0.800218  0.197100  1
  Bi  Bi8  1  0.436269  0.957583  0.815058  1
  Bi  Bi9  1  0.567184  0.041817  0.185668  1
  Bi  Bi10  1  0.383152  0.456227  0.828445  1
  Bi  Bi11  1  0.611032  0.544634  0.174006  1
  O  O12  1  0.218120  0.725095  0.758748  1
  O  O13  1  0.785030  0.273750  0.241511  1
  O  O14  1  0.630097  0.660981  0.841045  1
  O  O15  1  0.371909  0.333132  0.151322  1
  O  O16  1  0.630102  0.254725  0.835729  1
  O  O17  1  0.371353  0.746242  0.153679  1
  O  O18  1  0.898303  0.138592  0.584999  1
  O  O19  1  0.113771  0.843084  0.411799  1
  O  O20  1  0.217276  0.149881  0.749446  1
  O  O21  1  0.785914  0.849901  0.251282  1
  O  O22  1  0.900811  0.654354  0.590855  1
  O  O23  1  0.115415  0.364105  0.408406  1
  O  O24  1  0.026378  0.549723  0.196588  1
  O  O25  1  0.970434  0.447390  0.792458  1
  O  O26  1  0.996562  0.784564  0.002429  1
  O  O27  1  0.004428  0.216532  0.997472  1
  O  O28  1  0.563076  0.604291  0.394332  1
  O  O29  1  0.411554  0.404021  0.607219  1
  O  O30  1  0.165515  0.056780  0.224529  1
  O  O31  1  0.828650  0.945704  0.784610  1
  O  O32  1  0.536771  0.097685  0.404319  1
  O  O33  1  0.458574  0.892708  0.596336  1
