# generated using pymatgen
data_Tb4Co4P12Ru9Rh7
_symmetry_space_group_name_H-M   'P 1'
_cell_length_a   3.85526300
_cell_length_b   10.78703224
_cell_length_c   12.23202930
_cell_angle_alpha   90.19541813
_cell_angle_beta   90.00000000
_cell_angle_gamma   90.00000000
_symmetry_Int_Tables_number   1
_chemical_formula_structural   Tb4Co4P12Ru9Rh7
_chemical_formula_sum   'Tb4 Co4 P12 Ru9 Rh7'
_cell_volume   508.68856334
_cell_formula_units_Z   1
loop_
 _symmetry_equiv_pos_site_id
 _symmetry_equiv_pos_as_xyz
  1  'x, y, z'
loop_
 _atom_site_type_symbol
 _atom_site_label
 _atom_site_symmetry_multiplicity
 _atom_site_fract_x
 _atom_site_fract_y
 _atom_site_fract_z
 _atom_site_occupancy
  Tb  Tb0  1  0.250000  0.586138  0.705139  1
  Tb  Tb1  1  0.250000  0.914596  0.204716  1
  Tb  Tb2  1  0.750000  0.412656  0.293807  1
  Tb  Tb3  1  0.750000  0.086763  0.795097  1
  Co  Co4  1  0.250000  0.463682  0.935108  1
  Co  Co5  1  0.250000  0.036103  0.435567  1
  Co  Co6  1  0.750000  0.536933  0.065150  1
  Co  Co7  1  0.750000  0.963717  0.566340  1
  P  P8  1  0.250000  0.421299  0.108750  1
  P  P9  1  0.250000  0.075415  0.608455  1
  P  P10  1  0.750000  0.575630  0.892206  1
  P  P11  1  0.750000  0.924256  0.392725  1
  P  P12  1  0.250000  0.270277  0.876756  1
  P  P13  1  0.250000  0.229085  0.374633  1
  P  P14  1  0.750000  0.730336  0.121995  1
  P  P15  1  0.750000  0.769964  0.622436  1
  P  P16  1  0.250000  0.594960  0.394288  1
  P  P17  1  0.250000  0.904531  0.895221  1
  P  P18  1  0.750000  0.403947  0.604406  1
  P  P19  1  0.750000  0.100837  0.106763  1
  Ru  Ru20  1  0.250000  0.712681  0.987475  1
  Ru  Ru21  1  0.250000  0.787224  0.486749  1
  Ru  Ru22  1  0.750000  0.290749  0.012731  1
  Ru  Ru23  1  0.750000  0.210489  0.514885  1
  Ru  Ru24  1  0.250000  0.403393  0.489867  1
  Ru  Ru25  1  0.250000  0.096501  0.989072  1
  Ru  Ru26  1  0.750000  0.595133  0.509217  1
  Ru  Ru27  1  0.750000  0.906222  0.010488  1
  Ru  Ru28  1  0.250000  0.228234  0.180596  1
  Rh  Rh29  1  0.250000  0.268781  0.681619  1
  Rh  Rh30  1  0.750000  0.768597  0.818613  1
  Rh  Rh31  1  0.750000  0.731892  0.317725  1
  Rh  Rh32  1  0.250000  0.889676  0.702350  1
  Rh  Rh33  1  0.250000  0.609646  0.201834  1
  Rh  Rh34  1  0.750000  0.109305  0.299724  1
  Rh  Rh35  1  0.750000  0.390354  0.797496  1
