# generated using pymatgen
data_Gd(FeTc2)4
_symmetry_space_group_name_H-M   'P 1'
_cell_length_a   4.77623066
_cell_length_b   6.72763231
_cell_length_c   6.73313555
_cell_angle_alpha   97.22905604
_cell_angle_beta   69.22389704
_cell_angle_gamma   110.79027086
_symmetry_Int_Tables_number   1
_chemical_formula_structural   Gd(FeTc2)4
_chemical_formula_sum   'Gd1 Fe4 Tc8'
_cell_volume   189.11367370
_cell_formula_units_Z   1
loop_
 _symmetry_equiv_pos_site_id
 _symmetry_equiv_pos_as_xyz
  1  'x, y, z'
loop_
 _atom_site_type_symbol
 _atom_site_label
 _atom_site_symmetry_multiplicity
 _atom_site_fract_x
 _atom_site_fract_y
 _atom_site_fract_z
 _atom_site_occupancy
  Gd  Gd0  1  0.000000  0.000000  0.000000  1
  Fe  Fe1  1  0.999999  0.499999  0.000000  1
  Fe  Fe2  1  0.500000  0.499999  0.000000  1
  Fe  Fe3  1  0.000001  0.000000  0.499999  1
  Fe  Fe4  1  0.500000  0.000000  0.499999  1
  Tc  Tc5  1  0.499663  0.216831  0.217748  1
  Tc  Tc6  1  0.282799  0.783183  0.217766  1
  Tc  Tc7  1  0.642450  0.642917  0.357919  1
  Tc  Tc8  1  0.999498  0.357092  0.357927  1
  Tc  Tc9  1  0.357548  0.357084  0.642082  1
  Tc  Tc10  1  0.000502  0.642909  0.642074  1
  Tc  Tc11  1  0.500335  0.783168  0.782251  1
  Tc  Tc12  1  0.717201  0.216817  0.782234  1
