# generated using pymatgen
data_LiTi(NbS2)6
_symmetry_space_group_name_H-M   'P 1'
_cell_length_a   5.81623500
_cell_length_b   5.81623502
_cell_length_c   12.61117400
_cell_angle_alpha   90.00000000
_cell_angle_beta   90.00000000
_cell_angle_gamma   120.00000557
_symmetry_Int_Tables_number   1
_chemical_formula_structural   LiTi(NbS2)6
_chemical_formula_sum   'Li1 Ti1 Nb6 S12'
_cell_volume   369.46220491
_cell_formula_units_Z   1
loop_
 _symmetry_equiv_pos_site_id
 _symmetry_equiv_pos_as_xyz
  1  'x, y, z'
loop_
 _atom_site_type_symbol
 _atom_site_label
 _atom_site_symmetry_multiplicity
 _atom_site_fract_x
 _atom_site_fract_y
 _atom_site_fract_z
 _atom_site_occupancy
  Li  Li0  1  0.666667  0.333333  0.750000  1
  Ti  Ti1  1  0.333333  0.666667  0.250000  1
  Nb  Nb2  1  0.333333  0.666667  0.006243  1
  Nb  Nb3  1  0.666667  0.333333  0.491911  1
  Nb  Nb4  1  0.333333  0.666667  0.493757  1
  Nb  Nb5  1  0.000000  0.000000  0.007320  1
  Nb  Nb6  1  0.666667  0.333333  0.008089  1
  Nb  Nb7  1  0.000000  0.000000  0.492680  1
  S  S8  1  0.999218  0.667150  0.133010  1
  S  S9  1  0.667350  0.667778  0.616908  1
  S  S10  1  0.999218  0.332068  0.366990  1
  S  S11  1  0.332850  0.332068  0.133010  1
  S  S12  1  0.332222  0.999572  0.616908  1
  S  S13  1  0.332222  0.332650  0.883092  1
  S  S14  1  0.667932  0.667150  0.366990  1
  S  S15  1  0.000428  0.667778  0.883092  1
  S  S16  1  0.667350  0.999572  0.883092  1
  S  S17  1  0.332850  0.000782  0.366990  1
  S  S18  1  0.667932  0.000782  0.133010  1
  S  S19  1  0.000428  0.332650  0.616908  1
