# generated using pymatgen
data_Dy2HoIn3CoAu2
_symmetry_space_group_name_H-M   'P 1'
_cell_length_a   7.73803200
_cell_length_b   7.73234093
_cell_length_c   3.82346100
_cell_angle_alpha   90.00000000
_cell_angle_beta   90.00000000
_cell_angle_gamma   120.02434996
_symmetry_Int_Tables_number   1
_chemical_formula_structural   Dy2HoIn3CoAu2
_chemical_formula_sum   'Dy2 Ho1 In3 Co1 Au2'
_cell_volume   198.07159494
_cell_formula_units_Z   1
loop_
 _symmetry_equiv_pos_site_id
 _symmetry_equiv_pos_as_xyz
  1  'x, y, z'
loop_
 _atom_site_type_symbol
 _atom_site_label
 _atom_site_symmetry_multiplicity
 _atom_site_fract_x
 _atom_site_fract_y
 _atom_site_fract_z
 _atom_site_occupancy
  Dy  Dy0  1  0.399367  0.399480  0.500000  1
  Dy  Dy1  1  0.999887  0.600520  0.500000  1
  Ho  Ho2  1  0.601108  0.000000  0.500000  1
  In  In3  1  0.753646  0.753597  0.000000  1
  In  In4  1  0.000049  0.246403  0.000000  1
  In  In5  1  0.246242  0.000000  0.000000  1
  Co  Co6  1  0.999601  0.000000  0.500000  1
  Au  Au7  1  0.333883  0.667667  0.000000  1
  Au  Au8  1  0.666217  0.332333  0.000000  1
