# generated using pymatgen
data_Cs3In3As4
_symmetry_space_group_name_H-M   'P 1'
_cell_length_a   7.27913200
_cell_length_b   16.80341800
_cell_length_c   11.67455500
_cell_angle_alpha   90.00000000
_cell_angle_beta   90.00000000
_cell_angle_gamma   90.00000000
_symmetry_Int_Tables_number   1
_chemical_formula_structural   Cs3In3As4
_chemical_formula_sum   'Cs12 In12 As16'
_cell_volume   1427.96499547
_cell_formula_units_Z   4
loop_
 _symmetry_equiv_pos_site_id
 _symmetry_equiv_pos_as_xyz
  1  'x, y, z'
loop_
 _atom_site_type_symbol
 _atom_site_label
 _atom_site_symmetry_multiplicity
 _atom_site_fract_x
 _atom_site_fract_y
 _atom_site_fract_z
 _atom_site_occupancy
  Cs  Cs0  1  0.750000  0.500001  0.080318  1
  Cs  Cs1  1  0.065178  0.092507  0.118772  1
  Cs  Cs2  1  0.434821  0.907493  0.118772  1
  Cs  Cs3  1  0.065178  0.407493  0.381228  1
  Cs  Cs4  1  0.434821  0.592507  0.381228  1
  Cs  Cs5  1  0.750000  0.000000  0.419682  1
  Cs  Cs6  1  0.250000  0.000000  0.580318  1
  Cs  Cs7  1  0.565178  0.407493  0.618772  1
  Cs  Cs8  1  0.934821  0.592507  0.618772  1
  Cs  Cs9  1  0.565178  0.092507  0.881229  1
  Cs  Cs10  1  0.934821  0.907493  0.881229  1
  Cs  Cs11  1  0.250000  0.500001  0.919682  1
  In  In12  1  0.401903  0.282793  0.110070  1
  In  In13  1  0.098097  0.717207  0.110070  1
  In  In14  1  0.806510  0.250000  0.249999  1
  In  In15  1  0.693491  0.750000  0.249999  1
  In  In16  1  0.401903  0.217207  0.389930  1
  In  In17  1  0.098097  0.782794  0.389930  1
  In  In18  1  0.901901  0.217207  0.610071  1
  In  In19  1  0.598099  0.782794  0.610071  1
  In  In20  1  0.306509  0.250000  0.750000  1
  In  In21  1  0.193490  0.750000  0.750000  1
  In  In22  1  0.901901  0.282793  0.889929  1
  In  In23  1  0.598099  0.717207  0.889929  1
  As  As24  1  0.040698  0.322916  0.096195  1
  As  As25  1  0.459300  0.677084  0.096195  1
  As  As26  1  0.540742  0.140083  0.195592  1
  As  As27  1  0.959258  0.859917  0.195592  1
  As  As28  1  0.540742  0.359917  0.304407  1
  As  As29  1  0.959258  0.640083  0.304407  1
  As  As30  1  0.040698  0.177084  0.403806  1
  As  As31  1  0.459300  0.822916  0.403806  1
  As  As32  1  0.540700  0.177084  0.596194  1
  As  As33  1  0.959300  0.822916  0.596194  1
  As  As34  1  0.040741  0.359917  0.695592  1
  As  As35  1  0.459259  0.640083  0.695592  1
  As  As36  1  0.040741  0.140083  0.804407  1
  As  As37  1  0.459259  0.859917  0.804407  1
  As  As38  1  0.540700  0.322916  0.903806  1
  As  As39  1  0.959300  0.677084  0.903806  1
