# generated using pymatgen
data_YbBeOs2C
_symmetry_space_group_name_H-M   'P 1'
_cell_length_a   5.54951046
_cell_length_b   5.54950961
_cell_length_c   7.08048100
_cell_angle_alpha   90.00000000
_cell_angle_beta   90.00000000
_cell_angle_gamma   139.13448823
_symmetry_Int_Tables_number   1
_chemical_formula_structural   YbBeOs2C
_chemical_formula_sum   'Yb2 Be2 Os4 C2'
_cell_volume   142.67224219
_cell_formula_units_Z   2
loop_
 _symmetry_equiv_pos_site_id
 _symmetry_equiv_pos_as_xyz
  1  'x, y, z'
loop_
 _atom_site_type_symbol
 _atom_site_label
 _atom_site_symmetry_multiplicity
 _atom_site_fract_x
 _atom_site_fract_y
 _atom_site_fract_z
 _atom_site_occupancy
  Yb  Yb0  1  0.540147  0.459853  0.250000  1
  Yb  Yb1  1  0.459853  0.540147  0.750000  1
  Be  Be2  1  0.267029  0.732971  0.250000  1
  Be  Be3  1  0.732971  0.267029  0.750000  1
  Os  Os4  1  0.822727  0.177273  0.060295  1
  Os  Os5  1  0.177273  0.822727  0.939705  1
  Os  Os6  1  0.177273  0.822727  0.560295  1
  Os  Os7  1  0.822727  0.177273  0.439705  1
  C  C8  1  0.000000  0.000000  0.000000  1
  C  C9  1  0.000000  0.000000  0.500000  1
