# generated using pymatgen
data_Y3Tm2Sn3
_symmetry_space_group_name_H-M   'P 1'
_cell_length_a   6.49675500
_cell_length_b   8.93866345
_cell_length_c   8.93935208
_cell_angle_alpha   119.99744185
_cell_angle_beta   90.00000000
_cell_angle_gamma   90.00000000
_symmetry_Int_Tables_number   1
_chemical_formula_structural   Y3Tm2Sn3
_chemical_formula_sum   'Y6 Tm4 Sn6'
_cell_volume   449.59031141
_cell_formula_units_Z   2
loop_
 _symmetry_equiv_pos_site_id
 _symmetry_equiv_pos_as_xyz
  1  'x, y, z'
loop_
 _atom_site_type_symbol
 _atom_site_label
 _atom_site_symmetry_multiplicity
 _atom_site_fract_x
 _atom_site_fract_y
 _atom_site_fract_z
 _atom_site_occupancy
  Y  Y0  1  0.750002  0.239794  0.000000  1
  Y  Y1  1  0.749998  0.760117  0.760167  1
  Y  Y2  1  0.749998  0.999950  0.239833  1
  Y  Y3  1  0.250002  0.760206  0.000000  1
  Y  Y4  1  0.249998  0.239883  0.239833  1
  Y  Y5  1  0.249998  0.000050  0.760167  1
  Tm  Tm6  1  0.500001  0.333355  0.666727  1
  Tm  Tm7  1  0.500001  0.666627  0.333273  1
  Tm  Tm8  1  0.000001  0.666645  0.333273  1
  Tm  Tm9  1  0.000001  0.333373  0.666727  1
  Sn  Sn10  1  0.749999  0.604205  0.000000  1
  Sn  Sn11  1  0.750000  0.395709  0.395704  1
  Sn  Sn12  1  0.750000  0.000005  0.604296  1
  Sn  Sn13  1  0.249999  0.395795  0.000000  1
  Sn  Sn14  1  0.250000  0.604291  0.604296  1
  Sn  Sn15  1  0.250000  0.999995  0.395704  1
