# generated using pymatgen
data_Er4TmIr2Rh
_symmetry_space_group_name_H-M   'P 1'
_cell_length_a   10.76031600
_cell_length_b   10.76031600
_cell_length_c   6.32913400
_cell_angle_alpha   90.00000000
_cell_angle_beta   90.00000000
_cell_angle_gamma   90.00000000
_symmetry_Int_Tables_number   1
_chemical_formula_structural   Er4TmIr2Rh
_chemical_formula_sum   'Er16 Tm4 Ir8 Rh4'
_cell_volume   732.81498537
_cell_formula_units_Z   4
loop_
 _symmetry_equiv_pos_site_id
 _symmetry_equiv_pos_as_xyz
  1  'x, y, z'
loop_
 _atom_site_type_symbol
 _atom_site_label
 _atom_site_symmetry_multiplicity
 _atom_site_fract_x
 _atom_site_fract_y
 _atom_site_fract_z
 _atom_site_occupancy
  Er  Er0  1  0.290436  0.088303  0.378011  1
  Er  Er1  1  0.290436  0.911697  0.878011  1
  Er  Er2  1  0.709564  0.088303  0.878011  1
  Er  Er3  1  0.709564  0.911697  0.378011  1
  Er  Er4  1  0.588303  0.790436  0.878011  1
  Er  Er5  1  0.588303  0.209564  0.378011  1
  Er  Er6  1  0.411697  0.790436  0.378011  1
  Er  Er7  1  0.411697  0.209564  0.878011  1
  Er  Er8  1  0.209564  0.411697  0.621989  1
  Er  Er9  1  0.209564  0.588303  0.121989  1
  Er  Er10  1  0.790436  0.411697  0.121989  1
  Er  Er11  1  0.790436  0.588303  0.621989  1
  Er  Er12  1  0.911697  0.709564  0.121989  1
  Er  Er13  1  0.911697  0.290436  0.621989  1
  Er  Er14  1  0.088303  0.709564  0.621989  1
  Er  Er15  1  0.088303  0.290436  0.121989  1
  Tm  Tm16  1  0.000000  0.000000  0.500000  1
  Tm  Tm17  1  0.000000  0.000000  0.000000  1
  Tm  Tm18  1  0.500000  0.500000  0.000000  1
  Tm  Tm19  1  0.500000  0.500000  0.500000  1
  Ir  Ir20  1  0.846182  0.153818  0.250000  1
  Ir  Ir21  1  0.846182  0.846182  0.750000  1
  Ir  Ir22  1  0.153818  0.153818  0.750000  1
  Ir  Ir23  1  0.153818  0.846182  0.250000  1
  Ir  Ir24  1  0.653818  0.346182  0.750000  1
  Ir  Ir25  1  0.653818  0.653818  0.250000  1
  Ir  Ir26  1  0.346182  0.346182  0.250000  1
  Ir  Ir27  1  0.346182  0.653818  0.750000  1
  Rh  Rh28  1  0.500000  0.000000  0.122988  1
  Rh  Rh29  1  0.500000  0.000000  0.622988  1
  Rh  Rh30  1  0.000000  0.500000  0.877012  1
  Rh  Rh31  1  0.000000  0.500000  0.377012  1
