# generated using pymatgen
data_Er5MnRhO12
_symmetry_space_group_name_H-M   'P 1'
_cell_length_a   6.76690009
_cell_length_b   6.76689947
_cell_length_c   7.19356842
_cell_angle_alpha   74.43547707
_cell_angle_beta   74.43548988
_cell_angle_gamma   50.83764827
_symmetry_Int_Tables_number   1
_chemical_formula_structural   Er5MnRhO12
_chemical_formula_sum   'Er5 Mn1 Rh1 O12'
_cell_volume   243.87260423
_cell_formula_units_Z   1
loop_
 _symmetry_equiv_pos_site_id
 _symmetry_equiv_pos_as_xyz
  1  'x, y, z'
loop_
 _atom_site_type_symbol
 _atom_site_label
 _atom_site_symmetry_multiplicity
 _atom_site_fract_x
 _atom_site_fract_y
 _atom_site_fract_z
 _atom_site_occupancy
  Er  Er0  1  0.295311  0.309744  0.359480  1
  Er  Er1  1  0.690256  0.704689  0.640520  1
  Er  Er2  1  0.308958  0.308956  0.830263  1
  Er  Er3  1  0.691044  0.691042  0.169737  1
  Er  Er4  1  0.999706  0.000294  0.500000  1
  Mn  Mn5  1  0.251273  0.748727  0.000000  1
  Rh  Rh6  1  0.759281  0.240719  0.000000  1
  O  O7  1  0.903129  0.426553  0.916359  1
  O  O8  1  0.425483  0.901880  0.917601  1
  O  O9  1  0.098120  0.574517  0.082399  1
  O  O10  1  0.573447  0.096871  0.083641  1
  O  O11  1  0.094178  0.597628  0.575768  1
  O  O12  1  0.597679  0.099977  0.572885  1
  O  O13  1  0.900023  0.402321  0.427115  1
  O  O14  1  0.402372  0.905822  0.424232  1
  O  O15  1  0.011597  0.988473  0.816670  1
  O  O16  1  0.011527  0.988403  0.183330  1
  O  O17  1  0.493617  0.507002  0.813060  1
  O  O18  1  0.492998  0.506383  0.186940  1
