# generated using pymatgen
data_Li4Tb(NdPb2)2
_symmetry_space_group_name_H-M   'P 1'
_cell_length_a   4.78824279
_cell_length_b   7.16682941
_cell_length_c   8.90141117
_cell_angle_alpha   113.73875254
_cell_angle_beta   105.60238063
_cell_angle_gamma   89.99999585
_symmetry_Int_Tables_number   1
_chemical_formula_structural   Li4Tb(NdPb2)2
_chemical_formula_sum   'Li4 Tb1 Nd2 Pb4'
_cell_volume   267.27797775
_cell_formula_units_Z   1
loop_
 _symmetry_equiv_pos_site_id
 _symmetry_equiv_pos_as_xyz
  1  'x, y, z'
loop_
 _atom_site_type_symbol
 _atom_site_label
 _atom_site_symmetry_multiplicity
 _atom_site_fract_x
 _atom_site_fract_y
 _atom_site_fract_z
 _atom_site_occupancy
  Li  Li0  1  0.672727  0.981754  0.345455  1
  Li  Li1  1  0.327273  0.018246  0.654545  1
  Li  Li2  1  0.327273  0.636299  0.654545  1
  Li  Li3  1  0.672727  0.363701  0.345455  1
  Tb  Tb4  1  0.000000  0.000000  0.000000  1
  Nd  Nd5  1  0.129310  0.629310  0.258620  1
  Nd  Nd6  1  0.870690  0.370690  0.741380  1
  Pb  Pb7  1  0.500000  0.710187  0.000000  1
  Pb  Pb8  1  0.500000  0.289813  0.000000  1
  Pb  Pb9  1  0.788920  0.788920  0.577839  1
  Pb  Pb10  1  0.211080  0.211080  0.422161  1
