# generated using pymatgen
data_Ti3Mn3AlPt9
_symmetry_space_group_name_H-M   'P 1'
_cell_length_a   5.56960474
_cell_length_b   5.56939433
_cell_length_c   7.71149000
_cell_angle_alpha   90.00000000
_cell_angle_beta   90.00000000
_cell_angle_gamma   89.96605943
_symmetry_Int_Tables_number   1
_chemical_formula_structural   Ti3Mn3AlPt9
_chemical_formula_sum   'Ti3 Mn3 Al1 Pt9'
_cell_volume   239.20517333
_cell_formula_units_Z   1
loop_
 _symmetry_equiv_pos_site_id
 _symmetry_equiv_pos_as_xyz
  1  'x, y, z'
loop_
 _atom_site_type_symbol
 _atom_site_label
 _atom_site_symmetry_multiplicity
 _atom_site_fract_x
 _atom_site_fract_y
 _atom_site_fract_z
 _atom_site_occupancy
  Ti  Ti0  1  0.500000  0.000000  0.249998  1
  Ti  Ti1  1  0.000000  0.500000  0.250111  1
  Ti  Ti2  1  0.500000  0.000000  0.750092  1
  Mn  Mn3  1  0.000000  0.000000  0.249946  1
  Mn  Mn4  1  0.000000  0.000000  0.750014  1
  Mn  Mn5  1  0.500000  0.500000  0.750011  1
  Al  Al6  1  0.000000  0.500000  0.749817  1
  Pt  Pt7  1  0.246829  0.250185  0.994765  1
  Pt  Pt8  1  0.750104  0.246960  0.995415  1
  Pt  Pt9  1  0.249896  0.753040  0.995415  1
  Pt  Pt10  1  0.753171  0.749815  0.994765  1
  Pt  Pt11  1  0.500000  0.500000  0.249998  1
  Pt  Pt12  1  0.751591  0.248483  0.504935  1
  Pt  Pt13  1  0.248419  0.248566  0.504891  1
  Pt  Pt14  1  0.751581  0.751434  0.504891  1
  Pt  Pt15  1  0.248409  0.751517  0.504935  1
