# generated using pymatgen
data_Li8Pr7ThSn8
_symmetry_space_group_name_H-M   'P 1'
_cell_length_a   9.59446001
_cell_length_b   9.59445933
_cell_length_c   7.70662901
_cell_angle_alpha   90.00525114
_cell_angle_beta   89.99474813
_cell_angle_gamma   120.00005986
_symmetry_Int_Tables_number   1
_chemical_formula_structural   Li8Pr7ThSn8
_chemical_formula_sum   'Li8 Pr7 Th1 Sn8'
_cell_volume   614.37829389
_cell_formula_units_Z   1
loop_
 _symmetry_equiv_pos_site_id
 _symmetry_equiv_pos_as_xyz
  1  'x, y, z'
loop_
 _atom_site_type_symbol
 _atom_site_label
 _atom_site_symmetry_multiplicity
 _atom_site_fract_x
 _atom_site_fract_y
 _atom_site_fract_z
 _atom_site_occupancy
  Li  Li0  1  0.832974  0.167026  0.712939  1
  Li  Li1  1  0.834818  0.667207  0.713262  1
  Li  Li2  1  0.332793  0.165182  0.713262  1
  Li  Li3  1  0.166683  0.833317  0.211519  1
  Li  Li4  1  0.166442  0.333538  0.212609  1
  Li  Li5  1  0.666462  0.833558  0.212609  1
  Li  Li6  1  0.667574  0.332426  0.331107  1
  Li  Li7  1  0.333307  0.666693  0.832203  1
  Pr  Pr8  1  0.488022  0.976403  0.504695  1
  Pr  Pr9  1  0.023597  0.511978  0.504695  1
  Pr  Pr10  1  0.512128  0.487872  0.005437  1
  Pr  Pr11  1  0.511707  0.024008  0.004913  1
  Pr  Pr12  1  0.975992  0.488293  0.004913  1
  Pr  Pr13  1  0.999657  0.000343  0.501228  1
  Pr  Pr14  1  0.999612  0.000388  0.001031  1
  Th  Th15  1  0.488807  0.511193  0.505260  1
  Sn  Sn16  1  0.833113  0.166887  0.269858  1
  Sn  Sn17  1  0.830835  0.665417  0.273218  1
  Sn  Sn18  1  0.334583  0.169165  0.273218  1
  Sn  Sn19  1  0.166761  0.833239  0.771577  1
  Sn  Sn20  1  0.168913  0.334738  0.767167  1
  Sn  Sn21  1  0.665262  0.831087  0.767167  1
  Sn  Sn22  1  0.665615  0.334385  0.729573  1
  Sn  Sn23  1  0.334344  0.665656  0.234545  1
