# generated using pymatgen
data_Tm8In2NiRu
_symmetry_space_group_name_H-M   'P 1'
_cell_length_a   9.48224102
_cell_length_b   9.48224103
_cell_length_c   9.50539800
_cell_angle_alpha   59.91917470
_cell_angle_beta   59.91917468
_cell_angle_gamma   59.71224993
_symmetry_Int_Tables_number   1
_chemical_formula_structural   Tm8In2NiRu
_chemical_formula_sum   'Tm16 In4 Ni2 Ru2'
_cell_volume   602.27465422
_cell_formula_units_Z   2
loop_
 _symmetry_equiv_pos_site_id
 _symmetry_equiv_pos_as_xyz
  1  'x, y, z'
loop_
 _atom_site_type_symbol
 _atom_site_label
 _atom_site_symmetry_multiplicity
 _atom_site_fract_x
 _atom_site_fract_y
 _atom_site_fract_z
 _atom_site_occupancy
  Tm  Tm0  1  0.058439  0.058439  0.441561  1
  Tm  Tm1  1  0.441859  0.061375  0.435631  1
  Tm  Tm2  1  0.061375  0.441859  0.061136  1
  Tm  Tm3  1  0.044662  0.648969  0.653185  1
  Tm  Tm4  1  0.437476  0.437476  0.062524  1
  Tm  Tm5  1  0.648969  0.044662  0.653185  1
  Tm  Tm6  1  0.189232  0.812702  0.188396  1
  Tm  Tm7  1  0.189480  0.189480  0.810520  1
  Tm  Tm8  1  0.810856  0.810856  0.189144  1
  Tm  Tm9  1  0.441859  0.061375  0.061136  1
  Tm  Tm10  1  0.812702  0.189232  0.188396  1
  Tm  Tm11  1  0.061375  0.441859  0.435631  1
  Tm  Tm12  1  0.812702  0.189232  0.809670  1
  Tm  Tm13  1  0.189232  0.812702  0.809670  1
  Tm  Tm14  1  0.651281  0.651281  0.043392  1
  Tm  Tm15  1  0.651281  0.651281  0.654047  1
  In  In16  1  0.417390  0.417390  0.415953  1
  In  In17  1  0.748640  0.417562  0.416898  1
  In  In18  1  0.417562  0.748640  0.416898  1
  In  In19  1  0.417390  0.417390  0.749266  1
  Ni  Ni20  1  0.423657  0.857644  0.859350  1
  Ni  Ni21  1  0.857644  0.423657  0.859350  1
  Ru  Ru22  1  0.857469  0.857469  0.424528  1
  Ru  Ru23  1  0.857469  0.857469  0.860532  1
