# generated using pymatgen
data_Dy3YUP12Ru19
_symmetry_space_group_name_H-M   'P 1'
_cell_length_a   12.57694010
_cell_length_b   12.53827356
_cell_length_c   3.96287800
_cell_angle_alpha   90.00000000
_cell_angle_beta   90.00000000
_cell_angle_gamma   119.89814002
_symmetry_Int_Tables_number   1
_chemical_formula_structural   Dy3YUP12Ru19
_chemical_formula_sum   'Dy3 Y1 U1 P12 Ru19'
_cell_volume   541.74999638
_cell_formula_units_Z   1
loop_
 _symmetry_equiv_pos_site_id
 _symmetry_equiv_pos_as_xyz
  1  'x, y, z'
loop_
 _atom_site_type_symbol
 _atom_site_label
 _atom_site_symmetry_multiplicity
 _atom_site_fract_x
 _atom_site_fract_y
 _atom_site_fract_z
 _atom_site_occupancy
  Dy  Dy0  1  0.811618  0.811023  0.500000  1
  Dy  Dy1  1  0.188377  0.999397  0.500000  1
  Dy  Dy2  1  0.669502  0.333446  0.000000  1
  Y  Y3  1  0.330498  0.663948  0.000000  1
  U  U4  1  0.000002  0.177388  0.500000  1
  P  P5  1  0.000007  0.817772  0.000000  1
  P  P6  1  0.188882  0.182218  0.000000  1
  P  P7  1  0.811123  0.993335  0.000000  1
  P  P8  1  0.693623  0.171566  0.500000  1
  P  P9  1  0.828410  0.522956  0.500000  1
  P  P10  1  0.479952  0.308567  0.500000  1
  P  P11  1  0.171481  0.694552  0.500000  1
  P  P12  1  0.520158  0.828719  0.500000  1
  P  P13  1  0.306371  0.477825  0.500000  1
  P  P14  1  0.999996  0.374035  0.000000  1
  P  P15  1  0.625521  0.626732  0.000000  1
  P  P16  1  0.374471  0.001212  0.000000  1
  Ru  Ru17  1  0.999965  0.555628  0.000000  1
  Ru  Ru18  1  0.441235  0.446595  0.000000  1
  Ru  Ru19  1  0.558790  0.005429  0.000000  1
  Ru  Ru20  1  0.999983  0.718691  0.500000  1
  Ru  Ru21  1  0.281952  0.283124  0.500000  1
  Ru  Ru22  1  0.718064  0.001204  0.500000  1
  Ru  Ru23  1  0.815838  0.183577  0.000000  1
  Ru  Ru24  1  0.815098  0.622616  0.000000  1
  Ru  Ru25  1  0.380242  0.195317  0.000000  1
  Ru  Ru26  1  0.184868  0.807547  0.000000  1
  Ru  Ru27  1  0.619826  0.815110  0.000000  1
  Ru  Ru28  1  0.184142  0.367691  0.000000  1
  Ru  Ru29  1  0.874026  0.364740  0.500000  1
  Ru  Ru30  1  0.633197  0.510171  0.500000  1
  Ru  Ru31  1  0.493852  0.128572  0.500000  1
  Ru  Ru32  1  0.366833  0.877081  0.500000  1
  Ru  Ru33  1  0.506243  0.634688  0.500000  1
  Ru  Ru34  1  0.125853  0.490614  0.500000  1
  Ru  Ru35  1  0.999998  0.006914  0.000000  1
