# generated using pymatgen
data_Li28Mg2Si7Sb
_symmetry_space_group_name_H-M   'P 1'
_cell_length_a   9.27312106
_cell_length_b   9.25398166
_cell_length_c   9.26822538
_cell_angle_alpha   109.37288380
_cell_angle_beta   109.60864496
_cell_angle_gamma   109.41778503
_symmetry_Int_Tables_number   1
_chemical_formula_structural   Li28Mg2Si7Sb
_chemical_formula_sum   'Li28 Mg2 Si7 Sb1'
_cell_volume   612.35685352
_cell_formula_units_Z   1
loop_
 _symmetry_equiv_pos_site_id
 _symmetry_equiv_pos_as_xyz
  1  'x, y, z'
loop_
 _atom_site_type_symbol
 _atom_site_label
 _atom_site_symmetry_multiplicity
 _atom_site_fract_x
 _atom_site_fract_y
 _atom_site_fract_z
 _atom_site_occupancy
  Li  Li0  1  0.056675  0.539750  0.284246  1
  Li  Li1  1  0.262722  0.790171  0.721354  1
  Li  Li2  1  0.183418  0.960128  0.973518  1
  Li  Li3  1  0.977213  0.199443  0.020606  1
  Li  Li4  1  0.038117  0.013781  0.222805  1
  Li  Li5  1  0.792158  0.816250  0.778123  1
  Li  Li6  1  0.466509  0.745963  0.538363  1
  Li  Li7  1  0.210005  0.935510  0.475390  1
  Li  Li8  1  0.717512  0.344365  0.061251  1
  Li  Li9  1  0.953441  0.398208  0.862736  1
  Li  Li10  1  0.286234  0.661885  0.932259  1
  Li  Li11  1  0.533324  0.091163  0.128411  1
  Li  Li12  1  0.693002  0.859907  0.089184  1
  Li  Li13  1  0.489308  0.903191  0.340073  1
  Li  Li14  1  0.559098  0.150179  0.668794  1
  Li  Li15  1  0.772239  0.603186  0.909623  1
  Li  Li16  1  0.849011  0.518680  0.411225  1
  Li  Li17  1  0.405423  0.301873  0.166453  1
  Li  Li18  1  0.137005  0.223697  0.822846  1
  Li  Li19  1  0.108056  0.441003  0.589328  1
  Li  Li20  1  0.906944  0.036958  0.438441  1
  Li  Li21  1  0.341732  0.280151  0.627407  1
  Li  Li22  1  0.597670  0.466427  0.563377  1
  Li  Li23  1  0.664094  0.720626  0.377753  1
  Li  Li24  1  0.001724  0.874160  0.626320  1
  Li  Li25  1  0.246822  0.369867  0.379365  1
  Li  Li26  1  0.120555  0.755166  0.123419  1
  Li  Li27  1  0.624121  0.000365  0.876165  1
  Mg  Mg28  1  0.508516  0.495775  0.991062  1
  Mg  Mg29  1  0.750778  0.251618  0.498749  1
  Si  Si30  1  0.373503  0.127282  0.835558  1
  Si  Si31  1  0.958186  0.622995  0.745847  1
  Si  Si32  1  0.876872  0.212300  0.254433  1
  Si  Si33  1  0.376227  0.123449  0.334764  1
  Si  Si34  1  0.787197  0.041507  0.663882  1
  Si  Si35  1  0.461645  0.626033  0.754332  1
  Si  Si36  1  0.872426  0.707757  0.245162  1
  Sb  Sb37  1  0.290517  0.539232  0.167374  1
