# generated using pymatgen
data_Pr2Ga2PtRh
_symmetry_space_group_name_H-M   'P 1'
_cell_length_a   4.49959200
_cell_length_b   7.13652300
_cell_length_c   7.89347400
_cell_angle_alpha   90.00000000
_cell_angle_beta   90.00000000
_cell_angle_gamma   90.00000000
_symmetry_Int_Tables_number   1
_chemical_formula_structural   Pr2Ga2PtRh
_chemical_formula_sum   'Pr4 Ga4 Pt2 Rh2'
_cell_volume   253.47083094
_cell_formula_units_Z   2
loop_
 _symmetry_equiv_pos_site_id
 _symmetry_equiv_pos_as_xyz
  1  'x, y, z'
loop_
 _atom_site_type_symbol
 _atom_site_label
 _atom_site_symmetry_multiplicity
 _atom_site_fract_x
 _atom_site_fract_y
 _atom_site_fract_z
 _atom_site_occupancy
  Pr  Pr0  1  0.250000  0.029747  0.686202  1
  Pr  Pr1  1  0.250000  0.529747  0.813798  1
  Pr  Pr2  1  0.750000  0.974843  0.307409  1
  Pr  Pr3  1  0.750000  0.474843  0.192591  1
  Ga  Ga4  1  0.250000  0.155137  0.072321  1
  Ga  Ga5  1  0.250000  0.655137  0.427679  1
  Ga  Ga6  1  0.750000  0.840913  0.932291  1
  Ga  Ga7  1  0.750000  0.340913  0.567709  1
  Pt  Pt8  1  0.750000  0.719808  0.609139  1
  Pt  Pt9  1  0.750000  0.219808  0.890861  1
  Rh  Rh10  1  0.250000  0.279552  0.392717  1
  Rh  Rh11  1  0.250000  0.779552  0.107283  1
