# generated using pymatgen
data_YCu4AgO8
_symmetry_space_group_name_H-M   'P 1'
_cell_length_a   6.24619419
_cell_length_b   6.24619378
_cell_length_c   6.24619389
_cell_angle_alpha   124.89248450
_cell_angle_beta   124.89248111
_cell_angle_gamma   81.71618712
_symmetry_Int_Tables_number   1
_chemical_formula_structural   YCu4AgO8
_chemical_formula_sum   'Y1 Cu4 Ag1 O8'
_cell_volume   157.75890849
_cell_formula_units_Z   1
loop_
 _symmetry_equiv_pos_site_id
 _symmetry_equiv_pos_as_xyz
  1  'x, y, z'
loop_
 _atom_site_type_symbol
 _atom_site_label
 _atom_site_symmetry_multiplicity
 _atom_site_fract_x
 _atom_site_fract_y
 _atom_site_fract_z
 _atom_site_occupancy
  Y  Y0  1  0.750000  0.250000  0.500000  1
  Cu  Cu1  1  0.874172  0.633382  0.258597  1
  Cu  Cu2  1  0.374785  0.615575  0.741403  1
  Cu  Cu3  1  0.384425  0.125828  0.759210  1
  Cu  Cu4  1  0.366618  0.625215  0.240790  1
  Ag  Ag5  1  0.000000  0.000000  0.000000  1
  O  O6  1  0.350321  0.973427  0.925585  1
  O  O7  1  0.047842  0.424735  0.074415  1
  O  O8  1  0.682293  0.835407  0.410476  1
  O  O9  1  0.424932  0.271817  0.589524  1
  O  O10  1  0.164593  0.575068  0.846886  1
  O  O11  1  0.728183  0.317707  0.153114  1
  O  O12  1  0.575265  0.649679  0.623107  1
  O  O13  1  0.026573  0.952158  0.376893  1
