# generated using pymatgen
data_Zn6Sn4Pt3Au
_symmetry_space_group_name_H-M   'P 1'
_cell_length_a   4.45601100
_cell_length_b   4.45601135
_cell_length_c   15.74738300
_cell_angle_alpha   90.00000000
_cell_angle_beta   90.00000000
_cell_angle_gamma   119.99997510
_symmetry_Int_Tables_number   1
_chemical_formula_structural   Zn6Sn4Pt3Au
_chemical_formula_sum   'Zn6 Sn4 Pt3 Au1'
_cell_volume   270.78940871
_cell_formula_units_Z   1
loop_
 _symmetry_equiv_pos_site_id
 _symmetry_equiv_pos_as_xyz
  1  'x, y, z'
loop_
 _atom_site_type_symbol
 _atom_site_label
 _atom_site_symmetry_multiplicity
 _atom_site_fract_x
 _atom_site_fract_y
 _atom_site_fract_z
 _atom_site_occupancy
  Zn  Zn0  1  0.000000  0.000000  0.173789  1
  Zn  Zn1  1  0.000000  0.000000  0.826211  1
  Zn  Zn2  1  0.000000  0.000000  0.666645  1
  Zn  Zn3  1  0.000000  0.000000  0.333355  1
  Zn  Zn4  1  0.333333  0.666667  0.749844  1
  Zn  Zn5  1  0.666667  0.333333  0.250156  1
  Sn  Sn6  1  0.333333  0.666667  0.077474  1
  Sn  Sn7  1  0.666667  0.333333  0.922526  1
  Sn  Sn8  1  0.666667  0.333333  0.570348  1
  Sn  Sn9  1  0.333333  0.666667  0.429652  1
  Pt  Pt10  1  0.000000  0.000000  0.500000  1
  Pt  Pt11  1  0.333333  0.666667  0.252349  1
  Pt  Pt12  1  0.666667  0.333333  0.747651  1
  Au  Au13  1  0.000000  0.000000  0.000000  1
