# generated using pymatgen
data_Ba6Os2N7
_symmetry_space_group_name_H-M   'P 1'
_cell_length_a   7.55303410
_cell_length_b   7.55303374
_cell_length_c   7.55303408
_cell_angle_alpha   65.71285119
_cell_angle_beta   65.71285563
_cell_angle_gamma   65.71285926
_symmetry_Int_Tables_number   1
_chemical_formula_structural   Ba6Os2N7
_chemical_formula_sum   'Ba6 Os2 N7'
_cell_volume   342.45152887
_cell_formula_units_Z   1
loop_
 _symmetry_equiv_pos_site_id
 _symmetry_equiv_pos_as_xyz
  1  'x, y, z'
loop_
 _atom_site_type_symbol
 _atom_site_label
 _atom_site_symmetry_multiplicity
 _atom_site_fract_x
 _atom_site_fract_y
 _atom_site_fract_z
 _atom_site_occupancy
  Ba  Ba0  1  0.187949  0.333750  0.732872  1
  Ba  Ba1  1  0.333750  0.732872  0.187949  1
  Ba  Ba2  1  0.732872  0.187949  0.333750  1
  Ba  Ba3  1  0.666250  0.267128  0.812051  1
  Ba  Ba4  1  0.267128  0.812051  0.666250  1
  Ba  Ba5  1  0.812051  0.666250  0.267128  1
  Os  Os6  1  0.749751  0.749751  0.749751  1
  Os  Os7  1  0.250249  0.250249  0.250249  1
  N  N8  1  0.522431  0.966672  0.755245  1
  N  N9  1  0.966672  0.755245  0.522431  1
  N  N10  1  0.755245  0.522431  0.966672  1
  N  N11  1  0.033328  0.244755  0.477569  1
  N  N12  1  0.244755  0.477569  0.033328  1
  N  N13  1  0.477569  0.033328  0.244755  1
  N  N14  1  0.500000  0.500000  0.500000  1
