# generated using pymatgen
data_TbHo5(SiPd5)2
_symmetry_space_group_name_H-M   'P 1'
_cell_length_a   8.22413313
_cell_length_b   8.22413367
_cell_length_c   8.22413300
_cell_angle_alpha   127.66367805
_cell_angle_beta   125.49332188
_cell_angle_gamma   78.95187351
_symmetry_Int_Tables_number   1
_chemical_formula_structural   TbHo5(SiPd5)2
_chemical_formula_sum   'Tb1 Ho5 Si2 Pd10'
_cell_volume   346.83862743
_cell_formula_units_Z   1
loop_
 _symmetry_equiv_pos_site_id
 _symmetry_equiv_pos_as_xyz
  1  'x, y, z'
loop_
 _atom_site_type_symbol
 _atom_site_label
 _atom_site_symmetry_multiplicity
 _atom_site_fract_x
 _atom_site_fract_y
 _atom_site_fract_z
 _atom_site_occupancy
  Tb  Tb0  1  0.611664  0.750000  0.861664  1
  Ho  Ho1  1  0.225426  0.449294  0.776132  1
  Ho  Ho2  1  0.773803  0.549251  0.224551  1
  Ho  Ho3  1  0.826835  0.050706  0.776132  1
  Ho  Ho4  1  0.175300  0.950749  0.224551  1
  Ho  Ho5  1  0.391381  0.250000  0.141381  1
  Si  Si6  1  0.781416  0.250000  0.531416  1
  Si  Si7  1  0.219058  0.750000  0.469058  1
  Pd  Pd8  1  0.167009  0.398940  0.354666  1
  Pd  Pd9  1  0.832678  0.188956  0.232253  1
  Pd  Pd10  1  0.455726  0.101060  0.768070  1
  Pd  Pd11  1  0.543295  0.311044  0.643721  1
  Pd  Pd12  1  0.998848  0.502212  0.001060  1
  Pd  Pd13  1  0.998848  0.997788  0.496635  1
  Pd  Pd14  1  0.455726  0.687657  0.354666  1
  Pd  Pd15  1  0.543295  0.899575  0.232253  1
  Pd  Pd16  1  0.167009  0.812343  0.768070  1
  Pd  Pd17  1  0.832678  0.600425  0.643721  1
