# generated using pymatgen
data_NaAc(CO3)2
_symmetry_space_group_name_H-M   'P 1'
_cell_length_a   6.49293109
_cell_length_b   6.49294580
_cell_length_c   6.49294600
_cell_angle_alpha   47.05749506
_cell_angle_beta   47.05755510
_cell_angle_gamma   47.05751427
_symmetry_Int_Tables_number   1
_chemical_formula_structural   NaAc(CO3)2
_chemical_formula_sum   'Na1 Ac1 C2 O6'
_cell_volume   134.10476805
_cell_formula_units_Z   1
loop_
 _symmetry_equiv_pos_site_id
 _symmetry_equiv_pos_as_xyz
  1  'x, y, z'
loop_
 _atom_site_type_symbol
 _atom_site_label
 _atom_site_symmetry_multiplicity
 _atom_site_fract_x
 _atom_site_fract_y
 _atom_site_fract_z
 _atom_site_occupancy
  Na  Na0  1  0.000000  0.000000  0.000000  1
  Ac  Ac1  1  0.500000  0.500000  0.500000  1
  C  C2  1  0.250484  0.250434  0.250479  1
  C  C3  1  0.749516  0.749566  0.749521  1
  O  O4  1  0.784869  0.484566  0.982010  1
  O  O5  1  0.515458  0.018002  0.215107  1
  O  O6  1  0.981972  0.784868  0.484559  1
  O  O7  1  0.018028  0.215132  0.515441  1
  O  O8  1  0.484542  0.981998  0.784893  1
  O  O9  1  0.215131  0.515434  0.017990  1
