# generated using pymatgen
data_La6Tb3Pt5Rh
_symmetry_space_group_name_H-M   'P 1'
_cell_length_a   7.74905196
_cell_length_b   7.74454630
_cell_length_c   7.77744495
_cell_angle_alpha   70.78635819
_cell_angle_beta   71.31843311
_cell_angle_gamma   70.85795126
_symmetry_Int_Tables_number   1
_chemical_formula_structural   La6Tb3Pt5Rh
_chemical_formula_sum   'La6 Tb3 Pt5 Rh1'
_cell_volume   404.40502116
_cell_formula_units_Z   1
loop_
 _symmetry_equiv_pos_site_id
 _symmetry_equiv_pos_as_xyz
  1  'x, y, z'
loop_
 _atom_site_type_symbol
 _atom_site_label
 _atom_site_symmetry_multiplicity
 _atom_site_fract_x
 _atom_site_fract_y
 _atom_site_fract_z
 _atom_site_occupancy
  La  La0  1  0.326673  0.608377  0.837463  1
  La  La1  1  0.846692  0.325654  0.602213  1
  La  La2  1  0.604272  0.843297  0.329891  1
  La  La3  1  0.670365  0.396287  0.156269  1
  La  La4  1  0.156636  0.674106  0.400198  1
  La  La5  1  0.392482  0.153437  0.669267  1
  Tb  Tb6  1  0.000320  0.999939  0.998881  1
  Tb  Tb7  1  0.804987  0.806863  0.805281  1
  Tb  Tb8  1  0.195758  0.194067  0.197501  1
  Pt  Pt9  1  0.591348  0.160096  0.960807  1
  Pt  Pt10  1  0.961449  0.592174  0.160873  1
  Pt  Pt11  1  0.842292  0.038379  0.407745  1
  Pt  Pt12  1  0.408060  0.839517  0.039108  1
  Pt  Pt13  1  0.038212  0.408845  0.839230  1
  Rh  Rh14  1  0.160455  0.958963  0.595275  1
