# generated using pymatgen
data_Y4MgPb4
_symmetry_space_group_name_H-M   'P 1'
_cell_length_a   7.88587400
_cell_length_b   8.32309300
_cell_length_c   15.65032400
_cell_angle_alpha   90.00000000
_cell_angle_beta   90.00000000
_cell_angle_gamma   90.00000000
_symmetry_Int_Tables_number   1
_chemical_formula_structural   Y4MgPb4
_chemical_formula_sum   'Y16 Mg4 Pb16'
_cell_volume   1027.20686677
_cell_formula_units_Z   4
loop_
 _symmetry_equiv_pos_site_id
 _symmetry_equiv_pos_as_xyz
  1  'x, y, z'
loop_
 _atom_site_type_symbol
 _atom_site_label
 _atom_site_symmetry_multiplicity
 _atom_site_fract_x
 _atom_site_fract_y
 _atom_site_fract_z
 _atom_site_occupancy
  Y  Y0  1  0.344789  0.838022  0.872842  1
  Y  Y1  1  0.844789  0.661978  0.627158  1
  Y  Y2  1  0.655211  0.161978  0.372842  1
  Y  Y3  1  0.155211  0.338022  0.127158  1
  Y  Y4  1  0.655211  0.161978  0.127158  1
  Y  Y5  1  0.155211  0.338022  0.372842  1
  Y  Y6  1  0.344789  0.838022  0.627158  1
  Y  Y7  1  0.844789  0.661978  0.872842  1
  Y  Y8  1  0.507062  0.314658  0.909922  1
  Y  Y9  1  0.007062  0.185342  0.590078  1
  Y  Y10  1  0.492938  0.685342  0.409922  1
  Y  Y11  1  0.992938  0.814658  0.090078  1
  Y  Y12  1  0.492938  0.685342  0.090078  1
  Y  Y13  1  0.992938  0.814658  0.409922  1
  Y  Y14  1  0.507062  0.314658  0.590078  1
  Y  Y15  1  0.007062  0.185342  0.909922  1
  Mg  Mg16  1  0.171502  0.504202  0.750000  1
  Mg  Mg17  1  0.671502  0.995798  0.750000  1
  Mg  Mg18  1  0.828498  0.495798  0.250000  1
  Mg  Mg19  1  0.328498  0.004202  0.250000  1
  Pb  Pb20  1  0.306496  0.040152  0.039993  1
  Pb  Pb21  1  0.806496  0.459848  0.460007  1
  Pb  Pb22  1  0.693504  0.959848  0.539993  1
  Pb  Pb23  1  0.193504  0.540152  0.960007  1
  Pb  Pb24  1  0.693504  0.959848  0.960007  1
  Pb  Pb25  1  0.193504  0.540152  0.539993  1
  Pb  Pb26  1  0.306496  0.040152  0.460007  1
  Pb  Pb27  1  0.806496  0.459848  0.039993  1
  Pb  Pb28  1  0.532411  0.599834  0.750000  1
  Pb  Pb29  1  0.032411  0.900166  0.750000  1
  Pb  Pb30  1  0.467589  0.400166  0.250000  1
  Pb  Pb31  1  0.967589  0.099834  0.250000  1
  Pb  Pb32  1  0.318648  0.162269  0.750000  1
  Pb  Pb33  1  0.818648  0.337731  0.750000  1
  Pb  Pb34  1  0.681352  0.837731  0.250000  1
  Pb  Pb35  1  0.181352  0.662269  0.250000  1
