# generated using pymatgen
data_Tb3DyGa18Ir5Pt
_symmetry_space_group_name_H-M   'P 1'
_cell_length_a   7.62321511
_cell_length_b   7.62269417
_cell_length_c   9.48801483
_cell_angle_alpha   90.06575694
_cell_angle_beta   90.04975236
_cell_angle_gamma   119.84418109
_symmetry_Int_Tables_number   1
_chemical_formula_structural   Tb3DyGa18Ir5Pt
_chemical_formula_sum   'Tb3 Dy1 Ga18 Ir5 Pt1'
_cell_volume   478.22418396
_cell_formula_units_Z   1
loop_
 _symmetry_equiv_pos_site_id
 _symmetry_equiv_pos_as_xyz
  1  'x, y, z'
loop_
 _atom_site_type_symbol
 _atom_site_label
 _atom_site_symmetry_multiplicity
 _atom_site_fract_x
 _atom_site_fract_y
 _atom_site_fract_z
 _atom_site_occupancy
  Tb  Tb0  1  0.996773  0.669763  0.250847  1
  Tb  Tb1  1  0.003299  0.330575  0.749110  1
  Tb  Tb2  1  0.669931  0.996907  0.250865  1
  Dy  Dy3  1  0.330430  0.003096  0.748994  1
  Ga  Ga4  1  0.130095  0.129972  0.251769  1
  Ga  Ga5  1  0.870629  0.870443  0.748227  1
  Ga  Ga6  1  0.999099  0.337689  0.082217  1
  Ga  Ga7  1  0.001206  0.662764  0.917639  1
  Ga  Ga8  1  0.001195  0.665789  0.580138  1
  Ga  Ga9  1  0.334379  0.999080  0.420582  1
  Ga  Ga10  1  0.999144  0.334604  0.420117  1
  Ga  Ga11  1  0.664943  0.000734  0.580044  1
  Ga  Ga12  1  0.661812  0.000727  0.917691  1
  Ga  Ga13  1  0.337512  0.999025  0.081777  1
  Ga  Ga14  1  0.332073  0.331370  0.564558  1
  Ga  Ga15  1  0.667875  0.668114  0.435615  1
  Ga  Ga16  1  0.663669  0.663781  0.067157  1
  Ga  Ga17  1  0.336288  0.335734  0.932769  1
  Ga  Ga18  1  0.338723  0.546984  0.250350  1
  Ga  Ga19  1  0.661372  0.452808  0.749616  1
  Ga  Ga20  1  0.546783  0.338401  0.250386  1
  Ga  Ga21  1  0.453362  0.662172  0.749614  1
  Ir  Ir22  1  0.670963  0.328604  0.999801  1
  Ir  Ir23  1  0.328541  0.670954  0.999758  1
  Ir  Ir24  1  0.328487  0.670983  0.500238  1
  Ir  Ir25  1  0.671188  0.328765  0.500191  1
  Ir  Ir26  1  0.000118  0.000093  0.499965  1
  Pt  Pt27  1  0.000111  0.000068  0.999965  1
