# generated using pymatgen
data_Hf9Sc7(Si4Mo)4
_symmetry_space_group_name_H-M   'P 1'
_cell_length_a   7.00930020
_cell_length_b   7.00899725
_cell_length_c   12.73478876
_cell_angle_alpha   90.02939124
_cell_angle_beta   89.97346742
_cell_angle_gamma   89.99195158
_symmetry_Int_Tables_number   1
_chemical_formula_structural   Hf9Sc7(Si4Mo)4
_chemical_formula_sum   'Hf9 Sc7 Si16 Mo4'
_cell_volume   625.63665866
_cell_formula_units_Z   1
loop_
 _symmetry_equiv_pos_site_id
 _symmetry_equiv_pos_as_xyz
  1  'x, y, z'
loop_
 _atom_site_type_symbol
 _atom_site_label
 _atom_site_symmetry_multiplicity
 _atom_site_fract_x
 _atom_site_fract_y
 _atom_site_fract_z
 _atom_site_occupancy
  Hf  Hf0  1  0.999226  0.344838  0.217592  1
  Hf  Hf1  1  0.494672  0.356239  0.125738  1
  Hf  Hf2  1  0.505010  0.643309  0.624936  1
  Hf  Hf3  1  0.856492  0.005723  0.875401  1
  Hf  Hf4  1  0.142936  0.995359  0.374450  1
  Hf  Hf5  1  0.643877  0.504963  0.374568  1
  Hf  Hf6  1  0.356628  0.494799  0.875273  1
  Hf  Hf7  1  0.004881  0.856891  0.125753  1
  Hf  Hf8  1  0.994449  0.143713  0.624689  1
  Sc  Sc9  1  0.498068  0.155236  0.532401  1
  Sc  Sc10  1  0.501626  0.845189  0.032553  1
  Sc  Sc11  1  0.655597  0.002268  0.282279  1
  Sc  Sc12  1  0.345245  0.998247  0.782893  1
  Sc  Sc13  1  0.844864  0.501577  0.967508  1
  Sc  Sc14  1  0.154712  0.498555  0.467930  1
  Sc  Sc15  1  0.001773  0.654790  0.717234  1
  Si  Si16  1  0.798193  0.147852  0.071329  1
  Si  Si17  1  0.201805  0.852069  0.570482  1
  Si  Si18  1  0.648158  0.701799  0.820506  1
  Si  Si19  1  0.351255  0.298823  0.320969  1
  Si  Si20  1  0.852443  0.202828  0.428047  1
  Si  Si21  1  0.147598  0.798141  0.929490  1
  Si  Si22  1  0.702930  0.647282  0.178941  1
  Si  Si23  1  0.298277  0.351857  0.679237  1
  Si  Si24  1  0.548072  0.196515  0.933367  1
  Si  Si25  1  0.451494  0.803533  0.433278  1
  Si  Si26  1  0.696116  0.951760  0.683218  1
  Si  Si27  1  0.303660  0.048236  0.183100  1
  Si  Si28  1  0.803911  0.452113  0.566542  1
  Si  Si29  1  0.196859  0.548505  0.066508  1
  Si  Si30  1  0.952180  0.695786  0.317029  1
  Si  Si31  1  0.048444  0.303640  0.816628  1
  Mo  Mo32  1  0.677239  0.322713  0.749894  1
  Mo  Mo33  1  0.321792  0.675479  0.250077  1
  Mo  Mo34  1  0.823172  0.822370  0.499677  1
  Mo  Mo35  1  0.176347  0.177004  0.000484  1
