# generated using pymatgen
data_Ho3AgSn3RuRh
_symmetry_space_group_name_H-M   'P 1'
_cell_length_a   7.83153300
_cell_length_b   7.83153229
_cell_length_c   3.67848800
_cell_angle_alpha   90.00000000
_cell_angle_beta   90.00000000
_cell_angle_gamma   119.99999145
_symmetry_Int_Tables_number   1
_chemical_formula_structural   Ho3AgSn3RuRh
_chemical_formula_sum   'Ho3 Ag1 Sn3 Ru1 Rh1'
_cell_volume   195.38604321
_cell_formula_units_Z   1
loop_
 _symmetry_equiv_pos_site_id
 _symmetry_equiv_pos_as_xyz
  1  'x, y, z'
loop_
 _atom_site_type_symbol
 _atom_site_label
 _atom_site_symmetry_multiplicity
 _atom_site_fract_x
 _atom_site_fract_y
 _atom_site_fract_z
 _atom_site_occupancy
  Ho  Ho0  1  0.021184  0.406442  0.000000  1
  Ho  Ho1  1  0.593558  0.614742  0.000000  1
  Ho  Ho2  1  0.385258  0.978816  0.000000  1
  Ag  Ag3  1  0.666667  0.333333  0.500000  1
  Sn  Sn4  1  0.266252  0.262178  0.500000  1
  Sn  Sn5  1  0.995926  0.733748  0.500000  1
  Sn  Sn6  1  0.737822  0.004074  0.500000  1
  Ru  Ru7  1  0.000000  0.000000  0.000000  1
  Rh  Rh8  1  0.333333  0.666667  0.500000  1
