# generated using pymatgen
data_Lu12Si12IrOs3
_symmetry_space_group_name_H-M   'P 1'
_cell_length_a   4.15795300
_cell_length_b   10.51226671
_cell_length_c   12.05709506
_cell_angle_alpha   90.07060692
_cell_angle_beta   90.00000000
_cell_angle_gamma   90.00000000
_symmetry_Int_Tables_number   1
_chemical_formula_structural   Lu12Si12IrOs3
_chemical_formula_sum   'Lu12 Si12 Ir1 Os3'
_cell_volume   527.00932789
_cell_formula_units_Z   1
loop_
 _symmetry_equiv_pos_site_id
 _symmetry_equiv_pos_as_xyz
  1  'x, y, z'
loop_
 _atom_site_type_symbol
 _atom_site_label
 _atom_site_symmetry_multiplicity
 _atom_site_fract_x
 _atom_site_fract_y
 _atom_site_fract_z
 _atom_site_occupancy
  Lu  Lu0  1  0.250000  0.879683  0.020537  1
  Lu  Lu1  1  0.250000  0.621012  0.520182  1
  Lu  Lu2  1  0.750000  0.120542  0.980777  1
  Lu  Lu3  1  0.750000  0.380347  0.479619  1
  Lu  Lu4  1  0.250000  0.920832  0.604461  1
  Lu  Lu5  1  0.250000  0.579320  0.104362  1
  Lu  Lu6  1  0.750000  0.079202  0.395700  1
  Lu  Lu7  1  0.750000  0.420136  0.894963  1
  Lu  Lu8  1  0.250000  0.660713  0.799079  1
  Lu  Lu9  1  0.250000  0.837975  0.299001  1
  Lu  Lu10  1  0.750000  0.338948  0.200573  1
  Lu  Lu11  1  0.750000  0.160571  0.699723  1
  Si  Si12  1  0.250000  0.012695  0.822364  1
  Si  Si13  1  0.250000  0.488882  0.320946  1
  Si  Si14  1  0.750000  0.988644  0.179173  1
  Si  Si15  1  0.750000  0.510921  0.679111  1
  Si  Si16  1  0.250000  0.248747  0.841132  1
  Si  Si17  1  0.250000  0.250413  0.341894  1
  Si  Si18  1  0.750000  0.750392  0.157830  1
  Si  Si19  1  0.750000  0.749182  0.657778  1
  Si  Si20  1  0.250000  0.200928  0.545124  1
  Si  Si21  1  0.250000  0.300000  0.045071  1
  Si  Si22  1  0.750000  0.801345  0.454913  1
  Si  Si23  1  0.750000  0.697995  0.955095  1
  Ir  Ir24  1  0.750000  0.890557  0.820790  1
  Os  Os25  1  0.250000  0.391109  0.679779  1
  Os  Os26  1  0.250000  0.108945  0.179501  1
  Os  Os27  1  0.750000  0.609963  0.320522  1
