# generated using pymatgen
data_La2Mg2CoCuSn4
_symmetry_space_group_name_H-M   'P 1'
_cell_length_a   4.57648000
_cell_length_b   4.57648000
_cell_length_c   11.37437900
_cell_angle_alpha   90.00000000
_cell_angle_beta   90.00000000
_cell_angle_gamma   90.00000000
_symmetry_Int_Tables_number   1
_chemical_formula_structural   La2Mg2CoCuSn4
_chemical_formula_sum   'La2 Mg2 Co1 Cu1 Sn4'
_cell_volume   238.22691821
_cell_formula_units_Z   1
loop_
 _symmetry_equiv_pos_site_id
 _symmetry_equiv_pos_as_xyz
  1  'x, y, z'
loop_
 _atom_site_type_symbol
 _atom_site_label
 _atom_site_symmetry_multiplicity
 _atom_site_fract_x
 _atom_site_fract_y
 _atom_site_fract_z
 _atom_site_occupancy
  La  La0  1  0.500000  0.000000  0.730822  1
  La  La1  1  0.000000  0.500000  0.283172  1
  Mg  Mg2  1  0.000000  0.000000  0.997592  1
  Mg  Mg3  1  0.500000  0.500000  0.997592  1
  Co  Co4  1  0.000000  0.500000  0.609947  1
  Cu  Cu5  1  0.500000  0.000000  0.379389  1
  Sn  Sn6  1  0.500000  0.500000  0.506835  1
  Sn  Sn7  1  0.000000  0.500000  0.831190  1
  Sn  Sn8  1  0.500000  0.000000  0.156625  1
  Sn  Sn9  1  0.000000  0.000000  0.506835  1
