# generated using pymatgen
data_Lu2AlNi7B2
_symmetry_space_group_name_H-M   'P 1'
_cell_length_a   5.01733500
_cell_length_b   5.01733376
_cell_length_c   6.86161200
_cell_angle_alpha   90.00000000
_cell_angle_beta   90.00000000
_cell_angle_gamma   119.99998842
_symmetry_Int_Tables_number   1
_chemical_formula_structural   Lu2AlNi7B2
_chemical_formula_sum   'Lu2 Al1 Ni7 B2'
_cell_volume   149.59012662
_cell_formula_units_Z   1
loop_
 _symmetry_equiv_pos_site_id
 _symmetry_equiv_pos_as_xyz
  1  'x, y, z'
loop_
 _atom_site_type_symbol
 _atom_site_label
 _atom_site_symmetry_multiplicity
 _atom_site_fract_x
 _atom_site_fract_y
 _atom_site_fract_z
 _atom_site_occupancy
  Lu  Lu0  1  0.000000  0.000000  0.500000  1
  Lu  Lu1  1  0.000000  0.000000  0.000000  1
  Al  Al2  1  0.666667  0.333333  0.000000  1
  Ni  Ni3  1  0.000936  0.500469  0.293773  1
  Ni  Ni4  1  0.499531  0.500469  0.293773  1
  Ni  Ni5  1  0.499531  0.500469  0.706227  1
  Ni  Ni6  1  0.499531  0.999064  0.706227  1
  Ni  Ni7  1  0.000936  0.500469  0.706227  1
  Ni  Ni8  1  0.333333  0.666667  0.000000  1
  Ni  Ni9  1  0.499531  0.999064  0.293773  1
  B  B10  1  0.666667  0.333333  0.500000  1
  B  B11  1  0.333333  0.666667  0.500000  1
