# generated using pymatgen
data_TbCe(Co9Si2)2
_symmetry_space_group_name_H-M   'P 1'
_cell_length_a   6.26538698
_cell_length_b   7.52180524
_cell_length_c   7.52366201
_cell_angle_alpha   80.01785353
_cell_angle_beta   65.39086550
_cell_angle_gamma   65.39062505
_symmetry_Int_Tables_number   1
_chemical_formula_structural   TbCe(Co9Si2)2
_chemical_formula_sum   'Tb1 Ce1 Co18 Si4'
_cell_volume   293.08147026
_cell_formula_units_Z   1
loop_
 _symmetry_equiv_pos_site_id
 _symmetry_equiv_pos_as_xyz
  1  'x, y, z'
loop_
 _atom_site_type_symbol
 _atom_site_label
 _atom_site_symmetry_multiplicity
 _atom_site_fract_x
 _atom_site_fract_y
 _atom_site_fract_z
 _atom_site_occupancy
  Tb  Tb0  1  0.625011  0.750016  0.249974  1
  Ce  Ce1  1  0.375022  0.249977  0.750022  1
  Co  Co2  1  0.125000  0.750008  0.249989  1
  Co  Co3  1  0.874986  0.250000  0.750007  1
  Co  Co4  1  0.560100  0.579638  0.668112  1
  Co  Co5  1  0.560061  0.168046  0.079596  1
  Co  Co6  1  0.139538  0.421085  0.168126  1
  Co  Co7  1  0.139572  0.668169  0.921028  1
  Co  Co8  1  0.807753  0.331943  0.420388  1
  Co  Co9  1  0.807803  0.920362  0.831906  1
  Co  Co10  1  0.728757  0.831840  0.578982  1
  Co  Co11  1  0.728765  0.078908  0.331872  1
  Co  Co12  1  0.439371  0.421099  0.331875  1
  Co  Co13  1  0.439406  0.831834  0.921038  1
  Co  Co14  1  0.860267  0.579662  0.831906  1
  Co  Co15  1  0.860337  0.331943  0.079597  1
  Co  Co16  1  0.192281  0.668154  0.578989  1
  Co  Co17  1  0.192318  0.078888  0.168141  1
  Co  Co18  1  0.271855  0.168049  0.420382  1
  Co  Co19  1  0.271836  0.920345  0.668103  1
  Si  Si20  1  0.500514  0.500150  0.999884  1
  Si  Si21  1  0.999287  0.500130  0.500095  1
  Si  Si22  1  0.999595  0.999864  0.999921  1
  Si  Si23  1  0.000563  0.999892  0.500069  1
