# generated using pymatgen
data_Tb7YSe12
_symmetry_space_group_name_H-M   'P 1'
_cell_length_a   13.67719264
_cell_length_b   13.05445857
_cell_length_c   7.13910153
_cell_angle_alpha   79.38018747
_cell_angle_beta   69.73196328
_cell_angle_gamma   30.82498213
_symmetry_Int_Tables_number   1
_chemical_formula_structural   Tb7YSe12
_chemical_formula_sum   'Tb7 Y1 Se12'
_cell_volume   595.49488503
_cell_formula_units_Z   1
loop_
 _symmetry_equiv_pos_site_id
 _symmetry_equiv_pos_as_xyz
  1  'x, y, z'
loop_
 _atom_site_type_symbol
 _atom_site_label
 _atom_site_symmetry_multiplicity
 _atom_site_fract_x
 _atom_site_fract_y
 _atom_site_fract_z
 _atom_site_occupancy
  Tb  Tb0  1  0.916233  0.916178  0.083775  1
  Tb  Tb1  1  0.333945  0.333998  0.166016  1
  Tb  Tb2  1  0.747435  0.747426  0.252537  1
  Tb  Tb3  1  0.166039  0.166007  0.333948  1
  Tb  Tb4  1  0.997530  0.997523  0.502447  1
  Tb  Tb5  1  0.252499  0.252513  0.747498  1
  Tb  Tb6  1  0.083758  0.083788  0.916237  1
  Y  Y7  1  0.502390  0.502423  0.997593  1
  Se  Se8  1  0.490445  0.009548  0.009367  1
  Se  Se9  1  0.930903  0.407280  0.076375  1
  Se  Se10  1  0.319915  0.841490  0.173361  1
  Se  Se11  1  0.758733  0.241216  0.240805  1
  Se  Se12  1  0.174942  0.663855  0.318290  1
  Se  Se13  1  0.585579  0.076156  0.407240  1
  Se  Se14  1  0.009546  0.490458  0.490599  1
  Se  Se15  1  0.407319  0.930908  0.585308  1
  Se  Se16  1  0.841575  0.319932  0.665255  1
  Se  Se17  1  0.241314  0.758798  0.759130  1
  Se  Se18  1  0.663840  0.174897  0.843215  1
  Se  Se19  1  0.076065  0.585604  0.931006  1
