# generated using pymatgen
data_Y3Ho2Sb3
_symmetry_space_group_name_H-M   'P 1'
_cell_length_a   6.26513000
_cell_length_b   9.00045136
_cell_length_c   8.99885405
_cell_angle_alpha   120.00587914
_cell_angle_beta   90.00000000
_cell_angle_gamma   90.00000000
_symmetry_Int_Tables_number   1
_chemical_formula_structural   Y3Ho2Sb3
_chemical_formula_sum   'Y6 Ho4 Sb6'
_cell_volume   439.42674315
_cell_formula_units_Z   2
loop_
 _symmetry_equiv_pos_site_id
 _symmetry_equiv_pos_as_xyz
  1  'x, y, z'
loop_
 _atom_site_type_symbol
 _atom_site_label
 _atom_site_symmetry_multiplicity
 _atom_site_fract_x
 _atom_site_fract_y
 _atom_site_fract_z
 _atom_site_occupancy
  Y  Y0  1  0.749998  0.247358  0.000000  1
  Y  Y1  1  0.750002  0.752720  0.752696  1
  Y  Y2  1  0.750002  0.000024  0.247304  1
  Y  Y3  1  0.249998  0.752642  0.000000  1
  Y  Y4  1  0.250002  0.247280  0.247304  1
  Y  Y5  1  0.250002  0.999976  0.752696  1
  Ho  Ho6  1  0.500000  0.333326  0.666666  1
  Ho  Ho7  1  0.500000  0.666660  0.333334  1
  Ho  Ho8  1  0.000000  0.666674  0.333334  1
  Ho  Ho9  1  0.000000  0.333340  0.666666  1
  Sb  Sb10  1  0.749993  0.612003  0.000000  1
  Sb  Sb11  1  0.750003  0.388001  0.388008  1
  Sb  Sb12  1  0.750003  0.999991  0.611992  1
  Sb  Sb13  1  0.249993  0.387997  0.000000  1
  Sb  Sb14  1  0.250003  0.611999  0.611992  1
  Sb  Sb15  1  0.250003  0.000009  0.388008  1
