# generated using pymatgen
data_Cs2TiBe3As4
_symmetry_space_group_name_H-M   'P 1'
_cell_length_a   8.16091417
_cell_length_b   8.16091483
_cell_length_c   5.62824000
_cell_angle_alpha   90.00000000
_cell_angle_beta   90.00000000
_cell_angle_gamma   139.65278033
_symmetry_Int_Tables_number   1
_chemical_formula_structural   Cs2TiBe3As4
_chemical_formula_sum   'Cs2 Ti1 Be3 As4'
_cell_volume   242.68062459
_cell_formula_units_Z   1
loop_
 _symmetry_equiv_pos_site_id
 _symmetry_equiv_pos_as_xyz
  1  'x, y, z'
loop_
 _atom_site_type_symbol
 _atom_site_label
 _atom_site_symmetry_multiplicity
 _atom_site_fract_x
 _atom_site_fract_y
 _atom_site_fract_z
 _atom_site_occupancy
  Cs  Cs0  1  0.500000  0.000000  0.252459  1
  Cs  Cs1  1  0.000000  0.500000  0.747541  1
  Ti  Ti2  1  0.000000  0.000000  0.000000  1
  Be  Be3  1  0.500000  0.500000  0.500000  1
  Be  Be4  1  0.500000  0.500000  0.000000  1
  Be  Be5  1  0.000000  0.000000  0.500000  1
  As  As6  1  0.654171  0.828393  0.741856  1
  As  As7  1  0.171607  0.345829  0.258144  1
  As  As8  1  0.828393  0.654171  0.258144  1
  As  As9  1  0.345829  0.171607  0.741856  1
