# generated using pymatgen
data_Ca2HoEr3(SiRh2)6
_symmetry_space_group_name_H-M   'P 1'
_cell_length_a   5.57810500
_cell_length_b   5.57810420
_cell_length_c   14.94519200
_cell_angle_alpha   90.00000000
_cell_angle_beta   90.00000000
_cell_angle_gamma   119.99999881
_symmetry_Int_Tables_number   1
_chemical_formula_structural   Ca2HoEr3(SiRh2)6
_chemical_formula_sum   'Ca2 Ho1 Er3 Si6 Rh12'
_cell_volume   402.72208193
_cell_formula_units_Z   1
loop_
 _symmetry_equiv_pos_site_id
 _symmetry_equiv_pos_as_xyz
  1  'x, y, z'
loop_
 _atom_site_type_symbol
 _atom_site_label
 _atom_site_symmetry_multiplicity
 _atom_site_fract_x
 _atom_site_fract_y
 _atom_site_fract_z
 _atom_site_occupancy
  Ca  Ca0  1  0.333333  0.666667  0.749998  1
  Ca  Ca1  1  0.666667  0.333333  0.249976  1
  Ho  Ho2  1  0.333333  0.666667  0.539919  1
  Er  Er3  1  0.666667  0.333333  0.460071  1
  Er  Er4  1  0.666667  0.333333  0.039803  1
  Er  Er5  1  0.333333  0.666667  0.960178  1
  Si  Si6  1  0.000000  0.000000  0.250010  1
  Si  Si7  1  0.000000  0.000000  0.750085  1
  Si  Si8  1  0.333333  0.666667  0.249982  1
  Si  Si9  1  0.666667  0.333333  0.750005  1
  Si  Si10  1  0.000000  0.000000  0.000012  1
  Si  Si11  1  0.000000  0.000000  0.499963  1
  Rh  Rh12  1  0.167138  0.334277  0.128835  1
  Rh  Rh13  1  0.832824  0.665647  0.871181  1
  Rh  Rh14  1  0.665723  0.832862  0.128835  1
  Rh  Rh15  1  0.832842  0.665682  0.628903  1
  Rh  Rh16  1  0.334353  0.167176  0.871181  1
  Rh  Rh17  1  0.167110  0.334221  0.371081  1
  Rh  Rh18  1  0.167138  0.832862  0.128835  1
  Rh  Rh19  1  0.334318  0.167158  0.628903  1
  Rh  Rh20  1  0.832824  0.167176  0.871181  1
  Rh  Rh21  1  0.665779  0.832890  0.371081  1
  Rh  Rh22  1  0.832842  0.167158  0.628903  1
  Rh  Rh23  1  0.167110  0.832890  0.371081  1
