# generated using pymatgen
data_Zr6Be8Al7Pd8
_symmetry_space_group_name_H-M   'P 1'
_cell_length_a   8.42243503
_cell_length_b   8.42243509
_cell_length_c   8.42243600
_cell_angle_alpha   60.00000430
_cell_angle_beta   60.00000406
_cell_angle_gamma   60.00000748
_symmetry_Int_Tables_number   1
_chemical_formula_structural   Zr6Be8Al7Pd8
_chemical_formula_sum   'Zr6 Be8 Al7 Pd8'
_cell_volume   422.47218067
_cell_formula_units_Z   1
loop_
 _symmetry_equiv_pos_site_id
 _symmetry_equiv_pos_as_xyz
  1  'x, y, z'
loop_
 _atom_site_type_symbol
 _atom_site_label
 _atom_site_symmetry_multiplicity
 _atom_site_fract_x
 _atom_site_fract_y
 _atom_site_fract_z
 _atom_site_occupancy
  Zr  Zr0  1  0.697547  0.302453  0.302453  1
  Zr  Zr1  1  0.302453  0.697547  0.697547  1
  Zr  Zr2  1  0.302453  0.697547  0.302453  1
  Zr  Zr3  1  0.697547  0.302453  0.697547  1
  Zr  Zr4  1  0.302453  0.302453  0.697547  1
  Zr  Zr5  1  0.697547  0.697547  0.302453  1
  Be  Be6  1  0.325356  0.325356  0.325356  1
  Be  Be7  1  0.674644  0.674644  0.674644  1
  Be  Be8  1  0.325356  0.325356  0.023931  1
  Be  Be9  1  0.325356  0.023931  0.325356  1
  Be  Be10  1  0.674644  0.674644  0.976069  1
  Be  Be11  1  0.674644  0.976069  0.674644  1
  Be  Be12  1  0.023931  0.325356  0.325356  1
  Be  Be13  1  0.976069  0.674644  0.674644  1
  Al  Al14  1  0.500000  0.000000  0.000000  1
  Al  Al15  1  0.000000  0.500000  0.500000  1
  Al  Al16  1  0.000000  0.500000  0.000000  1
  Al  Al17  1  0.500000  0.000000  0.500000  1
  Al  Al18  1  0.000000  0.000000  0.500000  1
  Al  Al19  1  0.500000  0.500000  0.000000  1
  Al  Al20  1  0.000000  0.000000  0.000000  1
  Pd  Pd21  1  0.125659  0.125659  0.125659  1
  Pd  Pd22  1  0.874341  0.874341  0.874341  1
  Pd  Pd23  1  0.125659  0.125659  0.623022  1
  Pd  Pd24  1  0.125659  0.623022  0.125659  1
  Pd  Pd25  1  0.874341  0.874341  0.376978  1
  Pd  Pd26  1  0.874341  0.376978  0.874341  1
  Pd  Pd27  1  0.623022  0.125659  0.125659  1
  Pd  Pd28  1  0.376978  0.874341  0.874341  1
