# generated using pymatgen
data_Yb10Hg2PtAu3
_symmetry_space_group_name_H-M   'P 1'
_cell_length_a   9.10399879
_cell_length_b   9.10399781
_cell_length_c   9.10495700
_cell_angle_alpha   128.98368027
_cell_angle_beta   128.98367532
_cell_angle_gamma   75.02897345
_symmetry_Int_Tables_number   1
_chemical_formula_structural   Yb10Hg2PtAu3
_chemical_formula_sum   'Yb10 Hg2 Pt1 Au3'
_cell_volume   444.03032108
_cell_formula_units_Z   1
loop_
 _symmetry_equiv_pos_site_id
 _symmetry_equiv_pos_as_xyz
  1  'x, y, z'
loop_
 _atom_site_type_symbol
 _atom_site_label
 _atom_site_symmetry_multiplicity
 _atom_site_fract_x
 _atom_site_fract_y
 _atom_site_fract_z
 _atom_site_occupancy
  Yb  Yb0  1  0.494749  0.502112  0.996861  1
  Yb  Yb1  1  0.002112  0.994749  0.996861  1
  Yb  Yb2  1  0.527742  0.027742  0.833671  1
  Yb  Yb3  1  0.190355  0.690355  0.154206  1
  Yb  Yb4  1  0.029777  0.201842  0.506285  1
  Yb  Yb5  1  0.701842  0.529777  0.506285  1
  Yb  Yb6  1  0.463853  0.963853  0.154206  1
  Yb  Yb7  1  0.805926  0.305926  0.833671  1
  Yb  Yb8  1  0.976508  0.804444  0.506285  1
  Yb  Yb9  1  0.304444  0.476508  0.506285  1
  Hg  Hg10  1  0.251083  0.251083  0.002166  1
  Hg  Hg11  1  0.751083  0.751083  0.002166  1
  Pt  Pt12  1  0.132706  0.632706  0.765412  1
  Au  Au13  1  0.867717  0.367717  0.235434  1
  Au  Au14  1  0.633306  0.866796  0.500102  1
  Au  Au15  1  0.366796  0.133306  0.500102  1
