# generated using pymatgen
data_LiCe2Sm2Zn7Ru2
_symmetry_space_group_name_H-M   'P 1'
_cell_length_a   7.20601664
_cell_length_b   7.20601664
_cell_length_c   5.14259241
_cell_angle_alpha   90.25736424
_cell_angle_beta   90.25736424
_cell_angle_gamma   90.88801555
_symmetry_Int_Tables_number   1
_chemical_formula_structural   LiCe2Sm2Zn7Ru2
_chemical_formula_sum   'Li1 Ce2 Sm2 Zn7 Ru2'
_cell_volume   267.00018491
_cell_formula_units_Z   1
loop_
 _symmetry_equiv_pos_site_id
 _symmetry_equiv_pos_as_xyz
  1  'x, y, z'
loop_
 _atom_site_type_symbol
 _atom_site_label
 _atom_site_symmetry_multiplicity
 _atom_site_fract_x
 _atom_site_fract_y
 _atom_site_fract_z
 _atom_site_occupancy
  Li  Li0  1  0.185717  0.685717  0.292283  1
  Ce  Ce1  1  0.001783  0.998420  0.003019  1
  Ce  Ce2  1  0.498420  0.501783  0.003019  1
  Sm  Sm3  1  0.999219  0.499219  0.766182  1
  Sm  Sm4  1  0.502586  0.002586  0.228992  1
  Zn  Zn5  1  0.815414  0.686282  0.290529  1
  Zn  Zn6  1  0.815981  0.315981  0.286812  1
  Zn  Zn7  1  0.313659  0.184668  0.710442  1
  Zn  Zn8  1  0.186282  0.315414  0.290529  1
  Zn  Zn9  1  0.686012  0.186012  0.712199  1
  Zn  Zn10  1  0.684668  0.813659  0.710442  1
  Zn  Zn11  1  0.310621  0.810621  0.710794  1
  Ru  Ru12  1  0.502608  0.497032  0.497379  1
  Ru  Ru13  1  0.997032  0.002608  0.497379  1
