# generated using pymatgen
data_LiDyCo4As3
_symmetry_space_group_name_H-M   'P 1'
_cell_length_a   3.83755100
_cell_length_b   10.70265400
_cell_length_c   12.36213300
_cell_angle_alpha   90.00000000
_cell_angle_beta   90.00000000
_cell_angle_gamma   90.00000000
_symmetry_Int_Tables_number   1
_chemical_formula_structural   LiDyCo4As3
_chemical_formula_sum   'Li4 Dy4 Co16 As12'
_cell_volume   507.73728626
_cell_formula_units_Z   4
loop_
 _symmetry_equiv_pos_site_id
 _symmetry_equiv_pos_as_xyz
  1  'x, y, z'
loop_
 _atom_site_type_symbol
 _atom_site_label
 _atom_site_symmetry_multiplicity
 _atom_site_fract_x
 _atom_site_fract_y
 _atom_site_fract_z
 _atom_site_occupancy
  Li  Li0  1  0.250000  0.698999  0.993680  1
  Li  Li1  1  0.250000  0.801001  0.493680  1
  Li  Li2  1  0.750000  0.301001  0.006320  1
  Li  Li3  1  0.750000  0.198999  0.506320  1
  Dy  Dy4  1  0.250000  0.575253  0.700743  1
  Dy  Dy5  1  0.250000  0.924747  0.200743  1
  Dy  Dy6  1  0.750000  0.424747  0.299257  1
  Dy  Dy7  1  0.750000  0.075253  0.799257  1
  Co  Co8  1  0.250000  0.408065  0.484867  1
  Co  Co9  1  0.250000  0.091935  0.984867  1
  Co  Co10  1  0.750000  0.591935  0.515133  1
  Co  Co11  1  0.750000  0.908065  0.015133  1
  Co  Co12  1  0.250000  0.216522  0.174204  1
  Co  Co13  1  0.250000  0.283478  0.674204  1
  Co  Co14  1  0.750000  0.783478  0.825796  1
  Co  Co15  1  0.750000  0.716522  0.325796  1
  Co  Co16  1  0.250000  0.878628  0.699500  1
  Co  Co17  1  0.250000  0.621372  0.199500  1
  Co  Co18  1  0.750000  0.121372  0.300500  1
  Co  Co19  1  0.750000  0.378628  0.800500  1
  Co  Co20  1  0.250000  0.466741  0.931662  1
  Co  Co21  1  0.250000  0.033259  0.431662  1
  Co  Co22  1  0.750000  0.533259  0.068338  1
  Co  Co23  1  0.750000  0.966741  0.568338  1
  As  As24  1  0.250000  0.421832  0.116322  1
  As  As25  1  0.250000  0.078168  0.616322  1
  As  As26  1  0.750000  0.578168  0.883678  1
  As  As27  1  0.750000  0.921832  0.383678  1
  As  As28  1  0.250000  0.267008  0.862054  1
  As  As29  1  0.250000  0.232992  0.362054  1
  As  As30  1  0.750000  0.732992  0.137946  1
  As  As31  1  0.750000  0.767008  0.637946  1
  As  As32  1  0.250000  0.604375  0.393728  1
  As  As33  1  0.250000  0.895625  0.893728  1
  As  As34  1  0.750000  0.395625  0.606272  1
  As  As35  1  0.750000  0.104375  0.106272  1
