# generated using pymatgen
data_CeHo7Sb20
_symmetry_space_group_name_H-M   'P 1'
_cell_length_a   4.21182700
_cell_length_b   13.19014953
_cell_length_c   14.69982880
_cell_angle_alpha   77.86438460
_cell_angle_beta   90.00000000
_cell_angle_gamma   90.00000000
_symmetry_Int_Tables_number   1
_chemical_formula_structural   CeHo7Sb20
_chemical_formula_sum   'Ce1 Ho7 Sb20'
_cell_volume   798.39378116
_cell_formula_units_Z   1
loop_
 _symmetry_equiv_pos_site_id
 _symmetry_equiv_pos_as_xyz
  1  'x, y, z'
loop_
 _atom_site_type_symbol
 _atom_site_label
 _atom_site_symmetry_multiplicity
 _atom_site_fract_x
 _atom_site_fract_y
 _atom_site_fract_z
 _atom_site_occupancy
  Ce  Ce0  1  0.250000  0.393257  0.770426  1
  Ho  Ho1  1  0.750000  0.605628  0.228816  1
  Ho  Ho2  1  0.250000  0.664350  0.857609  1
  Ho  Ho3  1  0.750000  0.336658  0.146048  1
  Ho  Ho4  1  0.250000  0.672354  0.573103  1
  Ho  Ho5  1  0.750000  0.330161  0.422652  1
  Ho  Ho6  1  0.250000  0.952280  0.359378  1
  Ho  Ho7  1  0.750000  0.045389  0.640188  1
  Sb  Sb8  1  0.250000  0.141276  0.775410  1
  Sb  Sb9  1  0.750000  0.857065  0.223429  1
  Sb  Sb10  1  0.250000  0.142409  0.483311  1
  Sb  Sb11  1  0.750000  0.858087  0.516992  1
  Sb  Sb12  1  0.250000  0.151840  0.172485  1
  Sb  Sb13  1  0.750000  0.847548  0.828395  1
  Sb  Sb14  1  0.250000  0.421043  0.979010  1
  Sb  Sb15  1  0.750000  0.580307  0.024001  1
  Sb  Sb16  1  0.750000  0.028924  0.905799  1
  Sb  Sb17  1  0.250000  0.969218  0.094361  1
  Sb  Sb18  1  0.750000  0.138195  0.322896  1
  Sb  Sb19  1  0.250000  0.860143  0.678312  1
  Sb  Sb20  1  0.750000  0.279577  0.938776  1
  Sb  Sb21  1  0.250000  0.721683  0.063391  1
  Sb  Sb22  1  0.750000  0.285634  0.653508  1
  Sb  Sb23  1  0.250000  0.713830  0.345248  1
  Sb  Sb24  1  0.750000  0.578373  0.733694  1
  Sb  Sb25  1  0.250000  0.423764  0.265510  1
  Sb  Sb26  1  0.750000  0.573591  0.447382  1
  Sb  Sb27  1  0.250000  0.427415  0.549868  1
