# generated using pymatgen
data_KRb11(GaTe3)4
_symmetry_space_group_name_H-M   'P 1'
_cell_length_a   14.30479528
_cell_length_b   8.96973791
_cell_length_c   11.72416555
_cell_angle_alpha   52.81260129
_cell_angle_beta   89.97888691
_cell_angle_gamma   89.98030959
_symmetry_Int_Tables_number   1
_chemical_formula_structural   KRb11(GaTe3)4
_chemical_formula_sum   'K1 Rb11 Ga4 Te12'
_cell_volume   1198.44438449
_cell_formula_units_Z   1
loop_
 _symmetry_equiv_pos_site_id
 _symmetry_equiv_pos_as_xyz
  1  'x, y, z'
loop_
 _atom_site_type_symbol
 _atom_site_label
 _atom_site_symmetry_multiplicity
 _atom_site_fract_x
 _atom_site_fract_y
 _atom_site_fract_z
 _atom_site_occupancy
  K  K0  1  0.885109  0.362113  0.975856  1
  Rb  Rb1  1  0.906493  0.337400  0.398200  1
  Rb  Rb2  1  0.406489  0.662640  0.101955  1
  Rb  Rb3  1  0.093088  0.662736  0.601981  1
  Rb  Rb4  1  0.593819  0.337473  0.898044  1
  Rb  Rb5  1  0.189581  0.123683  0.590582  1
  Rb  Rb6  1  0.689791  0.875945  0.909698  1
  Rb  Rb7  1  0.810538  0.876675  0.409275  1
  Rb  Rb8  1  0.310416  0.123755  0.090331  1
  Rb  Rb9  1  0.615511  0.363985  0.475755  1
  Rb  Rb10  1  0.115059  0.635822  0.024030  1
  Rb  Rb11  1  0.384814  0.635944  0.524122  1
  Ga  Ga12  1  0.936388  0.064956  0.836277  1
  Ga  Ga13  1  0.436411  0.934035  0.664414  1
  Ga  Ga14  1  0.063424  0.934485  0.163908  1
  Ga  Ga15  1  0.564155  0.066371  0.335048  1
  Te  Te16  1  0.393967  0.158321  0.377116  1
  Te  Te17  1  0.893315  0.843523  0.122598  1
  Te  Te18  1  0.606376  0.842439  0.622294  1
  Te  Te19  1  0.106370  0.157995  0.877178  1
  Te  Te20  1  0.683963  0.349814  0.187113  1
  Te  Te21  1  0.182275  0.650093  0.311767  1
  Te  Te22  1  0.317595  0.649849  0.811577  1
  Te  Te23  1  0.818486  0.350947  0.691660  1
  Te  Te24  1  0.555928  0.873561  0.233511  1
  Te  Te25  1  0.053786  0.129386  0.263359  1
  Te  Te26  1  0.444046  0.126264  0.766426  1
  Te  Te27  1  0.942807  0.869792  0.735922  1
