# generated using pymatgen
data_Eu3Ta3TiO14
_symmetry_space_group_name_H-M   'P 1'
_cell_length_a   7.39372407
_cell_length_b   7.39372454
_cell_length_c   7.39372431
_cell_angle_alpha   61.35871873
_cell_angle_beta   61.35871854
_cell_angle_gamma   61.35872057
_symmetry_Int_Tables_number   1
_chemical_formula_structural   Eu3Ta3TiO14
_chemical_formula_sum   'Eu3 Ta3 Ti1 O14'
_cell_volume   294.53392656
_cell_formula_units_Z   1
loop_
 _symmetry_equiv_pos_site_id
 _symmetry_equiv_pos_as_xyz
  1  'x, y, z'
loop_
 _atom_site_type_symbol
 _atom_site_label
 _atom_site_symmetry_multiplicity
 _atom_site_fract_x
 _atom_site_fract_y
 _atom_site_fract_z
 _atom_site_occupancy
  Eu  Eu0  1  0.000000  0.500000  0.500000  1
  Eu  Eu1  1  0.500000  0.500000  0.000000  1
  Eu  Eu2  1  0.500000  0.000000  0.500000  1
  Ta  Ta3  1  0.500000  0.000000  0.000000  1
  Ta  Ta4  1  0.000000  0.000000  0.500000  1
  Ta  Ta5  1  0.000000  0.500000  0.000000  1
  Ti  Ti6  1  0.000000  0.000000  0.000000  1
  O  O7  1  0.945475  0.314613  0.314613  1
  O  O8  1  0.316330  0.929431  0.929431  1
  O  O9  1  0.314613  0.314613  0.945475  1
  O  O10  1  0.929431  0.929431  0.316330  1
  O  O11  1  0.929431  0.316330  0.929431  1
  O  O12  1  0.314613  0.945475  0.314613  1
  O  O13  1  0.054525  0.685387  0.685387  1
  O  O14  1  0.683670  0.070569  0.070569  1
  O  O15  1  0.685387  0.685387  0.054525  1
  O  O16  1  0.070569  0.070569  0.683670  1
  O  O17  1  0.070569  0.683670  0.070569  1
  O  O18  1  0.685387  0.054525  0.685387  1
  O  O19  1  0.359619  0.359619  0.359619  1
  O  O20  1  0.640381  0.640381  0.640381  1
