# generated using pymatgen
data_ScSiNi5Pt
_symmetry_space_group_name_H-M   'P 1'
_cell_length_a   3.78292900
_cell_length_b   3.78292900
_cell_length_c   6.88437800
_cell_angle_alpha   90.00000000
_cell_angle_beta   90.00000000
_cell_angle_gamma   90.00000000
_symmetry_Int_Tables_number   1
_chemical_formula_structural   ScSiNi5Pt
_chemical_formula_sum   'Sc1 Si1 Ni5 Pt1'
_cell_volume   98.51924811
_cell_formula_units_Z   1
loop_
 _symmetry_equiv_pos_site_id
 _symmetry_equiv_pos_as_xyz
  1  'x, y, z'
loop_
 _atom_site_type_symbol
 _atom_site_label
 _atom_site_symmetry_multiplicity
 _atom_site_fract_x
 _atom_site_fract_y
 _atom_site_fract_z
 _atom_site_occupancy
  Sc  Sc0  1  0.000000  0.000000  0.000000  1
  Si  Si1  1  0.000000  0.000000  0.500000  1
  Ni  Ni2  1  0.500000  0.500000  0.500000  1
  Ni  Ni3  1  0.500000  0.000000  0.282961  1
  Ni  Ni4  1  0.500000  0.000000  0.717039  1
  Ni  Ni5  1  0.000000  0.500000  0.282961  1
  Ni  Ni6  1  0.000000  0.500000  0.717039  1
  Pt  Pt7  1  0.500000  0.500000  0.000000  1
