# generated using pymatgen
data_TaTi2Al2IrC
_symmetry_space_group_name_H-M   'P 1'
_cell_length_a   8.23784383
_cell_length_b   8.24611120
_cell_length_c   8.23784254
_cell_angle_alpha   59.95948233
_cell_angle_beta   60.06499000
_cell_angle_gamma   59.95947810
_symmetry_Int_Tables_number   1
_chemical_formula_structural   TaTi2Al2IrC
_chemical_formula_sum   'Ta4 Ti8 Al8 Ir4 C4'
_cell_volume   395.64671597
_cell_formula_units_Z   4
loop_
 _symmetry_equiv_pos_site_id
 _symmetry_equiv_pos_as_xyz
  1  'x, y, z'
loop_
 _atom_site_type_symbol
 _atom_site_label
 _atom_site_symmetry_multiplicity
 _atom_site_fract_x
 _atom_site_fract_y
 _atom_site_fract_z
 _atom_site_occupancy
  Ta  Ta0  1  0.562920  0.936611  0.938804  1
  Ta  Ta1  1  0.938804  0.936611  0.562920  1
  Ta  Ta2  1  0.687466  0.314584  0.687466  1
  Ta  Ta3  1  0.937297  0.563862  0.937297  1
  Ti  Ti4  1  0.562070  0.936405  0.562070  1
  Ti  Ti5  1  0.313958  0.686634  0.688030  1
  Ti  Ti6  1  0.687686  0.313242  0.311684  1
  Ti  Ti7  1  0.312086  0.687249  0.312086  1
  Ti  Ti8  1  0.688030  0.686634  0.313958  1
  Ti  Ti9  1  0.311684  0.313242  0.687686  1
  Ti  Ti10  1  0.561831  0.562615  0.937334  1
  Ti  Ti11  1  0.937334  0.562615  0.561831  1
  Al  Al12  1  0.916855  0.915496  0.916855  1
  Al  Al13  1  0.995681  0.336547  0.333003  1
  Al  Al14  1  0.336230  0.994012  0.336230  1
  Al  Al15  1  0.333003  0.336547  0.995681  1
  Al  Al16  1  0.914407  0.255567  0.914407  1
  Al  Al17  1  0.913926  0.913899  0.255202  1
  Al  Al18  1  0.255202  0.913899  0.913926  1
  Al  Al19  1  0.335454  0.334476  0.335454  1
  Ir  Ir20  1  0.125224  0.124293  0.125224  1
  Ir  Ir21  1  0.624825  0.125233  0.123545  1
  Ir  Ir22  1  0.124788  0.624881  0.124788  1
  Ir  Ir23  1  0.123545  0.125233  0.624825  1
  C  C24  1  0.625249  0.628338  0.625249  1
  C  C25  1  0.129236  0.622469  0.622719  1
  C  C26  1  0.622489  0.126337  0.622489  1
  C  C27  1  0.622719  0.622469  0.129236  1
