# generated using pymatgen
data_Th3Al2Ni3Pd
_symmetry_space_group_name_H-M   'P 1'
_cell_length_a   6.92998658
_cell_length_b   7.20263551
_cell_length_c   4.06157800
_cell_angle_alpha   90.00000000
_cell_angle_beta   90.00000000
_cell_angle_gamma   121.12284316
_symmetry_Int_Tables_number   1
_chemical_formula_structural   Th3Al2Ni3Pd
_chemical_formula_sum   'Th3 Al2 Ni3 Pd1'
_cell_volume   173.54950642
_cell_formula_units_Z   1
loop_
 _symmetry_equiv_pos_site_id
 _symmetry_equiv_pos_as_xyz
  1  'x, y, z'
loop_
 _atom_site_type_symbol
 _atom_site_label
 _atom_site_symmetry_multiplicity
 _atom_site_fract_x
 _atom_site_fract_y
 _atom_site_fract_z
 _atom_site_occupancy
  Th  Th0  1  0.999964  0.421004  0.500000  1
  Th  Th1  1  0.599427  0.588398  0.500000  1
  Th  Th2  1  0.400569  0.988935  0.500000  1
  Al  Al3  1  0.231533  0.229509  0.000000  1
  Al  Al4  1  0.768505  0.998002  0.000000  1
  Ni  Ni5  1  0.354174  0.660917  0.000000  1
  Ni  Ni6  1  0.645827  0.306647  0.000000  1
  Ni  Ni7  1  0.999994  0.038651  0.500000  1
  Pd  Pd8  1  0.000008  0.767936  0.000000  1
