# generated using pymatgen
data_CeEu4GaRh4
_symmetry_space_group_name_H-M   'P 1'
_cell_length_a   5.88843453
_cell_length_b   5.88843496
_cell_length_c   7.95452300
_cell_angle_alpha   77.54151287
_cell_angle_beta   77.54151194
_cell_angle_gamma   58.66541301
_symmetry_Int_Tables_number   1
_chemical_formula_structural   CeEu4GaRh4
_chemical_formula_sum   'Ce1 Eu4 Ga1 Rh4'
_cell_volume   228.25680602
_cell_formula_units_Z   1
loop_
 _symmetry_equiv_pos_site_id
 _symmetry_equiv_pos_as_xyz
  1  'x, y, z'
loop_
 _atom_site_type_symbol
 _atom_site_label
 _atom_site_symmetry_multiplicity
 _atom_site_fract_x
 _atom_site_fract_y
 _atom_site_fract_z
 _atom_site_occupancy
  Ce  Ce0  1  0.876548  0.123452  0.750000  1
  Eu  Eu1  1  0.781311  0.521852  0.335177  1
  Eu  Eu2  1  0.478148  0.218689  0.164823  1
  Eu  Eu3  1  0.217623  0.487485  0.628184  1
  Eu  Eu4  1  0.512515  0.782377  0.871816  1
  Ga  Ga5  1  0.109137  0.890863  0.250000  1
  Rh  Rh6  1  0.015157  0.728338  0.003136  1
  Rh  Rh7  1  0.271662  0.984843  0.496864  1
  Rh  Rh8  1  0.005169  0.267271  0.990116  1
  Rh  Rh9  1  0.732729  0.994831  0.509884  1
