# generated using pymatgen
data_Zr7ScTa2V10Si15Ge
_symmetry_space_group_name_H-M   'P 1'
_cell_length_a   6.68661596
_cell_length_b   6.69840873
_cell_length_c   12.40589649
_cell_angle_alpha   89.98576387
_cell_angle_beta   90.18228785
_cell_angle_gamma   90.09707399
_symmetry_Int_Tables_number   1
_chemical_formula_structural   Zr7ScTa2V10Si15Ge
_chemical_formula_sum   'Zr7 Sc1 Ta2 V10 Si15 Ge1'
_cell_volume   555.65259095
_cell_formula_units_Z   1
loop_
 _symmetry_equiv_pos_site_id
 _symmetry_equiv_pos_as_xyz
  1  'x, y, z'
loop_
 _atom_site_type_symbol
 _atom_site_label
 _atom_site_symmetry_multiplicity
 _atom_site_fract_x
 _atom_site_fract_y
 _atom_site_fract_z
 _atom_site_occupancy
  Zr  Zr0  1  0.001481  0.660637  0.028821  1
  Zr  Zr1  1  0.836411  0.503401  0.281727  1
  Zr  Zr2  1  0.161322  0.495502  0.778668  1
  Zr  Zr3  1  0.504504  0.837365  0.717621  1
  Zr  Zr4  1  0.499105  0.163944  0.222147  1
  Zr  Zr5  1  0.994441  0.338774  0.531606  1
  Zr  Zr6  1  0.664963  0.002794  0.967957  1
  Sc  Sc7  1  0.337507  0.997238  0.471765  1
  Ta  Ta8  1  0.334178  0.337382  0.998115  1
  Ta  Ta9  1  0.165152  0.833491  0.253439  1
  V  V10  1  0.835037  0.164753  0.748095  1
  V  V11  1  0.667347  0.664271  0.501332  1
  V  V12  1  0.000548  0.163215  0.128217  1
  V  V13  1  0.340368  0.507206  0.377780  1
  V  V14  1  0.660635  0.494998  0.875722  1
  V  V15  1  0.506087  0.339077  0.622280  1
  V  V16  1  0.496324  0.656436  0.124174  1
  V  V17  1  0.993538  0.839090  0.628073  1
  V  V18  1  0.159761  0.006434  0.869470  1
  V  V19  1  0.841394  0.995354  0.373670  1
  Si  Si20  1  0.543368  0.792366  0.317953  1
  Si  Si21  1  0.465244  0.207785  0.809287  1
  Si  Si22  1  0.789352  0.538480  0.685955  1
  Si  Si23  1  0.207275  0.458634  0.188303  1
  Si  Si24  1  0.708549  0.037656  0.562971  1
  Si  Si25  1  0.955326  0.288951  0.933275  1
  Si  Si26  1  0.036096  0.709140  0.441188  1
  Si  Si27  1  0.709932  0.374543  0.072412  1
  Si  Si28  1  0.127013  0.209682  0.324729  1
  Si  Si29  1  0.875097  0.793606  0.819978  1
  Si  Si30  1  0.205630  0.124485  0.677670  1
  Si  Si31  1  0.789309  0.874279  0.177830  1
  Si  Si32  1  0.295859  0.625857  0.570880  1
  Si  Si33  1  0.376245  0.708545  0.923832  1
  Si  Si34  1  0.624401  0.294215  0.429999  1
  Ge  Ge35  1  0.291197  0.960413  0.063059  1
