# generated using pymatgen
data_Y(Si2Rh3)2
_symmetry_space_group_name_H-M   'P 1'
_cell_length_a   7.02993400
_cell_length_b   7.02993449
_cell_length_c   3.79616000
_cell_angle_alpha   90.00000000
_cell_angle_beta   90.00000000
_cell_angle_gamma   119.99999768
_symmetry_Int_Tables_number   1
_chemical_formula_structural   Y(Si2Rh3)2
_chemical_formula_sum   'Y1 Si4 Rh6'
_cell_volume   162.47168194
_cell_formula_units_Z   1
loop_
 _symmetry_equiv_pos_site_id
 _symmetry_equiv_pos_as_xyz
  1  'x, y, z'
loop_
 _atom_site_type_symbol
 _atom_site_label
 _atom_site_symmetry_multiplicity
 _atom_site_fract_x
 _atom_site_fract_y
 _atom_site_fract_z
 _atom_site_occupancy
  Y  Y0  1  0.000000  0.000000  0.000000  1
  Si  Si1  1  0.799882  0.200118  0.500000  1
  Si  Si2  1  0.799882  0.599764  0.500000  1
  Si  Si3  1  0.400236  0.200118  0.500000  1
  Si  Si4  1  0.333333  0.666667  0.000000  1
  Rh  Rh5  1  0.533005  0.466995  0.000000  1
  Rh  Rh6  1  0.533005  0.066009  0.000000  1
  Rh  Rh7  1  0.933991  0.466995  0.000000  1
  Rh  Rh8  1  0.198030  0.801970  0.500000  1
  Rh  Rh9  1  0.198030  0.396061  0.500000  1
  Rh  Rh10  1  0.603939  0.801970  0.500000  1
