# generated using pymatgen
data_NaPr2Be2(AsPd5)4
_symmetry_space_group_name_H-M   'P 1'
_cell_length_a   8.85934665
_cell_length_b   8.74696599
_cell_length_c   8.74696672
_cell_angle_alpha   60.85186140
_cell_angle_beta   59.57407889
_cell_angle_gamma   59.57407936
_symmetry_Int_Tables_number   1
_chemical_formula_structural   NaPr2Be2(AsPd5)4
_chemical_formula_sum   'Na1 Pr2 Be2 As4 Pd20'
_cell_volume   479.13334642
_cell_formula_units_Z   1
loop_
 _symmetry_equiv_pos_site_id
 _symmetry_equiv_pos_as_xyz
  1  'x, y, z'
loop_
 _atom_site_type_symbol
 _atom_site_label
 _atom_site_symmetry_multiplicity
 _atom_site_fract_x
 _atom_site_fract_y
 _atom_site_fract_z
 _atom_site_occupancy
  Na  Na0  1  0.000000  0.000000  0.000000  1
  Pr  Pr1  1  0.250000  0.250000  0.250000  1
  Pr  Pr2  1  0.750000  0.750000  0.750000  1
  Be  Be3  1  0.730829  0.269171  0.269171  1
  Be  Be4  1  0.269171  0.730829  0.730829  1
  As  As5  1  0.263310  0.736690  0.263310  1
  As  As6  1  0.736690  0.263310  0.736690  1
  As  As7  1  0.263310  0.263310  0.736690  1
  As  As8  1  0.736690  0.736690  0.263310  1
  Pd  Pd9  1  0.393027  0.381130  0.381130  1
  Pd  Pd10  1  0.606973  0.618870  0.618870  1
  Pd  Pd11  1  0.381130  0.393027  0.844710  1
  Pd  Pd12  1  0.381130  0.844710  0.393027  1
  Pd  Pd13  1  0.618870  0.606973  0.155290  1
  Pd  Pd14  1  0.618870  0.155290  0.606973  1
  Pd  Pd15  1  0.844710  0.381130  0.381130  1
  Pd  Pd16  1  0.155290  0.618870  0.618870  1
  Pd  Pd17  1  0.347526  0.000000  0.000000  1
  Pd  Pd18  1  0.652474  0.000000  0.000000  1
  Pd  Pd19  1  0.000000  0.347526  0.652474  1
  Pd  Pd20  1  0.000000  0.652474  0.347526  1
  Pd  Pd21  1  0.987281  0.345433  0.012719  1
  Pd  Pd22  1  0.654567  0.012719  0.345433  1
  Pd  Pd23  1  0.012719  0.654567  0.987281  1
  Pd  Pd24  1  0.345433  0.987281  0.654567  1
  Pd  Pd25  1  0.987281  0.012719  0.345433  1
  Pd  Pd26  1  0.012719  0.987281  0.654567  1
  Pd  Pd27  1  0.654567  0.345433  0.012719  1
  Pd  Pd28  1  0.345433  0.654567  0.987281  1
