# generated using pymatgen
data_NdHoAlZnPt2
_symmetry_space_group_name_H-M   'P 1'
_cell_length_a   4.36563100
_cell_length_b   6.98319300
_cell_length_c   8.02783900
_cell_angle_alpha   90.00000000
_cell_angle_beta   90.00000000
_cell_angle_gamma   90.00000000
_symmetry_Int_Tables_number   1
_chemical_formula_structural   NdHoAlZnPt2
_chemical_formula_sum   'Nd2 Ho2 Al2 Zn2 Pt4'
_cell_volume   244.73705169
_cell_formula_units_Z   2
loop_
 _symmetry_equiv_pos_site_id
 _symmetry_equiv_pos_as_xyz
  1  'x, y, z'
loop_
 _atom_site_type_symbol
 _atom_site_label
 _atom_site_symmetry_multiplicity
 _atom_site_fract_x
 _atom_site_fract_y
 _atom_site_fract_z
 _atom_site_occupancy
  Nd  Nd0  1  0.750000  0.968145  0.320078  1
  Nd  Nd1  1  0.750000  0.468145  0.179922  1
  Ho  Ho2  1  0.250000  0.029274  0.690143  1
  Ho  Ho3  1  0.250000  0.529274  0.809857  1
  Al  Al4  1  0.750000  0.859434  0.935089  1
  Al  Al5  1  0.750000  0.359434  0.564911  1
  Zn  Zn6  1  0.250000  0.149822  0.063455  1
  Zn  Zn7  1  0.250000  0.649822  0.436545  1
  Pt  Pt8  1  0.250000  0.263966  0.400442  1
  Pt  Pt9  1  0.250000  0.763966  0.099558  1
  Pt  Pt10  1  0.750000  0.729358  0.631019  1
  Pt  Pt11  1  0.750000  0.229358  0.868981  1
