# generated using pymatgen
data_Nd5Tm3Sc12Si15Hg
_symmetry_space_group_name_H-M   'P 1'
_cell_length_a   7.19975806
_cell_length_b   7.45888355
_cell_length_c   14.21201798
_cell_angle_alpha   89.88505595
_cell_angle_beta   89.76368546
_cell_angle_gamma   90.22125750
_symmetry_Int_Tables_number   1
_chemical_formula_structural   Nd5Tm3Sc12Si15Hg
_chemical_formula_sum   'Nd5 Tm3 Sc12 Si15 Hg1'
_cell_volume   763.20227677
_cell_formula_units_Z   1
loop_
 _symmetry_equiv_pos_site_id
 _symmetry_equiv_pos_as_xyz
  1  'x, y, z'
loop_
 _atom_site_type_symbol
 _atom_site_label
 _atom_site_symmetry_multiplicity
 _atom_site_fract_x
 _atom_site_fract_y
 _atom_site_fract_z
 _atom_site_occupancy
  Nd  Nd0  1  0.011790  0.173122  0.098909  1
  Nd  Nd1  1  0.988826  0.827993  0.902532  1
  Nd  Nd2  1  0.489490  0.672657  0.904421  1
  Nd  Nd3  1  0.988347  0.832588  0.595249  1
  Nd  Nd4  1  0.510714  0.326831  0.097941  1
  Tm  Tm5  1  0.007943  0.173160  0.397026  1
  Tm  Tm6  1  0.510684  0.322018  0.398559  1
  Tm  Tm7  1  0.495880  0.681972  0.599337  1
  Sc  Sc8  1  0.162959  0.501165  0.752704  1
  Sc  Sc9  1  0.836658  0.498541  0.252162  1
  Sc  Sc10  1  0.337555  0.000254  0.251350  1
  Sc  Sc11  1  0.665072  0.999173  0.750363  1
  Sc  Sc12  1  0.342747  0.169168  0.627822  1
  Sc  Sc13  1  0.664341  0.823095  0.374171  1
  Sc  Sc14  1  0.168451  0.676675  0.372111  1
  Sc  Sc15  1  0.669426  0.825082  0.127145  1
  Sc  Sc16  1  0.824102  0.325350  0.623415  1
  Sc  Sc17  1  0.329999  0.174072  0.874877  1
  Sc  Sc18  1  0.829085  0.324459  0.875180  1
  Sc  Sc19  1  0.169450  0.675326  0.127280  1
  Si  Si20  1  0.036226  0.127754  0.749471  1
  Si  Si21  1  0.964448  0.880231  0.251606  1
  Si  Si22  1  0.465530  0.618504  0.251081  1
  Si  Si23  1  0.534678  0.382793  0.749648  1
  Si  Si24  1  0.289546  0.875460  0.748668  1
  Si  Si25  1  0.711277  0.124828  0.252906  1
  Si  Si26  1  0.211922  0.373942  0.252903  1
  Si  Si27  1  0.786810  0.622903  0.748657  1
  Si  Si28  1  0.830946  0.532415  0.457047  1
  Si  Si29  1  0.341687  0.965425  0.458557  1
  Si  Si30  1  0.847763  0.537825  0.039637  1
  Si  Si31  1  0.652910  0.038761  0.535578  1
  Si  Si32  1  0.151205  0.462540  0.962096  1
  Si  Si33  1  0.652740  0.037126  0.961530  1
  Si  Si34  1  0.347038  0.962293  0.040203  1
  Hg  Hg35  1  0.171754  0.454503  0.537858  1
