# generated using pymatgen
data_Yb2DyTmNi14
_symmetry_space_group_name_H-M   'P 1'
_cell_length_a   4.86997680
_cell_length_b   4.86997577
_cell_length_c   12.26932005
_cell_angle_alpha   78.55298362
_cell_angle_beta   78.55298821
_cell_angle_gamma   59.99998882
_symmetry_Int_Tables_number   1
_chemical_formula_structural   Yb2DyTmNi14
_chemical_formula_sum   'Yb2 Dy1 Tm1 Ni14'
_cell_volume   245.29613661
_cell_formula_units_Z   1
loop_
 _symmetry_equiv_pos_site_id
 _symmetry_equiv_pos_as_xyz
  1  'x, y, z'
loop_
 _atom_site_type_symbol
 _atom_site_label
 _atom_site_symmetry_multiplicity
 _atom_site_fract_x
 _atom_site_fract_y
 _atom_site_fract_z
 _atom_site_occupancy
  Yb  Yb0  1  0.851078  0.851078  0.446765  1
  Yb  Yb1  1  0.149010  0.149010  0.552971  1
  Dy  Dy2  1  0.052199  0.052199  0.843401  1
  Tm  Tm3  1  0.947771  0.947771  0.156689  1
  Ni  Ni4  1  0.500009  0.500009  0.499973  1
  Ni  Ni5  1  0.722207  0.722207  0.833378  1
  Ni  Ni6  1  0.277790  0.277790  0.166633  1
  Ni  Ni7  1  0.611496  0.611496  0.165513  1
  Ni  Ni8  1  0.388488  0.388488  0.834535  1
  Ni  Ni9  1  0.999820  0.499885  0.000409  1
  Ni  Ni10  1  0.499885  0.999820  0.000409  1
  Ni  Ni11  1  0.499885  0.499885  0.000409  1
  Ni  Ni12  1  0.389449  0.389449  0.330980  1
  Ni  Ni13  1  0.890122  0.389449  0.330980  1
  Ni  Ni14  1  0.389449  0.890122  0.330980  1
  Ni  Ni15  1  0.610720  0.610720  0.668658  1
  Ni  Ni16  1  0.109901  0.610720  0.668658  1
  Ni  Ni17  1  0.610720  0.109901  0.668658  1
