# generated using pymatgen
data_La3Cd2Sb3O14
_symmetry_space_group_name_H-M   'P 1'
_cell_length_a   7.52186841
_cell_length_b   7.52190004
_cell_length_c   7.52186137
_cell_angle_alpha   61.69264048
_cell_angle_beta   61.69230198
_cell_angle_gamma   61.69258137
_symmetry_Int_Tables_number   1
_chemical_formula_structural   La3Cd2Sb3O14
_chemical_formula_sum   'La3 Cd2 Sb3 O14'
_cell_volume   312.34621264
_cell_formula_units_Z   1
loop_
 _symmetry_equiv_pos_site_id
 _symmetry_equiv_pos_as_xyz
  1  'x, y, z'
loop_
 _atom_site_type_symbol
 _atom_site_label
 _atom_site_symmetry_multiplicity
 _atom_site_fract_x
 _atom_site_fract_y
 _atom_site_fract_z
 _atom_site_occupancy
  La  La0  1  0.000013  0.999983  0.499983  1
  La  La1  1  0.500010  0.999998  0.000013  1
  La  La2  1  0.499993  0.500007  0.500011  1
  Cd  Cd3  1  0.999997  0.500003  0.999997  1
  Cd  Cd4  1  0.499998  0.999975  0.500025  1
  Sb  Sb5  1  0.499998  0.500002  0.000000  1
  Sb  Sb6  1  0.000001  0.500000  0.499998  1
  Sb  Sb7  1  0.000000  0.000003  0.999998  1
  O  O8  1  0.618848  0.118852  0.618852  1
  O  O9  1  0.381152  0.881151  0.381146  1
  O  O10  1  0.080586  0.186697  0.686690  1
  O  O11  1  0.686688  0.186693  0.080580  1
  O  O12  1  0.686692  0.580588  0.686691  1
  O  O13  1  0.919413  0.813307  0.313307  1
  O  O14  1  0.313309  0.813310  0.919409  1
  O  O15  1  0.313304  0.419423  0.313304  1
  O  O16  1  0.631889  0.596579  0.096582  1
  O  O17  1  0.096578  0.596586  0.631889  1
  O  O18  1  0.096579  0.131888  0.096584  1
  O  O19  1  0.368111  0.403421  0.903418  1
  O  O20  1  0.903419  0.403419  0.368107  1
  O  O21  1  0.903419  0.868116  0.903415  1
