# generated using pymatgen
data_Ti6VTc5P6
_symmetry_space_group_name_H-M   'P 1'
_cell_length_a   7.36629221
_cell_length_b   7.35468363
_cell_length_c   7.35468276
_cell_angle_alpha   127.25356466
_cell_angle_beta   125.29041010
_cell_angle_gamma   79.41544338
_symmetry_Int_Tables_number   1
_chemical_formula_structural   Ti6VTc5P6
_chemical_formula_sum   'Ti6 V1 Tc5 P6'
_cell_volume   250.27608744
_cell_formula_units_Z   1
loop_
 _symmetry_equiv_pos_site_id
 _symmetry_equiv_pos_as_xyz
  1  'x, y, z'
loop_
 _atom_site_type_symbol
 _atom_site_label
 _atom_site_symmetry_multiplicity
 _atom_site_fract_x
 _atom_site_fract_y
 _atom_site_fract_z
 _atom_site_occupancy
  Ti  Ti0  1  0.458734  0.249086  0.291291  1
  Ti  Ti1  1  0.541266  0.832557  0.790352  1
  Ti  Ti2  1  0.742774  0.652976  0.403864  1
  Ti  Ti3  1  0.257226  0.661090  0.910201  1
  Ti  Ti4  1  0.055019  0.845335  0.292013  1
  Ti  Ti5  1  0.944981  0.236994  0.790315  1
  V  V6  1  0.500000  0.992642  0.492642  1
  Tc  Tc7  1  0.656352  0.502631  0.903376  1
  Tc  Tc8  1  0.343648  0.247026  0.846282  1
  Tc  Tc9  1  0.897425  0.244727  0.396454  1
  Tc  Tc10  1  0.102575  0.499029  0.347303  1
  Tc  Tc11  1  0.000000  0.990407  0.990407  1
  P  P12  1  0.833849  0.576122  0.745761  1
  P  P13  1  0.166151  0.911910  0.742273  1
  P  P14  1  0.668465  0.914156  0.250307  1
  P  P15  1  0.331535  0.581841  0.245691  1
  P  P16  1  0.270738  0.269511  0.503097  1
  P  P17  1  0.729262  0.232359  0.998774  1
