# generated using pymatgen
data_Sc2ZnGa3Cu2
_symmetry_space_group_name_H-M   'P 1'
_cell_length_a   5.27493145
_cell_length_b   5.27493197
_cell_length_c   6.35240400
_cell_angle_alpha   90.31047805
_cell_angle_beta   89.68952192
_cell_angle_gamma   133.34360484
_symmetry_Int_Tables_number   1
_chemical_formula_structural   Sc2ZnGa3Cu2
_chemical_formula_sum   'Sc2 Zn1 Ga3 Cu2'
_cell_volume   128.54296799
_cell_formula_units_Z   1
loop_
 _symmetry_equiv_pos_site_id
 _symmetry_equiv_pos_as_xyz
  1  'x, y, z'
loop_
 _atom_site_type_symbol
 _atom_site_label
 _atom_site_symmetry_multiplicity
 _atom_site_fract_x
 _atom_site_fract_y
 _atom_site_fract_z
 _atom_site_occupancy
  Sc  Sc0  1  0.915266  0.084732  0.250386  1
  Sc  Sc1  1  0.083714  0.916284  0.748921  1
  Zn  Zn2  1  0.629306  0.370692  0.050283  1
  Ga  Ga3  1  0.628890  0.371108  0.447958  1
  Ga  Ga4  1  0.372832  0.627166  0.549112  1
  Ga  Ga5  1  0.369693  0.630305  0.952561  1
  Cu  Cu6  1  0.203360  0.796638  0.254571  1
  Cu  Cu7  1  0.796931  0.203067  0.746205  1
