# generated using pymatgen
data_TbEr3(B10Ir)2
_symmetry_space_group_name_H-M   'P 1'
_cell_length_a   4.16747400
_cell_length_b   5.67450014
_cell_length_c   11.33077629
_cell_angle_alpha   90.02572776
_cell_angle_beta   90.00000000
_cell_angle_gamma   90.00000000
_symmetry_Int_Tables_number   1
_chemical_formula_structural   TbEr3(B10Ir)2
_chemical_formula_sum   'Tb1 Er3 B20 Ir2'
_cell_volume   267.95393024
_cell_formula_units_Z   1
loop_
 _symmetry_equiv_pos_site_id
 _symmetry_equiv_pos_as_xyz
  1  'x, y, z'
loop_
 _atom_site_type_symbol
 _atom_site_label
 _atom_site_symmetry_multiplicity
 _atom_site_fract_x
 _atom_site_fract_y
 _atom_site_fract_z
 _atom_site_occupancy
  Tb  Tb0  1  0.500000  0.705540  0.134650  1
  Er  Er1  1  0.500000  0.205486  0.365751  1
  Er  Er2  1  0.500000  0.794396  0.634278  1
  Er  Er3  1  0.500000  0.294320  0.865665  1
  B  B4  1  0.000000  0.381770  0.042329  1
  B  B5  1  0.000000  0.618587  0.957360  1
  B  B6  1  0.000000  0.118496  0.542393  1
  B  B7  1  0.000000  0.881652  0.457753  1
  B  B8  1  0.000000  0.364372  0.197109  1
  B  B9  1  0.000000  0.635556  0.802766  1
  B  B10  1  0.000000  0.135509  0.697020  1
  B  B11  1  0.000000  0.864430  0.303059  1
  B  B12  1  0.000000  0.056469  0.193289  1
  B  B13  1  0.000000  0.943559  0.806448  1
  B  B14  1  0.000000  0.443513  0.693318  1
  B  B15  1  0.000000  0.556250  0.306932  1
  B  B16  1  0.301645  0.220160  0.119523  1
  B  B17  1  0.698266  0.779147  0.880388  1
  B  B18  1  0.301734  0.779147  0.880388  1
  B  B19  1  0.698243  0.279080  0.619512  1
  B  B20  1  0.698355  0.220160  0.119523  1
  B  B21  1  0.301679  0.720815  0.380904  1
  B  B22  1  0.698321  0.720815  0.380904  1
  B  B23  1  0.301757  0.279080  0.619512  1
  Ir  Ir24  1  0.000000  0.001713  0.999049  1
  Ir  Ir25  1  0.000000  0.499979  0.500173  1
