# generated using pymatgen
data_Er3Fe8CoP6
_symmetry_space_group_name_H-M   'P 1'
_cell_length_a   3.70255700
_cell_length_b   10.47451300
_cell_length_c   12.17661900
_cell_angle_alpha   90.00000000
_cell_angle_beta   90.00000000
_cell_angle_gamma   90.00000000
_symmetry_Int_Tables_number   1
_chemical_formula_structural   Er3Fe8CoP6
_chemical_formula_sum   'Er6 Fe16 Co2 P12'
_cell_volume   472.23950024
_cell_formula_units_Z   2
loop_
 _symmetry_equiv_pos_site_id
 _symmetry_equiv_pos_as_xyz
  1  'x, y, z'
loop_
 _atom_site_type_symbol
 _atom_site_label
 _atom_site_symmetry_multiplicity
 _atom_site_fract_x
 _atom_site_fract_y
 _atom_site_fract_z
 _atom_site_occupancy
  Er  Er0  1  0.750000  0.250000  0.474593  1
  Er  Er1  1  0.250000  0.750000  0.525407  1
  Er  Er2  1  0.250000  0.930336  0.793143  1
  Er  Er3  1  0.250000  0.569664  0.793143  1
  Er  Er4  1  0.750000  0.069664  0.206857  1
  Er  Er5  1  0.750000  0.430336  0.206857  1
  Fe  Fe6  1  0.250000  0.250000  0.847162  1
  Fe  Fe7  1  0.750000  0.750000  0.152838  1
  Fe  Fe8  1  0.750000  0.250000  0.010978  1
  Fe  Fe9  1  0.250000  0.750000  0.989022  1
  Fe  Fe10  1  0.250000  0.422391  0.003686  1
  Fe  Fe11  1  0.250000  0.077609  0.003686  1
  Fe  Fe12  1  0.750000  0.577609  0.996314  1
  Fe  Fe13  1  0.750000  0.922391  0.996314  1
  Fe  Fe14  1  0.250000  0.451007  0.569935  1
  Fe  Fe15  1  0.250000  0.048993  0.569935  1
  Fe  Fe16  1  0.750000  0.548993  0.430065  1
  Fe  Fe17  1  0.750000  0.951007  0.430065  1
  Fe  Fe18  1  0.250000  0.867824  0.291453  1
  Fe  Fe19  1  0.250000  0.632176  0.291453  1
  Fe  Fe20  1  0.750000  0.132176  0.708547  1
  Fe  Fe21  1  0.750000  0.367824  0.708547  1
  Co  Co22  1  0.250000  0.250000  0.300050  1
  Co  Co23  1  0.750000  0.750000  0.699950  1
  P  P24  1  0.250000  0.250000  0.116454  1
  P  P25  1  0.750000  0.750000  0.883546  1
  P  P26  1  0.250000  0.250000  0.658833  1
  P  P27  1  0.750000  0.750000  0.341167  1
  P  P28  1  0.250000  0.443114  0.385575  1
  P  P29  1  0.250000  0.056886  0.385575  1
  P  P30  1  0.750000  0.556886  0.614425  1
  P  P31  1  0.750000  0.943114  0.614425  1
  P  P32  1  0.250000  0.899186  0.111984  1
  P  P33  1  0.250000  0.600814  0.111984  1
  P  P34  1  0.750000  0.100814  0.888016  1
  P  P35  1  0.750000  0.399186  0.888016  1
