# generated using pymatgen
data_Ti10CuSi(SnSb)3
_symmetry_space_group_name_H-M   'P 1'
_cell_length_a   8.21585300
_cell_length_b   8.21585426
_cell_length_c   5.50982900
_cell_angle_alpha   90.00000000
_cell_angle_beta   90.00000000
_cell_angle_gamma   120.00000701
_symmetry_Int_Tables_number   1
_chemical_formula_structural   Ti10CuSi(SnSb)3
_chemical_formula_sum   'Ti10 Cu1 Si1 Sn3 Sb3'
_cell_volume   322.08767650
_cell_formula_units_Z   1
loop_
 _symmetry_equiv_pos_site_id
 _symmetry_equiv_pos_as_xyz
  1  'x, y, z'
loop_
 _atom_site_type_symbol
 _atom_site_label
 _atom_site_symmetry_multiplicity
 _atom_site_fract_x
 _atom_site_fract_y
 _atom_site_fract_z
 _atom_site_occupancy
  Ti  Ti0  1  0.666667  0.333333  0.498565  1
  Ti  Ti1  1  0.333333  0.666667  0.498565  1
  Ti  Ti2  1  0.333333  0.666667  0.001578  1
  Ti  Ti3  1  0.666667  0.333333  0.001578  1
  Ti  Ti4  1  0.732337  0.732337  0.244226  1
  Ti  Ti5  1  0.267663  0.000000  0.244226  1
  Ti  Ti6  1  0.000000  0.267663  0.244226  1
  Ti  Ti7  1  0.260075  0.260075  0.756526  1
  Ti  Ti8  1  0.739925  0.000000  0.756526  1
  Ti  Ti9  1  0.000000  0.739925  0.756526  1
  Cu  Cu10  1  0.000000  0.000000  0.487773  1
  Si  Si11  1  0.000000  0.000000  0.009582  1
  Sn  Sn12  1  0.385247  0.385247  0.254034  1
  Sn  Sn13  1  0.614753  0.000000  0.254034  1
  Sn  Sn14  1  0.000000  0.614753  0.254034  1
  Sb  Sb15  1  0.608852  0.608852  0.746000  1
  Sb  Sb16  1  0.391148  0.000000  0.746000  1
  Sb  Sb17  1  0.000000  0.391148  0.746000  1
