# generated using pymatgen
data_Li6Al5AsRh12
_symmetry_space_group_name_H-M   'P 1'
_cell_length_a   4.18297800
_cell_length_b   5.95291300
_cell_length_c   12.57694401
_cell_angle_alpha   90.00028556
_cell_angle_beta   89.99624199
_cell_angle_gamma   89.99764373
_symmetry_Int_Tables_number   1
_chemical_formula_structural   Li6Al5AsRh12
_chemical_formula_sum   'Li6 Al5 As1 Rh12'
_cell_volume   313.17727613
_cell_formula_units_Z   1
loop_
 _symmetry_equiv_pos_site_id
 _symmetry_equiv_pos_as_xyz
  1  'x, y, z'
loop_
 _atom_site_type_symbol
 _atom_site_label
 _atom_site_symmetry_multiplicity
 _atom_site_fract_x
 _atom_site_fract_y
 _atom_site_fract_z
 _atom_site_occupancy
  Li  Li0  1  0.999995  0.999916  0.001380  1
  Li  Li1  1  0.499542  0.499979  0.166743  1
  Li  Li2  1  0.999552  0.000096  0.333334  1
  Li  Li3  1  0.499973  0.499947  0.499919  1
  Li  Li4  1  0.000537  0.999942  0.665276  1
  Li  Li5  1  0.500422  0.500097  0.833327  1
  Al  Al6  1  0.000025  0.500013  0.000513  1
  Al  Al7  1  0.499496  0.000032  0.166386  1
  Al  Al8  1  0.999473  0.499923  0.333326  1
  Al  Al9  1  0.499986  0.000056  0.500243  1
  Al  Al10  1  0.000477  0.500006  0.666150  1
  As  As11  1  0.500530  0.000022  0.833354  1
  Rh  Rh12  1  0.500041  0.249435  0.997907  1
  Rh  Rh13  1  0.500031  0.750546  0.997895  1
  Rh  Rh14  1  0.999576  0.249203  0.166050  1
  Rh  Rh15  1  0.999571  0.750786  0.166057  1
  Rh  Rh16  1  0.499595  0.250916  0.333323  1
  Rh  Rh17  1  0.499558  0.749081  0.333346  1
  Rh  Rh18  1  0.999990  0.249210  0.500584  1
  Rh  Rh19  1  0.999982  0.750789  0.500555  1
  Rh  Rh20  1  0.500439  0.249378  0.668835  1
  Rh  Rh21  1  0.500424  0.750623  0.668841  1
  Rh  Rh22  1  0.000393  0.247404  0.833328  1
  Rh  Rh23  1  0.000394  0.752605  0.833325  1
