# generated using pymatgen
data_Pr4MgPb4
_symmetry_space_group_name_H-M   'P 1'
_cell_length_a   8.04931600
_cell_length_b   16.27410000
_cell_length_c   8.63191400
_cell_angle_alpha   90.00000000
_cell_angle_beta   90.00000000
_cell_angle_gamma   90.00000000
_symmetry_Int_Tables_number   1
_chemical_formula_structural   Pr4MgPb4
_chemical_formula_sum   'Pr16 Mg4 Pb16'
_cell_volume   1130.74079858
_cell_formula_units_Z   4
loop_
 _symmetry_equiv_pos_site_id
 _symmetry_equiv_pos_as_xyz
  1  'x, y, z'
loop_
 _atom_site_type_symbol
 _atom_site_label
 _atom_site_symmetry_multiplicity
 _atom_site_fract_x
 _atom_site_fract_y
 _atom_site_fract_z
 _atom_site_occupancy
  Pr  Pr0  1  0.658942  0.629033  0.167668  1
  Pr  Pr1  1  0.158942  0.870967  0.332332  1
  Pr  Pr2  1  0.341058  0.129033  0.832332  1
  Pr  Pr3  1  0.841058  0.370967  0.667668  1
  Pr  Pr4  1  0.341058  0.370967  0.832332  1
  Pr  Pr5  1  0.841058  0.129033  0.667668  1
  Pr  Pr6  1  0.658942  0.870967  0.167668  1
  Pr  Pr7  1  0.158942  0.629033  0.332332  1
  Pr  Pr8  1  0.495724  0.593704  0.686160  1
  Pr  Pr9  1  0.995724  0.906296  0.813840  1
  Pr  Pr10  1  0.504276  0.093704  0.313840  1
  Pr  Pr11  1  0.004276  0.406296  0.186160  1
  Pr  Pr12  1  0.504276  0.406296  0.313840  1
  Pr  Pr13  1  0.004276  0.093704  0.186160  1
  Pr  Pr14  1  0.495724  0.906296  0.686160  1
  Pr  Pr15  1  0.995724  0.593704  0.813840  1
  Mg  Mg16  1  0.831395  0.750000  0.506094  1
  Mg  Mg17  1  0.331395  0.750000  0.993906  1
  Mg  Mg18  1  0.168605  0.250000  0.493906  1
  Mg  Mg19  1  0.668605  0.250000  0.006094  1
  Pb  Pb20  1  0.687447  0.460472  0.962427  1
  Pb  Pb21  1  0.187447  0.039528  0.537573  1
  Pb  Pb22  1  0.312553  0.960472  0.037573  1
  Pb  Pb23  1  0.812553  0.539528  0.462427  1
  Pb  Pb24  1  0.312553  0.539528  0.037573  1
  Pb  Pb25  1  0.812553  0.960472  0.462427  1
  Pb  Pb26  1  0.687447  0.039528  0.962427  1
  Pb  Pb27  1  0.187447  0.460472  0.537573  1
  Pb  Pb28  1  0.475731  0.750000  0.408637  1
  Pb  Pb29  1  0.975731  0.750000  0.091363  1
  Pb  Pb30  1  0.524269  0.250000  0.591363  1
  Pb  Pb31  1  0.024269  0.250000  0.908637  1
  Pb  Pb32  1  0.689905  0.750000  0.842554  1
  Pb  Pb33  1  0.189905  0.750000  0.657446  1
  Pb  Pb34  1  0.310095  0.250000  0.157446  1
  Pb  Pb35  1  0.810095  0.250000  0.342554  1
