# generated using pymatgen
data_Er2Sc3Mn3(Co4P3)4
_symmetry_space_group_name_H-M   'P 1'
_cell_length_a   11.91435900
_cell_length_b   11.91435963
_cell_length_c   3.61183800
_cell_angle_alpha   90.00000000
_cell_angle_beta   90.00000000
_cell_angle_gamma   120.00000103
_symmetry_Int_Tables_number   1
_chemical_formula_structural   Er2Sc3Mn3(Co4P3)4
_chemical_formula_sum   'Er2 Sc3 Mn3 Co16 P12'
_cell_volume   444.01769393
_cell_formula_units_Z   1
loop_
 _symmetry_equiv_pos_site_id
 _symmetry_equiv_pos_as_xyz
  1  'x, y, z'
loop_
 _atom_site_type_symbol
 _atom_site_label
 _atom_site_symmetry_multiplicity
 _atom_site_fract_x
 _atom_site_fract_y
 _atom_site_fract_z
 _atom_site_occupancy
  Er  Er0  1  0.333333  0.666667  0.000000  1
  Er  Er1  1  0.666667  0.333333  0.000000  1
  Sc  Sc2  1  0.815693  0.000000  0.500000  1
  Sc  Sc3  1  0.000000  0.815693  0.500000  1
  Sc  Sc4  1  0.184307  0.184307  0.500000  1
  Mn  Mn5  1  0.448145  0.000000  0.000000  1
  Mn  Mn6  1  0.000000  0.448145  0.000000  1
  Mn  Mn7  1  0.551855  0.551855  0.000000  1
  Co  Co8  1  0.279745  0.000000  0.500000  1
  Co  Co9  1  0.000000  0.279745  0.500000  1
  Co  Co10  1  0.720255  0.720255  0.500000  1
  Co  Co11  1  0.626852  0.803243  0.000000  1
  Co  Co12  1  0.196757  0.823610  0.000000  1
  Co  Co13  1  0.176390  0.373148  0.000000  1
  Co  Co14  1  0.373148  0.176390  0.000000  1
  Co  Co15  1  0.803243  0.626852  0.000000  1
  Co  Co16  1  0.823610  0.196757  0.000000  1
  Co  Co17  1  0.519282  0.873725  0.500000  1
  Co  Co18  1  0.126275  0.645557  0.500000  1
  Co  Co19  1  0.354443  0.480718  0.500000  1
  Co  Co20  1  0.480718  0.354443  0.500000  1
  Co  Co21  1  0.873725  0.519282  0.500000  1
  Co  Co22  1  0.645557  0.126275  0.500000  1
  Co  Co23  1  0.000000  0.000000  0.000000  1
  P  P24  1  0.176519  0.000000  0.000000  1
  P  P25  1  0.000000  0.176519  0.000000  1
  P  P26  1  0.823481  0.823481  0.000000  1
  P  P27  1  0.520356  0.683062  0.500000  1
  P  P28  1  0.316938  0.837294  0.500000  1
  P  P29  1  0.162706  0.479644  0.500000  1
  P  P30  1  0.479644  0.162706  0.500000  1
  P  P31  1  0.683062  0.520356  0.500000  1
  P  P32  1  0.837294  0.316938  0.500000  1
  P  P33  1  0.640686  0.000000  0.000000  1
  P  P34  1  0.000000  0.640686  0.000000  1
  P  P35  1  0.359314  0.359314  0.000000  1
