# generated using pymatgen
data_Tb4Pr4Sc12Si15Au
_symmetry_space_group_name_H-M   'P 1'
_cell_length_a   7.21763873
_cell_length_b   7.46388002
_cell_length_c   14.21632364
_cell_angle_alpha   89.99875849
_cell_angle_beta   89.77053978
_cell_angle_gamma   90.30010775
_symmetry_Int_Tables_number   1
_chemical_formula_structural   Tb4Pr4Sc12Si15Au
_chemical_formula_sum   'Tb4 Pr4 Sc12 Si15 Au1'
_cell_volume   765.83930353
_cell_formula_units_Z   1
loop_
 _symmetry_equiv_pos_site_id
 _symmetry_equiv_pos_as_xyz
  1  'x, y, z'
loop_
 _atom_site_type_symbol
 _atom_site_label
 _atom_site_symmetry_multiplicity
 _atom_site_fract_x
 _atom_site_fract_y
 _atom_site_fract_z
 _atom_site_occupancy
  Tb  Tb0  1  0.511975  0.324377  0.099069  1
  Tb  Tb1  1  0.010541  0.175702  0.398028  1
  Tb  Tb2  1  0.510376  0.324445  0.400284  1
  Tb  Tb3  1  0.490953  0.675829  0.598798  1
  Pr  Pr4  1  0.011787  0.172887  0.098500  1
  Pr  Pr5  1  0.987570  0.828642  0.903706  1
  Pr  Pr6  1  0.488337  0.672764  0.905043  1
  Pr  Pr7  1  0.988577  0.830308  0.595491  1
  Sc  Sc8  1  0.162655  0.498903  0.750319  1
  Sc  Sc9  1  0.837467  0.499187  0.251346  1
  Sc  Sc10  1  0.338971  0.998902  0.249927  1
  Sc  Sc11  1  0.663874  0.999653  0.750575  1
  Sc  Sc12  1  0.339425  0.176848  0.625103  1
  Sc  Sc13  1  0.666272  0.823071  0.373556  1
  Sc  Sc14  1  0.169770  0.671487  0.373450  1
  Sc  Sc15  1  0.670193  0.824332  0.126712  1
  Sc  Sc16  1  0.827128  0.325871  0.623615  1
  Sc  Sc17  1  0.329970  0.175773  0.875473  1
  Sc  Sc18  1  0.828962  0.323984  0.875667  1
  Sc  Sc19  1  0.170113  0.674714  0.126132  1
  Si  Si20  1  0.036824  0.127298  0.750073  1
  Si  Si21  1  0.966139  0.878415  0.251408  1
  Si  Si22  1  0.466661  0.617067  0.248953  1
  Si  Si23  1  0.536460  0.380051  0.750757  1
  Si  Si24  1  0.288994  0.880745  0.748658  1
  Si  Si25  1  0.709305  0.125016  0.251031  1
  Si  Si26  1  0.216436  0.375463  0.249985  1
  Si  Si27  1  0.786073  0.619558  0.750011  1
  Si  Si28  1  0.835250  0.533860  0.457304  1
  Si  Si29  1  0.344074  0.963834  0.459103  1
  Si  Si30  1  0.843738  0.535404  0.040692  1
  Si  Si31  1  0.651228  0.038200  0.536243  1
  Si  Si32  1  0.150930  0.461972  0.962060  1
  Si  Si33  1  0.650840  0.041412  0.962745  1
  Si  Si34  1  0.349515  0.966096  0.041075  1
  Au  Au35  1  0.162613  0.457929  0.539108  1
