# generated using pymatgen
data_Nd5ZrIrO12
_symmetry_space_group_name_H-M   'P 1'
_cell_length_a   7.11468884
_cell_length_b   7.11468913
_cell_length_c   7.74641444
_cell_angle_alpha   74.22252558
_cell_angle_beta   74.22253173
_cell_angle_gamma   50.59838776
_symmetry_Int_Tables_number   1
_chemical_formula_structural   Nd5ZrIrO12
_chemical_formula_sum   'Nd5 Zr1 Ir1 O12'
_cell_volume   288.96543941
_cell_formula_units_Z   1
loop_
 _symmetry_equiv_pos_site_id
 _symmetry_equiv_pos_as_xyz
  1  'x, y, z'
loop_
 _atom_site_type_symbol
 _atom_site_label
 _atom_site_symmetry_multiplicity
 _atom_site_fract_x
 _atom_site_fract_y
 _atom_site_fract_z
 _atom_site_occupancy
  Nd  Nd0  1  0.302547  0.305831  0.360380  1
  Nd  Nd1  1  0.694169  0.697453  0.639620  1
  Nd  Nd2  1  0.682052  0.699559  0.171429  1
  Nd  Nd3  1  0.300441  0.317948  0.828571  1
  Nd  Nd4  1  0.005844  0.994156  0.500000  1
  Zr  Zr5  1  0.782307  0.217693  0.000000  1
  Ir  Ir6  1  0.250493  0.749507  0.000000  1
  O  O7  1  0.092743  0.596898  0.574053  1
  O  O8  1  0.020685  0.979084  0.192629  1
  O  O9  1  0.403102  0.907257  0.425947  1
  O  O10  1  0.494701  0.506243  0.180505  1
  O  O11  1  0.096155  0.589499  0.080996  1
  O  O12  1  0.901806  0.409358  0.420585  1
  O  O13  1  0.020916  0.979315  0.807371  1
  O  O14  1  0.590642  0.098193  0.579415  1
  O  O15  1  0.493757  0.505299  0.819495  1
  O  O16  1  0.560840  0.103704  0.081869  1
  O  O17  1  0.410501  0.903845  0.919004  1
  O  O18  1  0.896296  0.439160  0.918131  1
