# generated using pymatgen
data_Tb2Al3(Ga2Ir)3
_symmetry_space_group_name_H-M   'P 1'
_cell_length_a   7.57489011
_cell_length_b   7.57325413
_cell_length_c   9.54587906
_cell_angle_alpha   90.16527373
_cell_angle_beta   89.93557265
_cell_angle_gamma   119.69803487
_symmetry_Int_Tables_number   1
_chemical_formula_structural   Tb2Al3(Ga2Ir)3
_chemical_formula_sum   'Tb4 Al6 Ga12 Ir6'
_cell_volume   475.68235231
_cell_formula_units_Z   2
loop_
 _symmetry_equiv_pos_site_id
 _symmetry_equiv_pos_as_xyz
  1  'x, y, z'
loop_
 _atom_site_type_symbol
 _atom_site_label
 _atom_site_symmetry_multiplicity
 _atom_site_fract_x
 _atom_site_fract_y
 _atom_site_fract_z
 _atom_site_occupancy
  Tb  Tb0  1  0.998916  0.667115  0.251237  1
  Tb  Tb1  1  0.001084  0.332885  0.748763  1
  Tb  Tb2  1  0.671330  0.000659  0.254965  1
  Tb  Tb3  1  0.328670  0.999341  0.745035  1
  Al  Al4  1  0.664150  0.997632  0.928340  1
  Al  Al5  1  0.335850  0.002368  0.071660  1
  Al  Al6  1  0.332578  0.332640  0.552515  1
  Al  Al7  1  0.667422  0.667360  0.447485  1
  Al  Al8  1  0.667947  0.667356  0.053953  1
  Al  Al9  1  0.332053  0.332644  0.946047  1
  Ga  Ga10  1  0.128221  0.125034  0.249274  1
  Ga  Ga11  1  0.871779  0.874966  0.750726  1
  Ga  Ga12  1  0.998509  0.333204  0.077803  1
  Ga  Ga13  1  0.001491  0.666796  0.922197  1
  Ga  Ga14  1  0.998112  0.664604  0.579559  1
  Ga  Ga15  1  0.335034  0.000413  0.418085  1
  Ga  Ga16  1  0.001888  0.335396  0.420441  1
  Ga  Ga17  1  0.664966  0.999587  0.581915  1
  Ga  Ga18  1  0.345427  0.549964  0.249902  1
  Ga  Ga19  1  0.654573  0.450036  0.750098  1
  Ga  Ga20  1  0.547737  0.344215  0.249109  1
  Ga  Ga21  1  0.452263  0.655785  0.750891  1
  Ir  Ir22  1  0.667096  0.326078  0.999159  1
  Ir  Ir23  1  0.332904  0.673922  0.000841  1
  Ir  Ir24  1  0.330504  0.669308  0.500607  1
  Ir  Ir25  1  0.669496  0.330692  0.499393  1
  Ir  Ir26  1  0.000000  0.000000  0.000000  1
  Ir  Ir27  1  0.000000  0.000000  0.500000  1
