# generated using pymatgen
data_NdEr2Th(AsPt)4
_symmetry_space_group_name_H-M   'P 1'
_cell_length_a   4.30219500
_cell_length_b   4.30219461
_cell_length_c   15.70222500
_cell_angle_alpha   90.00000000
_cell_angle_beta   90.00000000
_cell_angle_gamma   119.99999531
_symmetry_Int_Tables_number   1
_chemical_formula_structural   NdEr2Th(AsPt)4
_chemical_formula_sum   'Nd1 Er2 Th1 As4 Pt4'
_cell_volume   251.69349498
_cell_formula_units_Z   1
loop_
 _symmetry_equiv_pos_site_id
 _symmetry_equiv_pos_as_xyz
  1  'x, y, z'
loop_
 _atom_site_type_symbol
 _atom_site_label
 _atom_site_symmetry_multiplicity
 _atom_site_fract_x
 _atom_site_fract_y
 _atom_site_fract_z
 _atom_site_occupancy
  Nd  Nd0  1  0.000000  0.000000  0.500000  1
  Er  Er1  1  0.000000  0.000000  0.252453  1
  Er  Er2  1  0.000000  0.000000  0.747547  1
  Th  Th3  1  0.000000  0.000000  0.000000  1
  As  As4  1  0.333333  0.666667  0.882713  1
  As  As5  1  0.666667  0.333333  0.117287  1
  As  As6  1  0.666667  0.333333  0.381721  1
  As  As7  1  0.333333  0.666667  0.618279  1
  Pt  Pt8  1  0.333333  0.666667  0.354617  1
  Pt  Pt9  1  0.666667  0.333333  0.645383  1
  Pt  Pt10  1  0.666667  0.333333  0.857871  1
  Pt  Pt11  1  0.333333  0.666667  0.142129  1
