# generated using pymatgen
data_Yb2Cd(SiO3)3
_symmetry_space_group_name_H-M   'P 1'
_cell_length_a   7.09570554
_cell_length_b   7.32724951
_cell_length_c   7.88698098
_cell_angle_alpha   76.46771332
_cell_angle_beta   84.67697220
_cell_angle_gamma   90.00458298
_symmetry_Int_Tables_number   1
_chemical_formula_structural   Yb2Cd(SiO3)3
_chemical_formula_sum   'Yb4 Cd2 Si6 O18'
_cell_volume   396.85611167
_cell_formula_units_Z   2
loop_
 _symmetry_equiv_pos_site_id
 _symmetry_equiv_pos_as_xyz
  1  'x, y, z'
loop_
 _atom_site_type_symbol
 _atom_site_label
 _atom_site_symmetry_multiplicity
 _atom_site_fract_x
 _atom_site_fract_y
 _atom_site_fract_z
 _atom_site_occupancy
  Yb  Yb0  1  0.529732  0.752605  0.489372  1
  Yb  Yb1  1  0.467914  0.248209  0.507555  1
  Yb  Yb2  1  0.760216  0.424546  0.794787  1
  Yb  Yb3  1  0.760713  0.927638  0.794733  1
  Cd  Cd4  1  0.244185  0.072454  0.204449  1
  Cd  Cd5  1  0.244806  0.576731  0.200360  1
  Si  Si6  1  0.729229  0.048310  0.181239  1
  Si  Si7  1  0.728442  0.609926  0.181826  1
  Si  Si8  1  0.942834  0.274888  0.397412  1
  Si  Si9  1  0.055171  0.725025  0.602814  1
  Si  Si10  1  0.271741  0.390444  0.815318  1
  Si  Si11  1  0.270790  0.952455  0.817111  1
  O  O12  1  0.268096  0.372693  0.022857  1
  O  O13  1  0.264487  0.867891  0.027034  1
  O  O14  1  0.762533  0.820021  0.218947  1
  O  O15  1  0.908376  0.126939  0.268643  1
  O  O16  1  0.907679  0.488761  0.271999  1
  O  O17  1  0.536481  0.067755  0.305477  1
  O  O18  1  0.535301  0.530030  0.307133  1
  O  O19  1  0.170791  0.271729  0.407844  1
  O  O20  1  0.204449  0.770069  0.429023  1
  O  O21  1  0.795917  0.228697  0.573237  1
  O  O22  1  0.827464  0.728050  0.596800  1
  O  O23  1  0.466514  0.469071  0.694080  1
  O  O24  1  0.466030  0.931432  0.698346  1
  O  O25  1  0.090071  0.511235  0.729106  1
  O  O26  1  0.089809  0.871968  0.733217  1
  O  O27  1  0.235378  0.180230  0.779025  1
  O  O28  1  0.733405  0.135195  0.974182  1
  O  O29  1  0.731455  0.625002  0.976073  1
