# generated using pymatgen
data_Hf2Mn2Co10P7
_symmetry_space_group_name_H-M   'P 1'
_cell_length_a   8.92623202
_cell_length_b   8.91273217
_cell_length_c   3.56024200
_cell_angle_alpha   90.00000000
_cell_angle_beta   90.00000000
_cell_angle_gamma   120.01259541
_symmetry_Int_Tables_number   1
_chemical_formula_structural   Hf2Mn2Co10P7
_chemical_formula_sum   'Hf2 Mn2 Co10 P7'
_cell_volume   245.26413361
_cell_formula_units_Z   1
loop_
 _symmetry_equiv_pos_site_id
 _symmetry_equiv_pos_as_xyz
  1  'x, y, z'
loop_
 _atom_site_type_symbol
 _atom_site_label
 _atom_site_symmetry_multiplicity
 _atom_site_fract_x
 _atom_site_fract_y
 _atom_site_fract_z
 _atom_site_occupancy
  Hf  Hf0  1  0.999744  0.998965  0.000000  1
  Hf  Hf1  1  0.666653  0.332727  0.500000  1
  Mn  Mn2  1  0.430777  0.887532  0.500000  1
  Mn  Mn3  1  0.110172  0.539334  0.500000  1
  Co  Co4  1  0.703562  0.602241  0.000000  1
  Co  Co5  1  0.399901  0.103872  0.000000  1
  Co  Co6  1  0.897598  0.295984  0.000000  1
  Co  Co7  1  0.215908  0.386911  0.000000  1
  Co  Co8  1  0.611036  0.825479  0.000000  1
  Co  Co9  1  0.170274  0.785509  0.000000  1
  Co  Co10  1  0.281361  0.226772  0.500000  1
  Co  Co11  1  0.774652  0.054230  0.500000  1
  Co  Co12  1  0.944157  0.719370  0.500000  1
  Co  Co13  1  0.462857  0.574130  0.500000  1
  P  P14  1  0.450557  0.370835  0.000000  1
  P  P15  1  0.631278  0.081397  0.000000  1
  P  P16  1  0.918849  0.548889  0.000000  1
  P  P17  1  0.045845  0.259058  0.500000  1
  P  P18  1  0.740809  0.786795  0.500000  1
  P  P19  1  0.213065  0.955111  0.500000  1
  P  P20  1  0.330944  0.664860  0.000000  1
