# generated using pymatgen
data_NdTh3Al11Ga7Ir6
_symmetry_space_group_name_H-M   'P 1'
_cell_length_a   7.65579285
_cell_length_b   7.65217234
_cell_length_c   9.58152725
_cell_angle_alpha   90.10169768
_cell_angle_beta   89.84266038
_cell_angle_gamma   119.64641327
_symmetry_Int_Tables_number   1
_chemical_formula_structural   NdTh3Al11Ga7Ir6
_chemical_formula_sum   'Nd1 Th3 Al11 Ga7 Ir6'
_cell_volume   487.83727328
_cell_formula_units_Z   1
loop_
 _symmetry_equiv_pos_site_id
 _symmetry_equiv_pos_as_xyz
  1  'x, y, z'
loop_
 _atom_site_type_symbol
 _atom_site_label
 _atom_site_symmetry_multiplicity
 _atom_site_fract_x
 _atom_site_fract_y
 _atom_site_fract_z
 _atom_site_occupancy
  Nd  Nd0  1  0.328063  0.003163  0.751137  1
  Th  Th1  1  0.998356  0.671432  0.244351  1
  Th  Th2  1  0.004318  0.332012  0.755923  1
  Th  Th3  1  0.670906  0.994135  0.248270  1
  Al  Al4  1  0.997602  0.667420  0.570754  1
  Al  Al5  1  0.335352  0.003666  0.429777  1
  Al  Al6  1  0.004022  0.335439  0.429791  1
  Al  Al7  1  0.662757  0.997116  0.573587  1
  Al  Al8  1  0.660336  0.993673  0.924828  1
  Al  Al9  1  0.337344  0.006855  0.071361  1
  Al  Al10  1  0.335170  0.333476  0.552077  1
  Al  Al11  1  0.664155  0.663569  0.448103  1
  Al  Al12  1  0.663661  0.662348  0.049913  1
  Al  Al13  1  0.335858  0.334279  0.949632  1
  Al  Al14  1  0.544817  0.340397  0.250344  1
  Ga  Ga15  1  0.137791  0.134161  0.250927  1
  Ga  Ga16  1  0.867454  0.869596  0.749098  1
  Ga  Ga17  1  0.002460  0.333638  0.080596  1
  Ga  Ga18  1  0.000095  0.669934  0.919039  1
  Ga  Ga19  1  0.343595  0.543473  0.251116  1
  Ga  Ga20  1  0.654847  0.450415  0.749022  1
  Ga  Ga21  1  0.455380  0.658794  0.749626  1
  Ir  Ir22  1  0.668369  0.327760  0.003264  1
  Ir  Ir23  1  0.332448  0.673343  0.002411  1
  Ir  Ir24  1  0.327015  0.670707  0.499403  1
  Ir  Ir25  1  0.673493  0.330178  0.495490  1
  Ir  Ir26  1  0.997092  0.999364  0.001975  1
  Ir  Ir27  1  0.997245  0.999656  0.498187  1
