# generated using pymatgen
data_Hf8FeSi16Ru11
_symmetry_space_group_name_H-M   'P 1'
_cell_length_a   9.86800478
_cell_length_b   9.87597607
_cell_length_c   13.28618400
_cell_angle_alpha   54.17553302
_cell_angle_beta   54.18717140
_cell_angle_gamma   31.34411712
_symmetry_Int_Tables_number   1
_chemical_formula_structural   Hf8FeSi16Ru11
_chemical_formula_sum   'Hf8 Fe1 Si16 Ru11'
_cell_volume   534.83877460
_cell_formula_units_Z   1
loop_
 _symmetry_equiv_pos_site_id
 _symmetry_equiv_pos_as_xyz
  1  'x, y, z'
loop_
 _atom_site_type_symbol
 _atom_site_label
 _atom_site_symmetry_multiplicity
 _atom_site_fract_x
 _atom_site_fract_y
 _atom_site_fract_z
 _atom_site_occupancy
  Hf  Hf0  1  0.035256  0.298146  0.638794  1
  Hf  Hf1  1  0.706547  0.969024  0.857083  1
  Hf  Hf2  1  0.956210  0.703730  0.365899  1
  Hf  Hf3  1  0.294363  0.036709  0.138086  1
  Hf  Hf4  1  0.299270  0.558829  0.647223  1
  Hf  Hf5  1  0.442080  0.704245  0.848269  1
  Hf  Hf6  1  0.704983  0.436151  0.358174  1
  Hf  Hf7  1  0.555145  0.293502  0.148313  1
  Fe  Fe8  1  0.936338  0.106733  0.581169  1
  Si  Si9  1  0.974012  0.253644  0.892089  1
  Si  Si10  1  0.747837  0.040096  0.602211  1
  Si  Si11  1  0.026130  0.743163  0.106211  1
  Si  Si12  1  0.252547  0.971759  0.397930  1
  Si  Si13  1  0.142900  0.391466  0.895052  1
  Si  Si14  1  0.612915  0.862490  0.603993  1
  Si  Si15  1  0.857460  0.609123  0.106051  1
  Si  Si16  1  0.383567  0.145588  0.395892  1
  Si  Si17  1  0.082313  0.576822  0.566611  1
  Si  Si18  1  0.428939  0.915278  0.934096  1
  Si  Si19  1  0.900541  0.423489  0.447227  1
  Si  Si20  1  0.568630  0.086595  0.064558  1
  Si  Si21  1  0.631871  0.375045  0.735498  1
  Si  Si22  1  0.383676  0.616686  0.248785  1
  Si  Si23  1  0.120901  0.878640  0.747926  1
  Si  Si24  1  0.876433  0.121561  0.249454  1
  Ru  Ru25  1  0.852144  0.105736  0.914268  1
  Ru  Ru26  1  0.100745  0.858162  0.413690  1
  Ru  Ru27  1  0.142484  0.897922  0.082165  1
  Ru  Ru28  1  0.828311  0.645865  0.782608  1
  Ru  Ru29  1  0.356820  0.173463  0.717484  1
  Ru  Ru30  1  0.174145  0.345906  0.222911  1
  Ru  Ru31  1  0.651314  0.819818  0.282337  1
  Ru  Ru32  1  0.230560  0.524629  0.935109  1
  Ru  Ru33  1  0.463904  0.788516  0.571600  1
  Ru  Ru34  1  0.762612  0.477576  0.070609  1
  Ru  Ru35  1  0.516094  0.243895  0.430626  1
