# generated using pymatgen
data_CaLa4Ga3
_symmetry_space_group_name_H-M   'P 1'
_cell_length_a   8.04057300
_cell_length_b   8.04057300
_cell_length_c   14.65673700
_cell_angle_alpha   90.00000000
_cell_angle_beta   90.00000000
_cell_angle_gamma   90.00000000
_symmetry_Int_Tables_number   1
_chemical_formula_structural   CaLa4Ga3
_chemical_formula_sum   'Ca4 La16 Ga12'
_cell_volume   947.56998010
_cell_formula_units_Z   4
loop_
 _symmetry_equiv_pos_site_id
 _symmetry_equiv_pos_as_xyz
  1  'x, y, z'
loop_
 _atom_site_type_symbol
 _atom_site_label
 _atom_site_symmetry_multiplicity
 _atom_site_fract_x
 _atom_site_fract_y
 _atom_site_fract_z
 _atom_site_occupancy
  Ca  Ca0  1  0.500000  0.500000  0.751876  1
  Ca  Ca1  1  0.000000  0.000000  0.250749  1
  Ca  Ca2  1  0.000000  0.000000  0.749251  1
  Ca  Ca3  1  0.500000  0.500000  0.248124  1
  La  La4  1  0.673700  0.172920  0.100946  1
  La  La5  1  0.173305  0.672467  0.600550  1
  La  La6  1  0.326300  0.827080  0.100946  1
  La  La7  1  0.826695  0.327533  0.600550  1
  La  La8  1  0.827080  0.673700  0.100946  1
  La  La9  1  0.327533  0.173305  0.600550  1
  La  La10  1  0.172920  0.326300  0.100946  1
  La  La11  1  0.672467  0.826695  0.600550  1
  La  La12  1  0.827080  0.326300  0.899054  1
  La  La13  1  0.327533  0.826695  0.399450  1
  La  La14  1  0.172920  0.673700  0.899054  1
  La  La15  1  0.672467  0.173305  0.399450  1
  La  La16  1  0.673700  0.827080  0.899054  1
  La  La17  1  0.173305  0.327533  0.399450  1
  La  La18  1  0.326300  0.172920  0.899054  1
  La  La19  1  0.826695  0.672467  0.399450  1
  Ga  Ga20  1  0.500000  0.500000  0.500000  1
  Ga  Ga21  1  0.500000  0.500000  0.000000  1
  Ga  Ga22  1  0.000000  0.000000  0.500000  1
  Ga  Ga23  1  0.616612  0.116658  0.749986  1
  Ga  Ga24  1  0.116658  0.616612  0.250014  1
  Ga  Ga25  1  0.883342  0.383388  0.250014  1
  Ga  Ga26  1  0.383388  0.883342  0.749986  1
  Ga  Ga27  1  0.883342  0.616612  0.749986  1
  Ga  Ga28  1  0.383388  0.116658  0.250014  1
  Ga  Ga29  1  0.116658  0.383388  0.749986  1
  Ga  Ga30  1  0.616612  0.883342  0.250014  1
  Ga  Ga31  1  0.000000  0.000000  0.000000  1
