# generated using pymatgen
data_HoErGa2NiIr
_symmetry_space_group_name_H-M   'P 1'
_cell_length_a   4.27821300
_cell_length_b   6.73081800
_cell_length_c   7.59569600
_cell_angle_alpha   90.00000000
_cell_angle_beta   90.00000000
_cell_angle_gamma   90.00000000
_symmetry_Int_Tables_number   1
_chemical_formula_structural   HoErGa2NiIr
_chemical_formula_sum   'Ho2 Er2 Ga4 Ni2 Ir2'
_cell_volume   218.72469788
_cell_formula_units_Z   2
loop_
 _symmetry_equiv_pos_site_id
 _symmetry_equiv_pos_as_xyz
  1  'x, y, z'
loop_
 _atom_site_type_symbol
 _atom_site_label
 _atom_site_symmetry_multiplicity
 _atom_site_fract_x
 _atom_site_fract_y
 _atom_site_fract_z
 _atom_site_occupancy
  Ho  Ho0  1  0.750000  0.023781  0.686622  1
  Ho  Ho1  1  0.750000  0.523781  0.813378  1
  Er  Er2  1  0.250000  0.978235  0.312587  1
  Er  Er3  1  0.250000  0.478235  0.187413  1
  Ga  Ga4  1  0.250000  0.345374  0.576093  1
  Ga  Ga5  1  0.250000  0.845374  0.923907  1
  Ga  Ga6  1  0.750000  0.660536  0.441240  1
  Ga  Ga7  1  0.750000  0.160536  0.058760  1
  Ni  Ni8  1  0.250000  0.222181  0.885938  1
  Ni  Ni9  1  0.250000  0.722181  0.614062  1
  Ir  Ir10  1  0.750000  0.769892  0.112209  1
  Ir  Ir11  1  0.750000  0.269892  0.387791  1
