# generated using pymatgen
data_Er9TmIr5Au
_symmetry_space_group_name_H-M   'P 1'
_cell_length_a   10.93533519
_cell_length_b   10.88750200
_cell_length_c   6.29638444
_cell_angle_alpha   90.00000000
_cell_angle_beta   89.83746686
_cell_angle_gamma   90.00000000
_symmetry_Int_Tables_number   1
_chemical_formula_structural   Er9TmIr5Au
_chemical_formula_sum   'Er18 Tm2 Ir10 Au2'
_cell_volume   749.63496791
_cell_formula_units_Z   2
loop_
 _symmetry_equiv_pos_site_id
 _symmetry_equiv_pos_as_xyz
  1  'x, y, z'
loop_
 _atom_site_type_symbol
 _atom_site_label
 _atom_site_symmetry_multiplicity
 _atom_site_fract_x
 _atom_site_fract_y
 _atom_site_fract_z
 _atom_site_occupancy
  Er  Er0  1  0.292073  0.087974  0.372097  1
  Er  Er1  1  0.292073  0.912026  0.872097  1
  Er  Er2  1  0.698173  0.091875  0.866418  1
  Er  Er3  1  0.698173  0.908125  0.366418  1
  Er  Er4  1  0.577654  0.789241  0.876890  1
  Er  Er5  1  0.577654  0.210759  0.376890  1
  Er  Er6  1  0.409024  0.790464  0.376438  1
  Er  Er7  1  0.409024  0.209536  0.876438  1
  Er  Er8  1  0.209735  0.411787  0.621947  1
  Er  Er9  1  0.209735  0.588213  0.121947  1
  Er  Er10  1  0.789691  0.419915  0.123274  1
  Er  Er11  1  0.789691  0.580085  0.623274  1
  Er  Er12  1  0.917469  0.705262  0.138170  1
  Er  Er13  1  0.917469  0.294738  0.638170  1
  Er  Er14  1  0.095759  0.703321  0.623650  1
  Er  Er15  1  0.095759  0.296679  0.123650  1
  Er  Er16  1  0.009101  0.998251  0.500212  1
  Er  Er17  1  0.009101  0.001749  0.000212  1
  Tm  Tm18  1  0.499800  0.498725  0.000584  1
  Tm  Tm19  1  0.499800  0.501275  0.500584  1
  Ir  Ir20  1  0.154154  0.154316  0.750069  1
  Ir  Ir21  1  0.154154  0.845684  0.250069  1
  Ir  Ir22  1  0.655496  0.346479  0.748102  1
  Ir  Ir23  1  0.655496  0.653521  0.248102  1
  Ir  Ir24  1  0.347713  0.346386  0.251799  1
  Ir  Ir25  1  0.347713  0.653614  0.751799  1
  Ir  Ir26  1  0.499346  0.999873  0.121247  1
  Ir  Ir27  1  0.499346  0.000127  0.621247  1
  Ir  Ir28  1  0.000224  0.500868  0.878604  1
  Ir  Ir29  1  0.000224  0.499132  0.378604  1
  Au  Au30  1  0.844589  0.155029  0.250498  1
  Au  Au31  1  0.844589  0.844971  0.750498  1
