# generated using pymatgen
data_Yb5Gd(OsO6)3
_symmetry_space_group_name_H-M   'P 1'
_cell_length_a   9.04492678
_cell_length_b   9.04492604
_cell_length_c   5.26420907
_cell_angle_alpha   89.98367352
_cell_angle_beta   90.01632300
_cell_angle_gamma   119.91169444
_symmetry_Int_Tables_number   1
_chemical_formula_structural   Yb5Gd(OsO6)3
_chemical_formula_sum   'Yb5 Gd1 Os3 O18'
_cell_volume   373.30135982
_cell_formula_units_Z   1
loop_
 _symmetry_equiv_pos_site_id
 _symmetry_equiv_pos_as_xyz
  1  'x, y, z'
loop_
 _atom_site_type_symbol
 _atom_site_label
 _atom_site_symmetry_multiplicity
 _atom_site_fract_x
 _atom_site_fract_y
 _atom_site_fract_z
 _atom_site_occupancy
  Yb  Yb0  1  0.999699  0.280646  0.497477  1
  Yb  Yb1  1  0.280646  0.999699  0.502523  1
  Yb  Yb2  1  0.380669  0.380669  0.000000  1
  Yb  Yb3  1  0.995409  0.619517  0.000519  1
  Yb  Yb4  1  0.619517  0.995409  0.999481  1
  Gd  Gd5  1  0.724263  0.724263  0.500000  1
  Os  Os6  1  0.665079  0.328004  0.505517  1
  Os  Os7  1  0.328004  0.665079  0.494483  1
  Os  Os8  1  0.006346  0.006346  0.000000  1
  O  O9  1  0.758179  0.229402  0.715556  1
  O  O10  1  0.770219  0.529442  0.713220  1
  O  O11  1  0.471594  0.242562  0.712400  1
  O  O12  1  0.529442  0.770219  0.286780  1
  O  O13  1  0.242562  0.471594  0.287600  1
  O  O14  1  0.229402  0.758179  0.284444  1
  O  O15  1  0.592907  0.454018  0.301058  1
  O  O16  1  0.545355  0.137433  0.300622  1
  O  O17  1  0.859744  0.406015  0.302373  1
  O  O18  1  0.067390  0.878228  0.790236  1
  O  O19  1  0.123274  0.197229  0.792434  1
  O  O20  1  0.805948  0.931430  0.789703  1
  O  O21  1  0.197229  0.123274  0.207566  1
  O  O22  1  0.931430  0.805948  0.210297  1
  O  O23  1  0.878228  0.067390  0.209764  1
  O  O24  1  0.454018  0.592907  0.698942  1
  O  O25  1  0.406015  0.859744  0.697627  1
  O  O26  1  0.137433  0.545355  0.699378  1
