# generated using pymatgen
data_NdSbO
_symmetry_space_group_name_H-M   'P 1'
_cell_length_a   8.25299695
_cell_length_b   8.25299775
_cell_length_c   6.05429200
_cell_angle_alpha   90.00000000
_cell_angle_beta   90.00000000
_cell_angle_gamma   137.45733884
_symmetry_Int_Tables_number   1
_chemical_formula_structural   NdSbO
_chemical_formula_sum   'Nd4 Sb4 O4'
_cell_volume   278.81924645
_cell_formula_units_Z   4
loop_
 _symmetry_equiv_pos_site_id
 _symmetry_equiv_pos_as_xyz
  1  'x, y, z'
loop_
 _atom_site_type_symbol
 _atom_site_label
 _atom_site_symmetry_multiplicity
 _atom_site_fract_x
 _atom_site_fract_y
 _atom_site_fract_z
 _atom_site_occupancy
  Nd  Nd0  1  0.321117  0.678883  0.000000  1
  Nd  Nd1  1  0.178883  0.821117  0.500000  1
  Nd  Nd2  1  0.821117  0.178883  0.500000  1
  Nd  Nd3  1  0.678883  0.321117  0.000000  1
  Sb  Sb4  1  0.800776  0.800776  0.783890  1
  Sb  Sb5  1  0.300776  0.300776  0.716110  1
  Sb  Sb6  1  0.199224  0.199224  0.216110  1
  Sb  Sb7  1  0.699224  0.699224  0.283890  1
  O  O8  1  0.494921  0.994921  0.750000  1
  O  O9  1  0.005079  0.505079  0.250000  1
  O  O10  1  0.505079  0.005079  0.250000  1
  O  O11  1  0.994921  0.494921  0.750000  1
