# generated using pymatgen
data_U4Fe5CoSi2
_symmetry_space_group_name_H-M   'P 1'
_cell_length_a   5.15978607
_cell_length_b   5.10568498
_cell_length_c   7.43863600
_cell_angle_alpha   90.00000000
_cell_angle_beta   90.00000000
_cell_angle_gamma   59.67189429
_symmetry_Int_Tables_number   1
_chemical_formula_structural   U4Fe5CoSi2
_chemical_formula_sum   'U4 Fe5 Co1 Si2'
_cell_volume   169.14698667
_cell_formula_units_Z   1
loop_
 _symmetry_equiv_pos_site_id
 _symmetry_equiv_pos_as_xyz
  1  'x, y, z'
loop_
 _atom_site_type_symbol
 _atom_site_label
 _atom_site_symmetry_multiplicity
 _atom_site_fract_x
 _atom_site_fract_y
 _atom_site_fract_z
 _atom_site_occupancy
  U  U0  1  0.335184  0.329814  0.565427  1
  U  U1  1  0.663833  0.672143  0.431731  1
  U  U2  1  0.663833  0.672143  0.068269  1
  U  U3  1  0.335184  0.329814  0.934573  1
  Fe  Fe4  1  0.336183  0.830947  0.750000  1
  Fe  Fe5  1  0.832967  0.830971  0.750000  1
  Fe  Fe6  1  0.167793  0.664306  0.250000  1
  Fe  Fe7  1  0.664924  0.169197  0.250000  1
  Fe  Fe8  1  0.165630  0.169345  0.250000  1
  Co  Co9  1  0.833132  0.333970  0.750000  1
  Si  Si10  1  0.000668  0.998674  0.500182  1
  Si  Si11  1  0.000668  0.998674  0.999818  1
