# generated using pymatgen
data_Dy3MgCd2PtAu2
_symmetry_space_group_name_H-M   'P 1'
_cell_length_a   7.79651289
_cell_length_b   7.84472801
_cell_length_c   3.83522500
_cell_angle_alpha   90.00000000
_cell_angle_beta   90.00000000
_cell_angle_gamma   120.05130166
_symmetry_Int_Tables_number   1
_chemical_formula_structural   Dy3MgCd2PtAu2
_chemical_formula_sum   'Dy3 Mg1 Cd2 Pt1 Au2'
_cell_volume   203.03692630
_cell_formula_units_Z   1
loop_
 _symmetry_equiv_pos_site_id
 _symmetry_equiv_pos_as_xyz
  1  'x, y, z'
loop_
 _atom_site_type_symbol
 _atom_site_label
 _atom_site_symmetry_multiplicity
 _atom_site_fract_x
 _atom_site_fract_y
 _atom_site_fract_z
 _atom_site_occupancy
  Dy  Dy0  1  0.592391  0.982799  0.000000  1
  Dy  Dy1  1  0.012919  0.599727  0.000000  1
  Dy  Dy2  1  0.397811  0.418707  0.000000  1
  Mg  Mg3  1  0.260644  0.002183  0.500000  1
  Cd  Cd4  1  0.998667  0.263984  0.500000  1
  Cd  Cd5  1  0.737870  0.732747  0.500000  1
  Pt  Pt6  1  0.331544  0.675809  0.500000  1
  Au  Au7  1  0.655114  0.323735  0.500000  1
  Au  Au8  1  0.013038  0.000309  0.000000  1
