# generated using pymatgen
data_NdY3ErBi3
_symmetry_space_group_name_H-M   'P 1'
_cell_length_a   8.22537200
_cell_length_b   9.48394400
_cell_length_c   12.11464900
_cell_angle_alpha   90.00000000
_cell_angle_beta   90.00000000
_cell_angle_gamma   90.00000000
_symmetry_Int_Tables_number   1
_chemical_formula_structural   NdY3ErBi3
_chemical_formula_sum   'Nd4 Y12 Er4 Bi12'
_cell_volume   945.05125923
_cell_formula_units_Z   4
loop_
 _symmetry_equiv_pos_site_id
 _symmetry_equiv_pos_as_xyz
  1  'x, y, z'
loop_
 _atom_site_type_symbol
 _atom_site_label
 _atom_site_symmetry_multiplicity
 _atom_site_fract_x
 _atom_site_fract_y
 _atom_site_fract_z
 _atom_site_occupancy
  Nd  Nd0  1  0.182892  0.750000  0.721536  1
  Nd  Nd1  1  0.682892  0.750000  0.778464  1
  Nd  Nd2  1  0.817108  0.250000  0.278464  1
  Nd  Nd3  1  0.317108  0.250000  0.221536  1
  Y  Y4  1  0.306080  0.437679  0.939881  1
  Y  Y5  1  0.806080  0.062321  0.560119  1
  Y  Y6  1  0.693920  0.937679  0.060119  1
  Y  Y7  1  0.193920  0.562321  0.439881  1
  Y  Y8  1  0.693920  0.562321  0.060119  1
  Y  Y9  1  0.193920  0.937679  0.439881  1
  Y  Y10  1  0.306080  0.062321  0.939881  1
  Y  Y11  1  0.806080  0.437679  0.560119  1
  Y  Y12  1  0.354300  0.750000  0.216541  1
  Y  Y13  1  0.854300  0.750000  0.283459  1
  Y  Y14  1  0.645700  0.250000  0.783459  1
  Y  Y15  1  0.145700  0.250000  0.716541  1
  Er  Er16  1  0.024853  0.750000  0.987686  1
  Er  Er17  1  0.524853  0.750000  0.512314  1
  Er  Er18  1  0.975147  0.250000  0.012314  1
  Er  Er19  1  0.475147  0.250000  0.487686  1
  Bi  Bi20  1  0.432591  0.007944  0.670224  1
  Bi  Bi21  1  0.932591  0.492056  0.829776  1
  Bi  Bi22  1  0.567409  0.507944  0.329776  1
  Bi  Bi23  1  0.067409  0.992056  0.170224  1
  Bi  Bi24  1  0.567409  0.992056  0.329776  1
  Bi  Bi25  1  0.067409  0.507944  0.170224  1
  Bi  Bi26  1  0.432591  0.492056  0.670224  1
  Bi  Bi27  1  0.932591  0.007944  0.829776  1
  Bi  Bi28  1  0.407268  0.750000  0.962097  1
  Bi  Bi29  1  0.907268  0.750000  0.537903  1
  Bi  Bi30  1  0.592732  0.250000  0.037903  1
  Bi  Bi31  1  0.092732  0.250000  0.462097  1
