# generated using pymatgen
data_Er2Mg(PIr2)6
_symmetry_space_group_name_H-M   'P 1'
_cell_length_a   9.72565900
_cell_length_b   9.72565859
_cell_length_c   3.94044500
_cell_angle_alpha   90.00000000
_cell_angle_beta   90.00000000
_cell_angle_gamma   119.99999891
_symmetry_Int_Tables_number   1
_chemical_formula_structural   Er2Mg(PIr2)6
_chemical_formula_sum   'Er2 Mg1 P6 Ir12'
_cell_volume   322.78546100
_cell_formula_units_Z   1
loop_
 _symmetry_equiv_pos_site_id
 _symmetry_equiv_pos_as_xyz
  1  'x, y, z'
loop_
 _atom_site_type_symbol
 _atom_site_label
 _atom_site_symmetry_multiplicity
 _atom_site_fract_x
 _atom_site_fract_y
 _atom_site_fract_z
 _atom_site_occupancy
  Er  Er0  1  0.333333  0.666667  0.753209  1
  Er  Er1  1  0.666667  0.333333  0.246791  1
  Mg  Mg2  1  0.000000  0.000000  0.500000  1
  P  P3  1  0.404163  0.282254  0.746365  1
  P  P4  1  0.717746  0.121909  0.746365  1
  P  P5  1  0.878091  0.595837  0.746365  1
  P  P6  1  0.595837  0.717746  0.253635  1
  P  P7  1  0.282254  0.878091  0.253635  1
  P  P8  1  0.121909  0.404163  0.253635  1
  Ir  Ir9  1  0.459208  0.069649  0.748561  1
  Ir  Ir10  1  0.930351  0.389558  0.748561  1
  Ir  Ir11  1  0.610442  0.540792  0.748561  1
  Ir  Ir12  1  0.540792  0.930351  0.251439  1
  Ir  Ir13  1  0.069649  0.610442  0.251439  1
  Ir  Ir14  1  0.389558  0.459208  0.251439  1
  Ir  Ir15  1  0.164460  0.292866  0.754850  1
  Ir  Ir16  1  0.707134  0.871595  0.754850  1
  Ir  Ir17  1  0.128405  0.835540  0.754850  1
  Ir  Ir18  1  0.835540  0.707134  0.245150  1
  Ir  Ir19  1  0.292866  0.128405  0.245150  1
  Ir  Ir20  1  0.871595  0.164460  0.245150  1
