# generated using pymatgen
data_Cs2LuCl5
_symmetry_space_group_name_H-M   'P 1'
_cell_length_a   7.46334900
_cell_length_b   9.63790700
_cell_length_c   15.30511500
_cell_angle_alpha   90.00000000
_cell_angle_beta   90.00000000
_cell_angle_gamma   90.00000000
_symmetry_Int_Tables_number   1
_chemical_formula_structural   Cs2LuCl5
_chemical_formula_sum   'Cs8 Lu4 Cl20'
_cell_volume   1100.91320002
_cell_formula_units_Z   4
loop_
 _symmetry_equiv_pos_site_id
 _symmetry_equiv_pos_as_xyz
  1  'x, y, z'
loop_
 _atom_site_type_symbol
 _atom_site_label
 _atom_site_symmetry_multiplicity
 _atom_site_fract_x
 _atom_site_fract_y
 _atom_site_fract_z
 _atom_site_occupancy
  Cs  Cs0  1  0.250000  0.664319  0.916858  1
  Cs  Cs1  1  0.750000  0.335681  0.083142  1
  Cs  Cs2  1  0.750000  0.835681  0.416858  1
  Cs  Cs3  1  0.250000  0.164319  0.583142  1
  Cs  Cs4  1  0.250000  0.975553  0.212303  1
  Cs  Cs5  1  0.750000  0.024447  0.787697  1
  Cs  Cs6  1  0.750000  0.524447  0.712303  1
  Cs  Cs7  1  0.250000  0.475553  0.287697  1
  Lu  Lu8  1  0.250000  0.676646  0.564702  1
  Lu  Lu9  1  0.750000  0.323354  0.435298  1
  Lu  Lu10  1  0.750000  0.823354  0.064702  1
  Lu  Lu11  1  0.250000  0.176646  0.935298  1
  Cl  Cl12  1  0.250000  0.521340  0.699481  1
  Cl  Cl13  1  0.750000  0.478660  0.300519  1
  Cl  Cl14  1  0.750000  0.978660  0.199481  1
  Cl  Cl15  1  0.250000  0.021340  0.800519  1
  Cl  Cl16  1  0.500589  0.830806  0.617399  1
  Cl  Cl17  1  0.499411  0.169194  0.382601  1
  Cl  Cl18  1  0.499411  0.669194  0.117399  1
  Cl  Cl19  1  0.000589  0.169194  0.382601  1
  Cl  Cl20  1  0.500589  0.330806  0.882601  1
  Cl  Cl21  1  0.999411  0.830806  0.617399  1
  Cl  Cl22  1  0.999411  0.330806  0.882601  1
  Cl  Cl23  1  0.000589  0.669194  0.117399  1
  Cl  Cl24  1  0.250000  0.785609  0.408966  1
  Cl  Cl25  1  0.750000  0.214391  0.591034  1
  Cl  Cl26  1  0.750000  0.714391  0.908966  1
  Cl  Cl27  1  0.250000  0.285609  0.091034  1
  Cl  Cl28  1  0.000000  0.500000  0.500000  1
  Cl  Cl29  1  0.000000  0.000000  0.000000  1
  Cl  Cl30  1  0.500000  0.500000  0.500000  1
  Cl  Cl31  1  0.500000  0.000000  0.000000  1
