# generated using pymatgen
data_Er4C2SBr
_symmetry_space_group_name_H-M   'P 1'
_cell_length_a   3.62773200
_cell_length_b   3.62761215
_cell_length_c   13.15926800
_cell_angle_alpha   90.00000000
_cell_angle_beta   90.00000000
_cell_angle_gamma   120.00054576
_symmetry_Int_Tables_number   1
_chemical_formula_structural   Er4C2SBr
_chemical_formula_sum   'Er4 C2 S1 Br1'
_cell_volume   149.97401521
_cell_formula_units_Z   1
loop_
 _symmetry_equiv_pos_site_id
 _symmetry_equiv_pos_as_xyz
  1  'x, y, z'
loop_
 _atom_site_type_symbol
 _atom_site_label
 _atom_site_symmetry_multiplicity
 _atom_site_fract_x
 _atom_site_fract_y
 _atom_site_fract_z
 _atom_site_occupancy
  Er  Er0  1  0.333324  0.666672  0.081855  1
  Er  Er1  1  0.666618  0.333258  0.612443  1
  Er  Er2  1  0.666618  0.333258  0.887557  1
  Er  Er3  1  0.333324  0.666672  0.418145  1
  C  C4  1  0.999988  0.999986  0.993650  1
  C  C5  1  0.999988  0.999986  0.506350  1
  S  S6  1  0.333252  0.666527  0.750000  1
  Br  Br7  1  0.666888  0.333639  0.250000  1
