# generated using pymatgen
data_Tb3Sc2(In2Ag)2
_symmetry_space_group_name_H-M   'P 1'
_cell_length_a   3.58616300
_cell_length_b   8.07353600
_cell_length_c   18.12106000
_cell_angle_alpha   90.00000000
_cell_angle_beta   90.00000000
_cell_angle_gamma   90.00000000
_symmetry_Int_Tables_number   1
_chemical_formula_structural   Tb3Sc2(In2Ag)2
_chemical_formula_sum   'Tb6 Sc4 In8 Ag4'
_cell_volume   524.65934161
_cell_formula_units_Z   2
loop_
 _symmetry_equiv_pos_site_id
 _symmetry_equiv_pos_as_xyz
  1  'x, y, z'
loop_
 _atom_site_type_symbol
 _atom_site_label
 _atom_site_symmetry_multiplicity
 _atom_site_fract_x
 _atom_site_fract_y
 _atom_site_fract_z
 _atom_site_occupancy
  Tb  Tb0  1  0.000000  0.232451  0.209210  1
  Tb  Tb1  1  0.000000  0.767549  0.790790  1
  Tb  Tb2  1  0.000000  0.267549  0.709210  1
  Tb  Tb3  1  0.000000  0.732451  0.290790  1
  Tb  Tb4  1  0.000000  0.000000  0.000000  1
  Tb  Tb5  1  0.000000  0.500000  0.500000  1
  Sc  Sc6  1  0.000000  0.125640  0.422058  1
  Sc  Sc7  1  0.000000  0.874360  0.577942  1
  Sc  Sc8  1  0.000000  0.374360  0.922058  1
  Sc  Sc9  1  0.000000  0.625640  0.077942  1
  In  In10  1  0.500000  0.405493  0.349954  1
  In  In11  1  0.500000  0.594507  0.650046  1
  In  In12  1  0.500000  0.094507  0.849954  1
  In  In13  1  0.500000  0.905493  0.150046  1
  In  In14  1  0.500000  0.307948  0.060239  1
  In  In15  1  0.500000  0.692052  0.939761  1
  In  In16  1  0.500000  0.192052  0.560239  1
  In  In17  1  0.500000  0.807948  0.439761  1
  Ag  Ag18  1  0.500000  0.031967  0.307019  1
  Ag  Ag19  1  0.500000  0.968033  0.692981  1
  Ag  Ag20  1  0.500000  0.468033  0.807019  1
  Ag  Ag21  1  0.500000  0.531967  0.192981  1
