# generated using pymatgen
data_YbPrTm5CoI12
_symmetry_space_group_name_H-M   'P 1'
_cell_length_a   9.71402467
_cell_length_b   9.75732471
_cell_length_c   9.76576700
_cell_angle_alpha   106.69003257
_cell_angle_beta   107.28016620
_cell_angle_gamma   106.61497105
_symmetry_Int_Tables_number   1
_chemical_formula_structural   YbPrTm5CoI12
_chemical_formula_sum   'Yb1 Pr1 Tm5 Co1 I12'
_cell_volume   773.73661028
_cell_formula_units_Z   1
loop_
 _symmetry_equiv_pos_site_id
 _symmetry_equiv_pos_as_xyz
  1  'x, y, z'
loop_
 _atom_site_type_symbol
 _atom_site_label
 _atom_site_symmetry_multiplicity
 _atom_site_fract_x
 _atom_site_fract_y
 _atom_site_fract_z
 _atom_site_occupancy
  Yb  Yb0  1  0.500738  0.498790  0.499786  1
  Pr  Pr1  1  0.707519  0.977360  0.904916  1
  Tm  Tm2  1  0.974837  0.905270  0.709223  1
  Tm  Tm3  1  0.024097  0.094751  0.291298  1
  Tm  Tm4  1  0.096867  0.291144  0.024511  1
  Tm  Tm5  1  0.275613  0.022530  0.091090  1
  Tm  Tm6  1  0.907671  0.709598  0.976791  1
  Co  Co7  1  0.996722  0.000632  0.999302  1
  I  I8  1  0.544723  0.611301  0.848795  1
  I  I9  1  0.454473  0.372850  0.148836  1
  I  I10  1  0.314093  0.927785  0.780878  1
  I  I11  1  0.376757  0.147311  0.452075  1
  I  I12  1  0.930174  0.780478  0.320386  1
  I  I13  1  0.684924  0.076825  0.235281  1
  I  I14  1  0.072003  0.220046  0.680265  1
  I  I15  1  0.787966  0.335085  0.931387  1
  I  I16  1  0.225385  0.684113  0.073533  1
  I  I17  1  0.854123  0.547289  0.624325  1
  I  I18  1  0.148379  0.453629  0.375669  1
  I  I19  1  0.622937  0.843212  0.531654  1
