# generated using pymatgen
data_Nd4CuHg2Pd3
_symmetry_space_group_name_H-M   'P 1'
_cell_length_a   7.82031208
_cell_length_b   7.82031193
_cell_length_c   3.89598600
_cell_angle_alpha   90.00000000
_cell_angle_beta   90.00000000
_cell_angle_gamma   90.24043745
_symmetry_Int_Tables_number   1
_chemical_formula_structural   Nd4CuHg2Pd3
_chemical_formula_sum   'Nd4 Cu1 Hg2 Pd3'
_cell_volume   238.26580833
_cell_formula_units_Z   1
loop_
 _symmetry_equiv_pos_site_id
 _symmetry_equiv_pos_as_xyz
  1  'x, y, z'
loop_
 _atom_site_type_symbol
 _atom_site_label
 _atom_site_symmetry_multiplicity
 _atom_site_fract_x
 _atom_site_fract_y
 _atom_site_fract_z
 _atom_site_occupancy
  Nd  Nd0  1  0.676973  0.176973  0.500000  1
  Nd  Nd1  1  0.326017  0.826017  0.500000  1
  Nd  Nd2  1  0.174596  0.321710  0.500000  1
  Nd  Nd3  1  0.821710  0.674596  0.500000  1
  Cu  Cu4  1  0.120586  0.620586  0.000000  1
  Hg  Hg5  1  0.001529  0.996291  0.000000  1
  Hg  Hg6  1  0.496291  0.501529  0.000000  1
  Pd  Pd7  1  0.881171  0.381171  0.000000  1
  Pd  Pd8  1  0.626278  0.874849  0.000000  1
  Pd  Pd9  1  0.374849  0.126278  0.000000  1
