# generated using pymatgen
data_RbGa(PO3)4
_symmetry_space_group_name_H-M   'P 1'
_cell_length_a   10.58254760
_cell_length_b   10.58254789
_cell_length_c   5.23310535
_cell_angle_alpha   81.24558353
_cell_angle_beta   81.24559049
_cell_angle_gamma   72.90490272
_symmetry_Int_Tables_number   1
_chemical_formula_structural   RbGa(PO3)4
_chemical_formula_sum   'Rb2 Ga2 P8 O24'
_cell_volume   550.04448086
_cell_formula_units_Z   2
loop_
 _symmetry_equiv_pos_site_id
 _symmetry_equiv_pos_as_xyz
  1  'x, y, z'
loop_
 _atom_site_type_symbol
 _atom_site_label
 _atom_site_symmetry_multiplicity
 _atom_site_fract_x
 _atom_site_fract_y
 _atom_site_fract_z
 _atom_site_occupancy
  Rb  Rb0  1  0.401544  0.401544  0.751852  1
  Rb  Rb1  1  0.598456  0.598456  0.248148  1
  Ga  Ga2  1  0.500000  0.000000  0.000000  1
  Ga  Ga3  1  0.000000  0.500000  0.000000  1
  P  P4  1  0.803614  0.351098  0.837775  1
  P  P5  1  0.069902  0.308486  0.535345  1
  P  P6  1  0.308486  0.069902  0.535345  1
  P  P7  1  0.648902  0.196386  0.162225  1
  P  P8  1  0.351098  0.803614  0.837775  1
  P  P9  1  0.691514  0.930098  0.464655  1
  P  P10  1  0.930098  0.691514  0.464655  1
  P  P11  1  0.196386  0.648902  0.162225  1
  O  O12  1  0.421122  0.855133  0.016075  1
  O  O13  1  0.398405  0.100311  0.702513  1
  O  O14  1  0.426900  0.682840  0.714617  1
  O  O15  1  0.144867  0.578878  0.983925  1
  O  O16  1  0.578878  0.144867  0.983925  1
  O  O17  1  0.911347  0.655041  0.754239  1
  O  O18  1  0.212333  0.787667  0.000000  1
  O  O19  1  0.573100  0.317160  0.285383  1
  O  O20  1  0.601595  0.899689  0.297487  1
  O  O21  1  0.711282  0.074646  0.376984  1
  O  O22  1  0.317160  0.573100  0.285383  1
  O  O23  1  0.899689  0.601595  0.297487  1
  O  O24  1  0.855133  0.421122  0.016075  1
  O  O25  1  0.074646  0.711282  0.376984  1
  O  O26  1  0.158524  0.158524  0.602275  1
  O  O27  1  0.100311  0.398405  0.702513  1
  O  O28  1  0.682840  0.426900  0.714617  1
  O  O29  1  0.288718  0.925354  0.623016  1
  O  O30  1  0.787667  0.212333  0.000000  1
  O  O31  1  0.344959  0.088653  0.245761  1
  O  O32  1  0.655041  0.911347  0.754239  1
  O  O33  1  0.841476  0.841476  0.397725  1
  O  O34  1  0.925354  0.288718  0.623016  1
  O  O35  1  0.088653  0.344959  0.245761  1
