# generated using pymatgen
data_ZrZn2Rh3
_symmetry_space_group_name_H-M   'P 1'
_cell_length_a   7.67539200
_cell_length_b   7.67539161
_cell_length_c   5.37377700
_cell_angle_alpha   90.00000000
_cell_angle_beta   90.00000000
_cell_angle_gamma   120.00000170
_symmetry_Int_Tables_number   1
_chemical_formula_structural   ZrZn2Rh3
_chemical_formula_sum   'Zr3 Zn6 Rh9'
_cell_volume   274.16459634
_cell_formula_units_Z   3
loop_
 _symmetry_equiv_pos_site_id
 _symmetry_equiv_pos_as_xyz
  1  'x, y, z'
loop_
 _atom_site_type_symbol
 _atom_site_label
 _atom_site_symmetry_multiplicity
 _atom_site_fract_x
 _atom_site_fract_y
 _atom_site_fract_z
 _atom_site_occupancy
  Zr  Zr0  1  0.333453  0.000000  0.892105  1
  Zr  Zr1  1  0.000000  0.333453  0.892105  1
  Zr  Zr2  1  0.666547  0.666547  0.892105  1
  Zn  Zn3  1  0.667005  0.000000  0.223566  1
  Zn  Zn4  1  0.332994  0.332995  0.223566  1
  Zn  Zn5  1  0.000000  0.667005  0.223566  1
  Zn  Zn6  1  0.000000  0.000000  0.559727  1
  Zn  Zn7  1  0.666666  0.333333  0.561142  1
  Zn  Zn8  1  0.333334  0.666667  0.561142  1
  Rh  Rh9  1  0.000000  0.000000  0.071455  1
  Rh  Rh10  1  0.666666  0.333333  0.072836  1
  Rh  Rh11  1  0.333334  0.666667  0.072836  1
  Rh  Rh12  1  0.333747  0.000000  0.392071  1
  Rh  Rh13  1  0.000000  0.333747  0.392071  1
  Rh  Rh14  1  0.666254  0.666253  0.392071  1
  Rh  Rh15  1  0.666796  0.000000  0.711831  1
  Rh  Rh16  1  0.333205  0.333205  0.711831  1
  Rh  Rh17  1  0.000000  0.666795  0.711831  1
