# generated using pymatgen
data_Tb3Sn3IrRhAu
_symmetry_space_group_name_H-M   'P 1'
_cell_length_a   7.69392000
_cell_length_b   7.69391798
_cell_length_c   3.88575000
_cell_angle_alpha   90.00000000
_cell_angle_beta   90.00000000
_cell_angle_gamma   119.99999148
_symmetry_Int_Tables_number   1
_chemical_formula_structural   Tb3Sn3IrRhAu
_chemical_formula_sum   'Tb3 Sn3 Ir1 Rh1 Au1'
_cell_volume   199.20523322
_cell_formula_units_Z   1
loop_
 _symmetry_equiv_pos_site_id
 _symmetry_equiv_pos_as_xyz
  1  'x, y, z'
loop_
 _atom_site_type_symbol
 _atom_site_label
 _atom_site_symmetry_multiplicity
 _atom_site_fract_x
 _atom_site_fract_y
 _atom_site_fract_z
 _atom_site_occupancy
  Tb  Tb0  1  0.412329  0.017332  0.500000  1
  Tb  Tb1  1  0.982668  0.394997  0.500000  1
  Tb  Tb2  1  0.605003  0.587671  0.500000  1
  Sn  Sn3  1  0.745028  0.003255  0.000000  1
  Sn  Sn4  1  0.996745  0.741772  0.000000  1
  Sn  Sn5  1  0.258228  0.254972  0.000000  1
  Ir  Ir6  1  0.666667  0.333333  0.000000  1
  Rh  Rh7  1  0.000000  0.000000  0.500000  1
  Au  Au8  1  0.333333  0.666667  0.000000  1
