# generated using pymatgen
data_La7Y(WC2)4
_symmetry_space_group_name_H-M   'P 1'
_cell_length_a   5.82991533
_cell_length_b   5.82991545
_cell_length_c   10.62938609
_cell_angle_alpha   89.21054734
_cell_angle_beta   90.78945721
_cell_angle_gamma   90.09190987
_symmetry_Int_Tables_number   1
_chemical_formula_structural   La7Y(WC2)4
_chemical_formula_sum   'La7 Y1 W4 C8'
_cell_volume   361.20171030
_cell_formula_units_Z   1
loop_
 _symmetry_equiv_pos_site_id
 _symmetry_equiv_pos_as_xyz
  1  'x, y, z'
loop_
 _atom_site_type_symbol
 _atom_site_label
 _atom_site_symmetry_multiplicity
 _atom_site_fract_x
 _atom_site_fract_y
 _atom_site_fract_z
 _atom_site_occupancy
  La  La0  1  0.188991  0.197110  0.341847  1
  La  La1  1  0.804279  0.808178  0.656153  1
  La  La2  1  0.307468  0.692532  0.842549  1
  La  La3  1  0.802890  0.811009  0.341847  1
  La  La4  1  0.191822  0.195721  0.656153  1
  La  La5  1  0.701046  0.298954  0.160642  1
  La  La6  1  0.692586  0.307414  0.846764  1
  Y  Y7  1  0.304740  0.695260  0.152088  1
  W  W8  1  0.182459  0.172172  0.002896  1
  W  W9  1  0.827828  0.817541  0.002896  1
  W  W10  1  0.319398  0.680602  0.496061  1
  W  W11  1  0.671558  0.328442  0.497067  1
  C  C12  1  0.010378  0.989622  0.140741  1
  C  C13  1  0.490768  0.509232  0.353569  1
  C  C14  1  0.498257  0.501743  0.636888  1
  C  C15  1  0.502761  0.989583  0.005963  1
  C  C16  1  0.010417  0.497239  0.005963  1
  C  C17  1  0.000435  0.999565  0.863031  1
  C  C18  1  0.496140  0.004219  0.498443  1
  C  C19  1  0.995781  0.503860  0.498443  1
