# generated using pymatgen
data_In4BiB4Ir9
_symmetry_space_group_name_H-M   'P 1'
_cell_length_a   5.66333100
_cell_length_b   5.66333080
_cell_length_c   10.43066900
_cell_angle_alpha   90.00000000
_cell_angle_beta   90.00000000
_cell_angle_gamma   120.00000699
_symmetry_Int_Tables_number   1
_chemical_formula_structural   In4BiB4Ir9
_chemical_formula_sum   'In4 Bi1 B4 Ir9'
_cell_volume   289.72544624
_cell_formula_units_Z   1
loop_
 _symmetry_equiv_pos_site_id
 _symmetry_equiv_pos_as_xyz
  1  'x, y, z'
loop_
 _atom_site_type_symbol
 _atom_site_label
 _atom_site_symmetry_multiplicity
 _atom_site_fract_x
 _atom_site_fract_y
 _atom_site_fract_z
 _atom_site_occupancy
  In  In0  1  0.000000  0.000000  0.993884  1
  In  In1  1  0.666667  0.333333  0.499989  1
  In  In2  1  0.000000  0.000000  0.334179  1
  In  In3  1  0.333333  0.666667  0.499989  1
  Bi  Bi4  1  0.000000  0.000000  0.642591  1
  B  B5  1  0.666667  0.333333  0.148847  1
  B  B6  1  0.333333  0.666667  0.857524  1
  B  B7  1  0.666667  0.333333  0.857524  1
  B  B8  1  0.333333  0.666667  0.148847  1
  Ir  Ir9  1  0.000000  0.482252  0.276112  1
  Ir  Ir10  1  0.467092  0.000000  0.727449  1
  Ir  Ir11  1  0.482252  0.000000  0.276112  1
  Ir  Ir12  1  0.000000  0.478352  0.001980  1
  Ir  Ir13  1  0.532908  0.532908  0.727449  1
  Ir  Ir14  1  0.000000  0.467092  0.727449  1
  Ir  Ir15  1  0.521648  0.521648  0.001980  1
  Ir  Ir16  1  0.478352  0.000000  0.001980  1
  Ir  Ir17  1  0.517748  0.517748  0.276112  1
