# generated using pymatgen
data_LiMn2GaS4
_symmetry_space_group_name_H-M   'P 1'
_cell_length_a   6.38612700
_cell_length_b   6.75696000
_cell_length_c   7.93607400
_cell_angle_alpha   90.00000000
_cell_angle_beta   90.00000000
_cell_angle_gamma   90.00000000
_symmetry_Int_Tables_number   1
_chemical_formula_structural   LiMn2GaS4
_chemical_formula_sum   'Li2 Mn4 Ga2 S8'
_cell_volume   342.44797921
_cell_formula_units_Z   2
loop_
 _symmetry_equiv_pos_site_id
 _symmetry_equiv_pos_as_xyz
  1  'x, y, z'
loop_
 _atom_site_type_symbol
 _atom_site_label
 _atom_site_symmetry_multiplicity
 _atom_site_fract_x
 _atom_site_fract_y
 _atom_site_fract_z
 _atom_site_occupancy
  Li  Li0  1  0.992850  0.340245  0.500000  1
  Li  Li1  1  0.492850  0.659755  0.000000  1
  Mn  Mn2  1  0.489231  0.171564  0.252801  1
  Mn  Mn3  1  0.989231  0.828436  0.752801  1
  Mn  Mn4  1  0.489231  0.171564  0.747199  1
  Mn  Mn5  1  0.989231  0.828436  0.247199  1
  Ga  Ga6  1  0.490309  0.675527  0.500000  1
  Ga  Ga7  1  0.990309  0.324473  0.000000  1
  S  S8  1  0.107981  0.647712  0.000000  1
  S  S9  1  0.607981  0.352288  0.500000  1
  S  S10  1  0.128610  0.677457  0.500000  1
  S  S11  1  0.628610  0.322543  0.000000  1
  S  S12  1  0.608774  0.830496  0.259254  1
  S  S13  1  0.108774  0.169504  0.759254  1
  S  S14  1  0.108774  0.169504  0.240746  1
  S  S15  1  0.608774  0.830496  0.740746  1
