# generated using pymatgen
data_Ho5NiRuO12
_symmetry_space_group_name_H-M   'P 1'
_cell_length_a   6.76906682
_cell_length_b   6.76906585
_cell_length_c   7.25517102
_cell_angle_alpha   74.38087220
_cell_angle_beta   74.38087165
_cell_angle_gamma   51.19966986
_symmetry_Int_Tables_number   1
_chemical_formula_structural   Ho5NiRuO12
_chemical_formula_sum   'Ho5 Ni1 Ru1 O12'
_cell_volume   247.26172184
_cell_formula_units_Z   1
loop_
 _symmetry_equiv_pos_site_id
 _symmetry_equiv_pos_as_xyz
  1  'x, y, z'
loop_
 _atom_site_type_symbol
 _atom_site_label
 _atom_site_symmetry_multiplicity
 _atom_site_fract_x
 _atom_site_fract_y
 _atom_site_fract_z
 _atom_site_occupancy
  Ho  Ho0  1  0.313385  0.294341  0.358675  1
  Ho  Ho1  1  0.705659  0.686615  0.641325  1
  Ho  Ho2  1  0.311712  0.307701  0.830248  1
  Ho  Ho3  1  0.692299  0.688288  0.169752  1
  Ho  Ho4  1  0.003587  0.996413  0.500000  1
  Ni  Ni5  1  0.745786  0.254214  0.000000  1
  Ru  Ru6  1  0.233502  0.766498  0.000000  1
  O  O7  1  0.901016  0.427655  0.917727  1
  O  O8  1  0.427713  0.899970  0.917281  1
  O  O9  1  0.100030  0.572287  0.082719  1
  O  O10  1  0.572345  0.098984  0.082273  1
  O  O11  1  0.100444  0.595161  0.573499  1
  O  O12  1  0.600356  0.093024  0.575860  1
  O  O13  1  0.906976  0.399644  0.424140  1
  O  O14  1  0.404839  0.899556  0.426501  1
  O  O15  1  0.007343  0.992842  0.815756  1
  O  O16  1  0.007158  0.992657  0.184244  1
  O  O17  1  0.482857  0.517008  0.812766  1
  O  O18  1  0.482992  0.517143  0.187234  1
