# generated using pymatgen
data_Rb6DyTlF12
_symmetry_space_group_name_H-M   'P 1'
_cell_length_a   6.90216364
_cell_length_b   6.64969726
_cell_length_c   11.53998100
_cell_angle_alpha   55.32083730
_cell_angle_beta   90.09068162
_cell_angle_gamma   90.01861290
_symmetry_Int_Tables_number   1
_chemical_formula_structural   Rb6DyTlF12
_chemical_formula_sum   'Rb6 Dy1 Tl1 F12'
_cell_volume   435.56081886
_cell_formula_units_Z   1
loop_
 _symmetry_equiv_pos_site_id
 _symmetry_equiv_pos_as_xyz
  1  'x, y, z'
loop_
 _atom_site_type_symbol
 _atom_site_label
 _atom_site_symmetry_multiplicity
 _atom_site_fract_x
 _atom_site_fract_y
 _atom_site_fract_z
 _atom_site_occupancy
  Rb  Rb0  1  0.500000  0.500000  0.000000  1
  Rb  Rb1  1  0.000000  0.500000  0.500000  1
  Rb  Rb2  1  0.051031  0.729419  0.756010  1
  Rb  Rb3  1  0.948969  0.270581  0.243990  1
  Rb  Rb4  1  0.551230  0.265839  0.748486  1
  Rb  Rb5  1  0.448770  0.734161  0.251514  1
  Dy  Dy6  1  0.500000  0.000000  0.500000  1
  Tl  Tl7  1  0.000000  0.000000  0.000000  1
  F  F8  1  0.763480  0.772207  0.568142  1
  F  F9  1  0.236520  0.227793  0.431858  1
  F  F10  1  0.264081  0.231336  0.933696  1
  F  F11  1  0.735919  0.768664  0.066304  1
  F  F12  1  0.446069  0.891637  0.716286  1
  F  F13  1  0.553931  0.108363  0.283714  1
  F  F14  1  0.945977  0.110084  0.781925  1
  F  F15  1  0.054023  0.889916  0.218075  1
  F  F16  1  0.330909  0.681119  0.548266  1
  F  F17  1  0.669091  0.318881  0.451734  1
  F  F18  1  0.826144  0.317778  0.953070  1
  F  F19  1  0.173856  0.682222  0.046930  1
