# generated using pymatgen
data_Yb2Pr17HoIr12
_symmetry_space_group_name_H-M   'P 1'
_cell_length_a   11.28849700
_cell_length_b   11.28849700
_cell_length_c   6.54822900
_cell_angle_alpha   90.00000000
_cell_angle_beta   90.00000000
_cell_angle_gamma   90.00000000
_symmetry_Int_Tables_number   1
_chemical_formula_structural   Yb2Pr17HoIr12
_chemical_formula_sum   'Yb2 Pr17 Ho1 Ir12'
_cell_volume   834.44189878
_cell_formula_units_Z   1
loop_
 _symmetry_equiv_pos_site_id
 _symmetry_equiv_pos_as_xyz
  1  'x, y, z'
loop_
 _atom_site_type_symbol
 _atom_site_label
 _atom_site_symmetry_multiplicity
 _atom_site_fract_x
 _atom_site_fract_y
 _atom_site_fract_z
 _atom_site_occupancy
  Yb  Yb0  1  0.000000  0.000000  0.500000  1
  Yb  Yb1  1  0.500000  0.500000  0.000000  1
  Pr  Pr2  1  0.285696  0.088094  0.385288  1
  Pr  Pr3  1  0.289246  0.911890  0.884941  1
  Pr  Pr4  1  0.710754  0.088110  0.884941  1
  Pr  Pr5  1  0.714304  0.911906  0.385288  1
  Pr  Pr6  1  0.588638  0.787967  0.885429  1
  Pr  Pr7  1  0.588234  0.207966  0.384181  1
  Pr  Pr8  1  0.411766  0.792034  0.384181  1
  Pr  Pr9  1  0.411362  0.212033  0.885429  1
  Pr  Pr10  1  0.207966  0.411766  0.615819  1
  Pr  Pr11  1  0.212033  0.588638  0.114571  1
  Pr  Pr12  1  0.787967  0.411362  0.114571  1
  Pr  Pr13  1  0.792034  0.588234  0.615819  1
  Pr  Pr14  1  0.911890  0.710754  0.115059  1
  Pr  Pr15  1  0.911906  0.285696  0.614712  1
  Pr  Pr16  1  0.088094  0.714304  0.614712  1
  Pr  Pr17  1  0.088110  0.289246  0.115059  1
  Pr  Pr18  1  0.500000  0.500000  0.500000  1
  Ho  Ho19  1  0.000000  0.000000  0.000000  1
  Ir  Ir20  1  0.850317  0.151644  0.242095  1
  Ir  Ir21  1  0.848356  0.850317  0.757905  1
  Ir  Ir22  1  0.151644  0.149683  0.757905  1
  Ir  Ir23  1  0.149683  0.848356  0.242095  1
  Ir  Ir24  1  0.655205  0.345930  0.746159  1
  Ir  Ir25  1  0.654070  0.655205  0.253841  1
  Ir  Ir26  1  0.345930  0.344795  0.253841  1
  Ir  Ir27  1  0.344795  0.654070  0.746159  1
  Ir  Ir28  1  0.500000  0.000000  0.116871  1
  Ir  Ir29  1  0.500000  0.000000  0.616252  1
  Ir  Ir30  1  0.000000  0.500000  0.883129  1
  Ir  Ir31  1  0.000000  0.500000  0.383748  1
