# generated using pymatgen
data_Nd4LuGa2Pb
_symmetry_space_group_name_H-M   'P 1'
_cell_length_a   9.18521971
_cell_length_b   9.18521941
_cell_length_c   9.18522109
_cell_angle_alpha   128.36610585
_cell_angle_beta   128.36610570
_cell_angle_gamma   76.03269512
_symmetry_Int_Tables_number   1
_chemical_formula_structural   Nd4LuGa2Pb
_chemical_formula_sum   'Nd8 Lu2 Ga4 Pb2'
_cell_volume   463.16430899
_cell_formula_units_Z   2
loop_
 _symmetry_equiv_pos_site_id
 _symmetry_equiv_pos_as_xyz
  1  'x, y, z'
loop_
 _atom_site_type_symbol
 _atom_site_label
 _atom_site_symmetry_multiplicity
 _atom_site_fract_x
 _atom_site_fract_y
 _atom_site_fract_z
 _atom_site_occupancy
  Nd  Nd0  1  0.525719  0.025719  0.835609  1
  Nd  Nd1  1  0.190109  0.690109  0.164391  1
  Nd  Nd2  1  0.025719  0.190109  0.500000  1
  Nd  Nd3  1  0.690109  0.525719  0.500000  1
  Nd  Nd4  1  0.474281  0.974281  0.164391  1
  Nd  Nd5  1  0.809891  0.309891  0.835609  1
  Nd  Nd6  1  0.974281  0.809891  0.500000  1
  Nd  Nd7  1  0.309891  0.474281  0.500000  1
  Lu  Lu8  1  0.500000  0.500000  0.000000  1
  Lu  Lu9  1  0.000000  0.000000  0.000000  1
  Ga  Ga10  1  0.873034  0.373034  0.246067  1
  Ga  Ga11  1  0.126966  0.626966  0.753933  1
  Ga  Ga12  1  0.373034  0.126966  0.500000  1
  Ga  Ga13  1  0.626966  0.873034  0.500000  1
  Pb  Pb14  1  0.250000  0.250000  0.000000  1
  Pb  Pb15  1  0.750000  0.750000  0.000000  1
