# generated using pymatgen
data_Lu8Mg2Zn3CuTe2
_symmetry_space_group_name_H-M   'P 1'
_cell_length_a   8.31911168
_cell_length_b   8.31911335
_cell_length_c   8.35689528
_cell_angle_alpha   125.53815815
_cell_angle_beta   125.53816937
_cell_angle_gamma   80.34180853
_symmetry_Int_Tables_number   1
_chemical_formula_structural   Lu8Mg2Zn3CuTe2
_chemical_formula_sum   'Lu8 Mg2 Zn3 Cu1 Te2'
_cell_volume   370.11590595
_cell_formula_units_Z   1
loop_
 _symmetry_equiv_pos_site_id
 _symmetry_equiv_pos_as_xyz
  1  'x, y, z'
loop_
 _atom_site_type_symbol
 _atom_site_label
 _atom_site_symmetry_multiplicity
 _atom_site_fract_x
 _atom_site_fract_y
 _atom_site_fract_z
 _atom_site_occupancy
  Lu  Lu0  1  0.792581  0.298265  0.805797  1
  Lu  Lu1  1  0.201735  0.707419  0.194203  1
  Lu  Lu2  1  0.486784  0.992467  0.194203  1
  Lu  Lu3  1  0.300438  0.480126  0.500000  1
  Lu  Lu4  1  0.019874  0.199562  0.500000  1
  Lu  Lu5  1  0.507533  0.013216  0.805797  1
  Lu  Lu6  1  0.701648  0.511511  0.500000  1
  Lu  Lu7  1  0.988489  0.798352  0.500000  1
  Mg  Mg8  1  0.000751  0.999905  0.000655  1
  Mg  Mg9  1  0.500095  0.499249  0.999345  1
  Zn  Zn10  1  0.138810  0.638984  0.777795  1
  Zn  Zn11  1  0.861016  0.361190  0.222205  1
  Zn  Zn12  1  0.636587  0.863413  0.500000  1
  Cu  Cu13  1  0.366995  0.133005  0.500000  1
  Te  Te14  1  0.248331  0.251669  0.000000  1
  Te  Te15  1  0.748331  0.751669  0.000000  1
