# generated using pymatgen
data_Ca3Eu(SnN2)2
_symmetry_space_group_name_H-M   'P 1'
_cell_length_a   6.24765717
_cell_length_b   6.24765617
_cell_length_c   12.20277406
_cell_angle_alpha   89.75033396
_cell_angle_beta   90.24966814
_cell_angle_gamma   130.25476657
_symmetry_Int_Tables_number   1
_chemical_formula_structural   Ca3Eu(SnN2)2
_chemical_formula_sum   'Ca6 Eu2 Sn4 N8'
_cell_volume   363.50812393
_cell_formula_units_Z   2
loop_
 _symmetry_equiv_pos_site_id
 _symmetry_equiv_pos_as_xyz
  1  'x, y, z'
loop_
 _atom_site_type_symbol
 _atom_site_label
 _atom_site_symmetry_multiplicity
 _atom_site_fract_x
 _atom_site_fract_y
 _atom_site_fract_z
 _atom_site_occupancy
  Ca  Ca0  1  0.959269  0.040731  0.365664  1
  Ca  Ca1  1  0.040731  0.959269  0.634336  1
  Ca  Ca2  1  0.858744  0.141256  0.954194  1
  Ca  Ca3  1  0.141256  0.858744  0.045806  1
  Ca  Ca4  1  0.638468  0.361532  0.454410  1
  Ca  Ca5  1  0.361532  0.638468  0.545590  1
  Eu  Eu6  1  0.540223  0.459777  0.859033  1
  Eu  Eu7  1  0.459777  0.540223  0.140967  1
  Sn  Sn8  1  0.745622  0.254378  0.686346  1
  Sn  Sn9  1  0.254378  0.745622  0.313654  1
  Sn  Sn10  1  0.756201  0.243799  0.188113  1
  Sn  Sn11  1  0.243799  0.756201  0.811887  1
  N  N12  1  0.562628  0.437372  0.640308  1
  N  N13  1  0.437372  0.562628  0.359692  1
  N  N14  1  0.938024  0.061976  0.140063  1
  N  N15  1  0.061976  0.938024  0.859937  1
  N  N16  1  0.848867  0.151133  0.545385  1
  N  N17  1  0.151133  0.848867  0.454615  1
  N  N18  1  0.650975  0.349025  0.044006  1
  N  N19  1  0.349025  0.650975  0.955994  1
