# generated using pymatgen
data_Mn2PtI9
_symmetry_space_group_name_H-M   'P 1'
_cell_length_a   7.14432684
_cell_length_b   7.14573177
_cell_length_c   21.64034172
_cell_angle_alpha   89.60898147
_cell_angle_beta   90.19555087
_cell_angle_gamma   120.00651781
_symmetry_Int_Tables_number   1
_chemical_formula_structural   Mn2PtI9
_chemical_formula_sum   'Mn4 Pt2 I18'
_cell_volume   956.67434991
_cell_formula_units_Z   2
loop_
 _symmetry_equiv_pos_site_id
 _symmetry_equiv_pos_as_xyz
  1  'x, y, z'
loop_
 _atom_site_type_symbol
 _atom_site_label
 _atom_site_symmetry_multiplicity
 _atom_site_fract_x
 _atom_site_fract_y
 _atom_site_fract_z
 _atom_site_occupancy
  Mn  Mn0  1  0.554208  0.777103  0.000000  1
  Mn  Mn1  1  0.223196  0.778145  0.333187  1
  Mn  Mn2  1  0.223196  0.445052  0.666813  1
  Mn  Mn3  1  0.889785  0.444892  0.000000  1
  Pt  Pt4  1  0.556675  0.444516  0.333358  1
  Pt  Pt5  1  0.556675  0.112161  0.666642  1
  I  I6  1  0.219656  0.481055  0.924179  1
  I  I7  1  0.539504  0.746155  0.260238  1
  I  I8  1  0.219656  0.738603  0.075821  1
  I  I9  1  0.256172  0.797262  0.593577  1
  I  I10  1  0.539504  0.793348  0.739762  1
  I  I11  1  0.256172  0.458910  0.406423  1
  I  I12  1  0.587175  0.105059  0.926520  1
  I  I13  1  0.873599  0.464786  0.260202  1
  I  I14  1  0.587175  0.482117  0.073480  1
  I  I15  1  0.538827  0.413263  0.593498  1
  I  I16  1  0.873599  0.408813  0.739798  1
  I  I17  1  0.538827  0.125563  0.406502  1
  I  I18  1  0.851475  0.111449  0.075657  1
  I  I19  1  0.872533  0.741911  0.406939  1
  I  I20  1  0.851475  0.740027  0.924343  1
  I  I21  1  0.259190  0.128701  0.740298  1
  I  I22  1  0.872533  0.130620  0.593061  1
  I  I23  1  0.259190  0.130489  0.259702  1
