# generated using pymatgen
data_PaVAsBr13
_symmetry_space_group_name_H-M   'P 1'
_cell_length_a   10.68836340
_cell_length_b   10.68836329
_cell_length_c   13.14725700
_cell_angle_alpha   90.00000000
_cell_angle_beta   90.00000000
_cell_angle_gamma   115.44174827
_symmetry_Int_Tables_number   1
_chemical_formula_structural   PaVAsBr13
_chemical_formula_sum   'Pa2 V2 As2 Br26'
_cell_volume   1356.30120472
_cell_formula_units_Z   2
loop_
 _symmetry_equiv_pos_site_id
 _symmetry_equiv_pos_as_xyz
  1  'x, y, z'
loop_
 _atom_site_type_symbol
 _atom_site_label
 _atom_site_symmetry_multiplicity
 _atom_site_fract_x
 _atom_site_fract_y
 _atom_site_fract_z
 _atom_site_occupancy
  Pa  Pa0  1  0.793508  0.206492  0.995137  1
  Pa  Pa1  1  0.206492  0.793508  0.495137  1
  V  V2  1  0.140596  0.859404  0.033084  1
  V  V3  1  0.859404  0.140596  0.533084  1
  As  As4  1  0.547119  0.452881  0.844311  1
  As  As5  1  0.452881  0.547119  0.344311  1
  Br  Br6  1  0.243851  0.077239  0.091857  1
  Br  Br7  1  0.330457  0.669543  0.611800  1
  Br  Br8  1  0.694707  0.625890  0.373758  1
  Br  Br9  1  0.548260  0.451740  0.662940  1
  Br  Br10  1  0.022388  0.314719  0.116042  1
  Br  Br11  1  0.922761  0.756149  0.091857  1
  Br  Br12  1  0.257685  0.742315  0.088833  1
  Br  Br13  1  0.977612  0.685281  0.616042  1
  Br  Br14  1  0.077239  0.243851  0.591857  1
  Br  Br15  1  0.900538  0.434945  0.873058  1
  Br  Br16  1  0.685281  0.977612  0.116042  1
  Br  Br17  1  0.434945  0.900538  0.373058  1
  Br  Br18  1  0.374110  0.305293  0.373758  1
  Br  Br19  1  0.860958  0.139042  0.362632  1
  Br  Br20  1  0.305293  0.374110  0.873758  1
  Br  Br21  1  0.139042  0.860958  0.862632  1
  Br  Br22  1  0.625890  0.694707  0.873758  1
  Br  Br23  1  0.756149  0.922761  0.591857  1
  Br  Br24  1  0.082058  0.917942  0.378132  1
  Br  Br25  1  0.917942  0.082058  0.878132  1
  Br  Br26  1  0.451740  0.548260  0.162940  1
  Br  Br27  1  0.314719  0.022388  0.616042  1
  Br  Br28  1  0.565055  0.099462  0.873058  1
  Br  Br29  1  0.742315  0.257685  0.588833  1
  Br  Br30  1  0.669543  0.330457  0.111800  1
  Br  Br31  1  0.099462  0.565055  0.373058  1
