# generated using pymatgen
data_Zr2Sc2AlGaFe6
_symmetry_space_group_name_H-M   'P 1'
_cell_length_a   5.03420900
_cell_length_b   5.03420885
_cell_length_c   8.10903200
_cell_angle_alpha   90.00000000
_cell_angle_beta   90.00000000
_cell_angle_gamma   119.99999440
_symmetry_Int_Tables_number   1
_chemical_formula_structural   Zr2Sc2AlGaFe6
_chemical_formula_sum   'Zr2 Sc2 Al1 Ga1 Fe6'
_cell_volume   177.97628661
_cell_formula_units_Z   1
loop_
 _symmetry_equiv_pos_site_id
 _symmetry_equiv_pos_as_xyz
  1  'x, y, z'
loop_
 _atom_site_type_symbol
 _atom_site_label
 _atom_site_symmetry_multiplicity
 _atom_site_fract_x
 _atom_site_fract_y
 _atom_site_fract_z
 _atom_site_occupancy
  Zr  Zr0  1  0.666667  0.333333  0.929760  1
  Zr  Zr1  1  0.333333  0.666667  0.070240  1
  Sc  Sc2  1  0.333333  0.666667  0.439041  1
  Sc  Sc3  1  0.666667  0.333333  0.560959  1
  Al  Al4  1  0.000000  0.000000  0.000000  1
  Ga  Ga5  1  0.000000  0.000000  0.500000  1
  Fe  Fe6  1  0.826538  0.173462  0.248529  1
  Fe  Fe7  1  0.826538  0.653076  0.248529  1
  Fe  Fe8  1  0.346924  0.173462  0.248529  1
  Fe  Fe9  1  0.173462  0.826538  0.751471  1
  Fe  Fe10  1  0.173462  0.346924  0.751471  1
  Fe  Fe11  1  0.653076  0.826538  0.751471  1
