# generated using pymatgen
data_Sr(GaAu)3
_symmetry_space_group_name_H-M   'P 1'
_cell_length_a   4.55903600
_cell_length_b   7.28464100
_cell_length_c   8.84274600
_cell_angle_alpha   90.00000000
_cell_angle_beta   90.00000000
_cell_angle_gamma   90.00000000
_symmetry_Int_Tables_number   1
_chemical_formula_structural   Sr(GaAu)3
_chemical_formula_sum   'Sr2 Ga6 Au6'
_cell_volume   293.67591185
_cell_formula_units_Z   2
loop_
 _symmetry_equiv_pos_site_id
 _symmetry_equiv_pos_as_xyz
  1  'x, y, z'
loop_
 _atom_site_type_symbol
 _atom_site_label
 _atom_site_symmetry_multiplicity
 _atom_site_fract_x
 _atom_site_fract_y
 _atom_site_fract_z
 _atom_site_occupancy
  Sr  Sr0  1  0.500000  0.000000  0.745079  1
  Sr  Sr1  1  0.000000  0.500000  0.254921  1
  Ga  Ga2  1  0.000000  0.310522  0.888641  1
  Ga  Ga3  1  0.500000  0.189478  0.111359  1
  Ga  Ga4  1  0.000000  0.689478  0.888641  1
  Ga  Ga5  1  0.000000  0.000000  0.382160  1
  Ga  Ga6  1  0.500000  0.810522  0.111359  1
  Ga  Ga7  1  0.500000  0.500000  0.617840  1
  Au  Au8  1  0.000000  0.718016  0.597288  1
  Au  Au9  1  0.500000  0.781984  0.402712  1
  Au  Au10  1  0.500000  0.500000  0.945914  1
  Au  Au11  1  0.000000  0.000000  0.054086  1
  Au  Au12  1  0.500000  0.218016  0.402712  1
  Au  Au13  1  0.000000  0.281984  0.597288  1
