# generated using pymatgen
data_Y3TmTh4(ReB6)4
_symmetry_space_group_name_H-M   'P 1'
_cell_length_a   3.76570100
_cell_length_b   9.26745834
_cell_length_c   11.69380243
_cell_angle_alpha   90.03103012
_cell_angle_beta   90.00000000
_cell_angle_gamma   90.00000000
_symmetry_Int_Tables_number   1
_chemical_formula_structural   Y3TmTh4(ReB6)4
_chemical_formula_sum   'Y3 Tm1 Th4 Re4 B24'
_cell_volume   408.09583686
_cell_formula_units_Z   1
loop_
 _symmetry_equiv_pos_site_id
 _symmetry_equiv_pos_as_xyz
  1  'x, y, z'
loop_
 _atom_site_type_symbol
 _atom_site_label
 _atom_site_symmetry_multiplicity
 _atom_site_fract_x
 _atom_site_fract_y
 _atom_site_fract_z
 _atom_site_occupancy
  Y  Y0  1  0.000000  0.944738  0.372874  1
  Y  Y1  1  0.000000  0.055245  0.627470  1
  Y  Y2  1  0.000000  0.444978  0.126498  1
  Tm  Tm3  1  0.000000  0.555414  0.872343  1
  Th  Th4  1  0.000000  0.322884  0.414199  1
  Th  Th5  1  0.000000  0.677192  0.586110  1
  Th  Th6  1  0.000000  0.822385  0.085600  1
  Th  Th7  1  0.000000  0.177620  0.914028  1
  Re  Re8  1  0.000000  0.638893  0.319890  1
  Re  Re9  1  0.000000  0.361634  0.680454  1
  Re  Re10  1  0.000000  0.139123  0.179662  1
  Re  Re11  1  0.000000  0.860051  0.820222  1
  B  B12  1  0.500000  0.556060  0.430000  1
  B  B13  1  0.500000  0.444184  0.570552  1
  B  B14  1  0.500000  0.055915  0.069904  1
  B  B15  1  0.500000  0.943354  0.929900  1
  B  B16  1  0.500000  0.748922  0.417177  1
  B  B17  1  0.500000  0.251339  0.583116  1
  B  B18  1  0.500000  0.249153  0.082728  1
  B  B19  1  0.500000  0.749677  0.917043  1
  B  B20  1  0.500000  0.790618  0.266568  1
  B  B21  1  0.500000  0.209945  0.733613  1
  B  B22  1  0.500000  0.290826  0.233248  1
  B  B23  1  0.500000  0.708175  0.766985  1
  B  B24  1  0.500000  0.630816  0.186214  1
  B  B25  1  0.500000  0.370156  0.814142  1
  B  B26  1  0.500000  0.131061  0.313554  1
  B  B27  1  0.500000  0.868529  0.686723  1
  B  B28  1  0.500000  0.985339  0.213704  1
  B  B29  1  0.500000  0.014234  0.786456  1
  B  B30  1  0.500000  0.485264  0.286115  1
  B  B31  1  0.500000  0.515319  0.714640  1
  B  B32  1  0.500000  0.603437  0.027296  1
  B  B33  1  0.500000  0.397543  0.970665  1
  B  B34  1  0.500000  0.104520  0.471469  1
  B  B35  1  0.500000  0.895455  0.528837  1
