# generated using pymatgen
data_Se(SCl6)2
_symmetry_space_group_name_H-M   'P 1'
_cell_length_a   8.46797596
_cell_length_b   8.46797548
_cell_length_c   8.46797607
_cell_angle_alpha   78.96073160
_cell_angle_beta   78.96072931
_cell_angle_gamma   78.96073024
_symmetry_Int_Tables_number   1
_chemical_formula_structural   Se(SCl6)2
_chemical_formula_sum   'Se1 S2 Cl12'
_cell_volume   577.34315118
_cell_formula_units_Z   1
loop_
 _symmetry_equiv_pos_site_id
 _symmetry_equiv_pos_as_xyz
  1  'x, y, z'
loop_
 _atom_site_type_symbol
 _atom_site_label
 _atom_site_symmetry_multiplicity
 _atom_site_fract_x
 _atom_site_fract_y
 _atom_site_fract_z
 _atom_site_occupancy
  Se  Se0  1  0.000000  0.000000  0.000000  1
  S  S1  1  0.208073  0.208073  0.208073  1
  S  S2  1  0.791927  0.791927  0.791927  1
  Cl  Cl3  1  0.834245  0.834245  0.543564  1
  Cl  Cl4  1  0.869967  0.188480  0.188480  1
  Cl  Cl5  1  0.188480  0.188480  0.869967  1
  Cl  Cl6  1  0.188480  0.869967  0.188480  1
  Cl  Cl7  1  0.811520  0.130033  0.811520  1
  Cl  Cl8  1  0.130033  0.811520  0.811520  1
  Cl  Cl9  1  0.811520  0.811520  0.130033  1
  Cl  Cl10  1  0.456436  0.165755  0.165755  1
  Cl  Cl11  1  0.165755  0.165755  0.456436  1
  Cl  Cl12  1  0.165755  0.456436  0.165755  1
  Cl  Cl13  1  0.834245  0.543564  0.834245  1
  Cl  Cl14  1  0.543564  0.834245  0.834245  1
