# generated using pymatgen
data_YbU5O12
_symmetry_space_group_name_H-M   'P 1'
_cell_length_a   6.58894538
_cell_length_b   6.58894613
_cell_length_c   6.58169860
_cell_angle_alpha   80.39184815
_cell_angle_beta   80.39184114
_cell_angle_gamma   120.00835113
_symmetry_Int_Tables_number   1
_chemical_formula_structural   YbU5O12
_chemical_formula_sum   'Yb1 U5 O12'
_cell_volume   233.23931745
_cell_formula_units_Z   1
loop_
 _symmetry_equiv_pos_site_id
 _symmetry_equiv_pos_as_xyz
  1  'x, y, z'
loop_
 _atom_site_type_symbol
 _atom_site_label
 _atom_site_symmetry_multiplicity
 _atom_site_fract_x
 _atom_site_fract_y
 _atom_site_fract_z
 _atom_site_occupancy
  Yb  Yb0  1  0.500000  0.500000  0.500000  1
  U  U1  1  0.833341  0.166659  0.500000  1
  U  U2  1  0.166659  0.833341  0.500000  1
  U  U3  1  0.663995  0.336005  0.000000  1
  U  U4  1  0.000000  0.000000  0.000000  1
  U  U5  1  0.336005  0.663995  0.000000  1
  O  O6  1  0.111967  0.111967  0.631941  1
  O  O7  1  0.707053  0.042542  0.878628  1
  O  O8  1  0.957458  0.292947  0.121372  1
  O  O9  1  0.368998  0.368998  0.886666  1
  O  O10  1  0.042542  0.707053  0.878628  1
  O  O11  1  0.542837  0.200430  0.368029  1
  O  O12  1  0.888033  0.888033  0.368059  1
  O  O13  1  0.457163  0.799570  0.631971  1
  O  O14  1  0.631002  0.631002  0.113334  1
  O  O15  1  0.292947  0.957458  0.121372  1
  O  O16  1  0.799570  0.457163  0.631971  1
  O  O17  1  0.200430  0.542837  0.368029  1
