# generated using pymatgen
data_Tb2Dy3Co19(Si2P)4
_symmetry_space_group_name_H-M   'P 1'
_cell_length_a   12.11174114
_cell_length_b   12.12172799
_cell_length_c   3.69961200
_cell_angle_alpha   90.00000000
_cell_angle_beta   90.00000000
_cell_angle_gamma   120.00007570
_symmetry_Int_Tables_number   1
_chemical_formula_structural   Tb2Dy3Co19(Si2P)4
_chemical_formula_sum   'Tb2 Dy3 Co19 Si8 P4'
_cell_volume   470.38947323
_cell_formula_units_Z   1
loop_
 _symmetry_equiv_pos_site_id
 _symmetry_equiv_pos_as_xyz
  1  'x, y, z'
loop_
 _atom_site_type_symbol
 _atom_site_label
 _atom_site_symmetry_multiplicity
 _atom_site_fract_x
 _atom_site_fract_y
 _atom_site_fract_z
 _atom_site_occupancy
  Tb  Tb0  1  0.333177  0.666815  0.000000  1
  Tb  Tb1  1  0.664936  0.333012  0.000000  1
  Dy  Dy2  1  0.182766  0.998968  0.500000  1
  Dy  Dy3  1  0.000985  0.184403  0.500000  1
  Dy  Dy4  1  0.815113  0.815143  0.500000  1
  Co  Co5  1  0.197705  0.372194  0.000000  1
  Co  Co6  1  0.627057  0.824178  0.000000  1
  Co  Co7  1  0.175326  0.803431  0.000000  1
  Co  Co8  1  0.822398  0.625419  0.000000  1
  Co  Co9  1  0.803075  0.175957  0.000000  1
  Co  Co10  1  0.377701  0.202388  0.000000  1
  Co  Co11  1  0.558006  0.000817  0.000000  1
  Co  Co12  1  0.000399  0.558517  0.000000  1
  Co  Co13  1  0.441237  0.444800  0.000000  1
  Co  Co14  1  0.123864  0.478719  0.500000  1
  Co  Co15  1  0.521353  0.644993  0.500000  1
  Co  Co16  1  0.355331  0.877528  0.500000  1
  Co  Co17  1  0.638042  0.514205  0.500000  1
  Co  Co18  1  0.876633  0.355643  0.500000  1
  Co  Co19  1  0.478630  0.125187  0.500000  1
  Co  Co20  1  0.722967  0.000299  0.500000  1
  Co  Co21  1  0.998883  0.722039  0.500000  1
  Co  Co22  1  0.283241  0.278535  0.500000  1
  Co  Co23  1  0.000791  0.000674  0.000000  1
  Si  Si24  1  0.369896  0.000523  0.000000  1
  Si  Si25  1  0.000206  0.370154  0.000000  1
  Si  Si26  1  0.630080  0.629616  0.000000  1
  Si  Si27  1  0.318244  0.477455  0.500000  1
  Si  Si28  1  0.522727  0.841517  0.500000  1
  Si  Si29  1  0.158877  0.682003  0.500000  1
  Si  Si30  1  0.839602  0.522067  0.500000  1
  Si  Si31  1  0.682278  0.159555  0.500000  1
  P  P32  1  0.478452  0.313636  0.500000  1
  P  P33  1  0.819108  0.000203  0.000000  1
  P  P34  1  0.998546  0.818035  0.000000  1
  P  P35  1  0.182367  0.181369  0.000000  1
