# generated using pymatgen
data_BeB2Mo2Ru5
_symmetry_space_group_name_H-M   'P 1'
_cell_length_a   9.16755700
_cell_length_b   9.16755700
_cell_length_c   2.87259200
_cell_angle_alpha   90.00000000
_cell_angle_beta   90.00000000
_cell_angle_gamma   90.00000000
_symmetry_Int_Tables_number   1
_chemical_formula_structural   BeB2Mo2Ru5
_chemical_formula_sum   'Be2 B4 Mo4 Ru10'
_cell_volume   241.42441318
_cell_formula_units_Z   2
loop_
 _symmetry_equiv_pos_site_id
 _symmetry_equiv_pos_as_xyz
  1  'x, y, z'
loop_
 _atom_site_type_symbol
 _atom_site_label
 _atom_site_symmetry_multiplicity
 _atom_site_fract_x
 _atom_site_fract_y
 _atom_site_fract_z
 _atom_site_occupancy
  Be  Be0  1  0.500000  0.500000  0.000000  1
  Be  Be1  1  0.000000  0.000000  0.000000  1
  B  B2  1  0.628172  0.871828  0.000000  1
  B  B3  1  0.371828  0.128172  0.000000  1
  B  B4  1  0.128172  0.628172  0.000000  1
  B  B5  1  0.871828  0.371828  0.000000  1
  Mo  Mo6  1  0.820295  0.679705  0.000000  1
  Mo  Mo7  1  0.179705  0.320295  0.000000  1
  Mo  Mo8  1  0.320295  0.820295  0.000000  1
  Mo  Mo9  1  0.679705  0.179705  0.000000  1
  Ru  Ru10  1  0.561407  0.707998  0.500000  1
  Ru  Ru11  1  0.438593  0.292002  0.500000  1
  Ru  Ru12  1  0.061407  0.792002  0.500000  1
  Ru  Ru13  1  0.938593  0.207998  0.500000  1
  Ru  Ru14  1  0.292002  0.561407  0.500000  1
  Ru  Ru15  1  0.707998  0.438593  0.500000  1
  Ru  Ru16  1  0.207998  0.061407  0.500000  1
  Ru  Ru17  1  0.792002  0.938593  0.500000  1
  Ru  Ru18  1  0.500000  0.000000  0.500000  1
  Ru  Ru19  1  0.000000  0.500000  0.500000  1
