# generated using pymatgen
data_Yb10Pr8Sc2Si15Pt
_symmetry_space_group_name_H-M   'P 1'
_cell_length_a   7.43914238
_cell_length_b   7.89915113
_cell_length_c   15.02554945
_cell_angle_alpha   89.93477907
_cell_angle_beta   90.25647777
_cell_angle_gamma   90.79369844
_symmetry_Int_Tables_number   1
_chemical_formula_structural   Yb10Pr8Sc2Si15Pt
_chemical_formula_sum   'Yb10 Pr8 Sc2 Si15 Pt1'
_cell_volume   882.85093725
_cell_formula_units_Z   1
loop_
 _symmetry_equiv_pos_site_id
 _symmetry_equiv_pos_as_xyz
  1  'x, y, z'
loop_
 _atom_site_type_symbol
 _atom_site_label
 _atom_site_symmetry_multiplicity
 _atom_site_fract_x
 _atom_site_fract_y
 _atom_site_fract_z
 _atom_site_occupancy
  Yb  Yb0  1  0.324276  0.182464  0.624648  1
  Yb  Yb1  1  0.675317  0.818361  0.374793  1
  Yb  Yb2  1  0.643275  0.995235  0.751248  1
  Yb  Yb3  1  0.175506  0.681195  0.373532  1
  Yb  Yb4  1  0.827774  0.319577  0.879671  1
  Yb  Yb5  1  0.826735  0.317291  0.626372  1
  Yb  Yb6  1  0.844857  0.500480  0.249757  1
  Yb  Yb7  1  0.345980  0.999928  0.249831  1
  Yb  Yb8  1  0.324492  0.181817  0.880955  1
  Yb  Yb9  1  0.158282  0.506573  0.750679  1
  Pr  Pr10  1  0.020047  0.183361  0.399275  1
  Pr  Pr11  1  0.520262  0.316988  0.398504  1
  Pr  Pr12  1  0.476656  0.682826  0.901442  1
  Pr  Pr13  1  0.477530  0.681427  0.599226  1
  Pr  Pr14  1  0.977048  0.817799  0.598119  1
  Pr  Pr15  1  0.976466  0.818420  0.903993  1
  Pr  Pr16  1  0.522750  0.317154  0.097091  1
  Pr  Pr17  1  0.022413  0.183492  0.097139  1
  Sc  Sc18  1  0.175126  0.683143  0.123297  1
  Sc  Sc19  1  0.673381  0.816293  0.123052  1
  Si  Si20  1  0.461527  0.606262  0.238674  1
  Si  Si21  1  0.034234  0.096461  0.753815  1
  Si  Si22  1  0.539395  0.404068  0.752981  1
  Si  Si23  1  0.146125  0.469795  0.533644  1
  Si  Si24  1  0.960182  0.894057  0.238563  1
  Si  Si25  1  0.734284  0.114754  0.242748  1
  Si  Si26  1  0.856470  0.541929  0.042712  1
  Si  Si27  1  0.355448  0.957266  0.043356  1
  Si  Si28  1  0.150740  0.479554  0.973427  1
  Si  Si29  1  0.646828  0.026744  0.535680  1
  Si  Si30  1  0.353179  0.973059  0.461950  1
  Si  Si31  1  0.853678  0.526565  0.462746  1
  Si  Si32  1  0.766165  0.623926  0.751906  1
  Si  Si33  1  0.234249  0.385051  0.242730  1
  Si  Si34  1  0.649638  0.019022  0.971981  1
  Pt  Pt35  1  0.269683  0.877662  0.750459  1
