# generated using pymatgen
data_GdCo2(Sb6Os)2
_symmetry_space_group_name_H-M   'P 1'
_cell_length_a   8.16137486
_cell_length_b   8.15416907
_cell_length_c   8.15416900
_cell_angle_alpha   109.49559791
_cell_angle_beta   109.42557218
_cell_angle_gamma   109.45674861
_symmetry_Int_Tables_number   1
_chemical_formula_structural   GdCo2(Sb6Os)2
_chemical_formula_sum   'Gd1 Co2 Sb12 Os2'
_cell_volume   417.91904321
_cell_formula_units_Z   1
loop_
 _symmetry_equiv_pos_site_id
 _symmetry_equiv_pos_as_xyz
  1  'x, y, z'
loop_
 _atom_site_type_symbol
 _atom_site_label
 _atom_site_symmetry_multiplicity
 _atom_site_fract_x
 _atom_site_fract_y
 _atom_site_fract_z
 _atom_site_occupancy
  Gd  Gd0  1  0.000000  0.000000  0.000000  1
  Co  Co1  1  0.000000  0.499999  0.000000  1
  Co  Co2  1  0.000000  0.000000  0.499999  1
  Sb  Sb3  1  0.330452  0.493539  0.153745  1
  Sb  Sb4  1  0.669548  0.823293  0.163087  1
  Sb  Sb5  1  0.845341  0.339532  0.176417  1
  Sb  Sb6  1  0.172104  0.840120  0.331983  1
  Sb  Sb7  1  0.495038  0.156462  0.338576  1
  Sb  Sb8  1  0.154659  0.331075  0.494191  1
  Sb  Sb9  1  0.845341  0.668925  0.505809  1
  Sb  Sb10  1  0.504962  0.843538  0.661424  1
  Sb  Sb11  1  0.827897  0.159880  0.668017  1
  Sb  Sb12  1  0.154659  0.660468  0.823584  1
  Sb  Sb13  1  0.330452  0.176708  0.836913  1
  Sb  Sb14  1  0.669548  0.506461  0.846255  1
  Os  Os15  1  0.499999  0.000000  0.000000  1
  Os  Os16  1  0.499999  0.499999  0.499999  1
