# generated using pymatgen
data_Sc5Si6P6Ir4Rh15
_symmetry_space_group_name_H-M   'P 1'
_cell_length_a   12.64997300
_cell_length_b   12.64997277
_cell_length_c   3.87776400
_cell_angle_alpha   90.00000000
_cell_angle_beta   90.00000000
_cell_angle_gamma   119.99999798
_symmetry_Int_Tables_number   1
_chemical_formula_structural   Sc5Si6P6Ir4Rh15
_chemical_formula_sum   'Sc5 Si6 P6 Ir4 Rh15'
_cell_volume   537.39200907
_cell_formula_units_Z   1
loop_
 _symmetry_equiv_pos_site_id
 _symmetry_equiv_pos_as_xyz
  1  'x, y, z'
loop_
 _atom_site_type_symbol
 _atom_site_label
 _atom_site_symmetry_multiplicity
 _atom_site_fract_x
 _atom_site_fract_y
 _atom_site_fract_z
 _atom_site_occupancy
  Sc  Sc0  1  0.333333  0.666667  0.000000  1
  Sc  Sc1  1  0.666667  0.333333  0.000000  1
  Sc  Sc2  1  0.817277  0.000750  0.500000  1
  Sc  Sc3  1  0.999250  0.816527  0.500000  1
  Sc  Sc4  1  0.183473  0.182723  0.500000  1
  Si  Si5  1  0.166137  0.482690  0.500000  1
  Si  Si6  1  0.517310  0.683447  0.500000  1
  Si  Si7  1  0.316553  0.833863  0.500000  1
  Si  Si8  1  0.683612  0.517299  0.500000  1
  Si  Si9  1  0.833686  0.316388  0.500000  1
  Si  Si10  1  0.482701  0.166314  0.500000  1
  P  P11  1  0.177621  0.999646  0.000000  1
  P  P12  1  0.000354  0.177975  0.000000  1
  P  P13  1  0.822025  0.822379  0.000000  1
  P  P14  1  0.636650  0.999828  0.000000  1
  P  P15  1  0.000172  0.636822  0.000000  1
  P  P16  1  0.363178  0.363350  0.000000  1
  Ir  Ir17  1  0.810631  0.629940  0.000000  1
  Ir  Ir18  1  0.819310  0.189369  0.000000  1
  Ir  Ir19  1  0.370060  0.180690  0.000000  1
  Ir  Ir20  1  0.000000  0.000000  0.000000  1
  Rh  Rh21  1  0.451906  0.000203  0.000000  1
  Rh  Rh22  1  0.999797  0.451702  0.000000  1
  Rh  Rh23  1  0.548298  0.548094  0.000000  1
  Rh  Rh24  1  0.356540  0.485024  0.500000  1
  Rh  Rh25  1  0.514976  0.871516  0.500000  1
  Rh  Rh26  1  0.128484  0.643460  0.500000  1
  Rh  Rh27  1  0.871252  0.514244  0.500000  1
  Rh  Rh28  1  0.642993  0.128748  0.500000  1
  Rh  Rh29  1  0.485756  0.357007  0.500000  1
  Rh  Rh30  1  0.180834  0.370245  0.000000  1
  Rh  Rh31  1  0.629755  0.810590  0.000000  1
  Rh  Rh32  1  0.189410  0.819166  0.000000  1
  Rh  Rh33  1  0.276434  0.999806  0.500000  1
  Rh  Rh34  1  0.000194  0.276628  0.500000  1
  Rh  Rh35  1  0.723372  0.723566  0.500000  1
