# generated using pymatgen
data_Tb11YRh4
_symmetry_space_group_name_H-M   'P 1'
_cell_length_a   6.30117174
_cell_length_b   7.19142598
_cell_length_c   9.58347200
_cell_angle_alpha   90.00000000
_cell_angle_beta   90.00000000
_cell_angle_gamma   89.91493104
_symmetry_Int_Tables_number   1
_chemical_formula_structural   Tb11YRh4
_chemical_formula_sum   'Tb11 Y1 Rh4'
_cell_volume   434.26890211
_cell_formula_units_Z   1
loop_
 _symmetry_equiv_pos_site_id
 _symmetry_equiv_pos_as_xyz
  1  'x, y, z'
loop_
 _atom_site_type_symbol
 _atom_site_label
 _atom_site_symmetry_multiplicity
 _atom_site_fract_x
 _atom_site_fract_y
 _atom_site_fract_z
 _atom_site_occupancy
  Tb  Tb0  1  0.330619  0.677347  0.063345  1
  Tb  Tb1  1  0.169687  0.177179  0.436837  1
  Tb  Tb2  1  0.669398  0.322703  0.563232  1
  Tb  Tb3  1  0.830442  0.822698  0.936651  1
  Tb  Tb4  1  0.669398  0.322703  0.936768  1
  Tb  Tb5  1  0.830442  0.822698  0.563349  1
  Tb  Tb6  1  0.330619  0.677347  0.436655  1
  Tb  Tb7  1  0.169687  0.177179  0.063163  1
  Tb  Tb8  1  0.634394  0.031971  0.250000  1
  Tb  Tb9  1  0.134206  0.468291  0.750000  1
  Tb  Tb10  1  0.365828  0.968095  0.750000  1
  Y  Y11  1  0.865790  0.531497  0.250000  1
  Rh  Rh12  1  0.061732  0.882649  0.250000  1
  Rh  Rh13  1  0.437637  0.381743  0.250000  1
  Rh  Rh14  1  0.938413  0.117898  0.750000  1
  Rh  Rh15  1  0.561710  0.618001  0.750000  1
