# generated using pymatgen
data_Yb(PO3)2
_symmetry_space_group_name_H-M   'P 1'
_cell_length_a   7.70323668
_cell_length_b   7.70323633
_cell_length_c   10.70369033
_cell_angle_alpha   66.20481845
_cell_angle_beta   66.20481904
_cell_angle_gamma   70.01831988
_symmetry_Int_Tables_number   1
_chemical_formula_structural   Yb(PO3)2
_chemical_formula_sum   'Yb4 P8 O24'
_cell_volume   519.47368290
_cell_formula_units_Z   4
loop_
 _symmetry_equiv_pos_site_id
 _symmetry_equiv_pos_as_xyz
  1  'x, y, z'
loop_
 _atom_site_type_symbol
 _atom_site_label
 _atom_site_symmetry_multiplicity
 _atom_site_fract_x
 _atom_site_fract_y
 _atom_site_fract_z
 _atom_site_occupancy
  Yb  Yb0  1  0.963283  0.036717  0.250000  1
  Yb  Yb1  1  0.036717  0.963283  0.750000  1
  Yb  Yb2  1  0.000000  0.500000  0.000000  1
  Yb  Yb3  1  0.500000  0.000000  0.500000  1
  P  P4  1  0.278169  0.736528  0.023021  1
  P  P5  1  0.263472  0.721831  0.476979  1
  P  P6  1  0.721831  0.263472  0.976979  1
  P  P7  1  0.736528  0.278169  0.523021  1
  P  P8  1  0.316116  0.307727  0.188678  1
  P  P9  1  0.692273  0.683884  0.311322  1
  P  P10  1  0.683884  0.692273  0.811322  1
  P  P11  1  0.307727  0.316116  0.688678  1
  O  O12  1  0.183181  0.900916  0.083577  1
  O  O13  1  0.099084  0.816819  0.416423  1
  O  O14  1  0.816819  0.099084  0.916423  1
  O  O15  1  0.900916  0.183181  0.583577  1
  O  O16  1  0.194774  0.718326  0.923341  1
  O  O17  1  0.281674  0.805226  0.576659  1
  O  O18  1  0.805226  0.281674  0.076659  1
  O  O19  1  0.718326  0.194774  0.423341  1
  O  O20  1  0.494481  0.261108  0.052856  1
  O  O21  1  0.738892  0.505519  0.447144  1
  O  O22  1  0.505519  0.738892  0.947144  1
  O  O23  1  0.261108  0.494481  0.552856  1
  O  O24  1  0.285886  0.538107  0.156651  1
  O  O25  1  0.461893  0.714114  0.343349  1
  O  O26  1  0.714114  0.461893  0.843349  1
  O  O27  1  0.538107  0.285886  0.656651  1
  O  O28  1  0.364289  0.204586  0.325160  1
  O  O29  1  0.795414  0.635711  0.174840  1
  O  O30  1  0.635711  0.795414  0.674840  1
  O  O31  1  0.204586  0.364289  0.825160  1
  O  O32  1  0.142913  0.274244  0.174331  1
  O  O33  1  0.725756  0.857087  0.325669  1
  O  O34  1  0.857087  0.725756  0.825669  1
  O  O35  1  0.274244  0.142913  0.674331  1
