# generated using pymatgen
data_Sc8Cr3B24Ir
_symmetry_space_group_name_H-M   'P 1'
_cell_length_a   3.39748100
_cell_length_b   8.89764545
_cell_length_c   11.19807209
_cell_angle_alpha   90.05003236
_cell_angle_beta   90.00000000
_cell_angle_gamma   90.00000000
_symmetry_Int_Tables_number   1
_chemical_formula_structural   Sc8Cr3B24Ir
_chemical_formula_sum   'Sc8 Cr3 B24 Ir1'
_cell_volume   338.51290207
_cell_formula_units_Z   1
loop_
 _symmetry_equiv_pos_site_id
 _symmetry_equiv_pos_as_xyz
  1  'x, y, z'
loop_
 _atom_site_type_symbol
 _atom_site_label
 _atom_site_symmetry_multiplicity
 _atom_site_fract_x
 _atom_site_fract_y
 _atom_site_fract_z
 _atom_site_occupancy
  Sc  Sc0  1  0.000000  0.946743  0.370443  1
  Sc  Sc1  1  0.000000  0.055965  0.629710  1
  Sc  Sc2  1  0.000000  0.556227  0.870777  1
  Sc  Sc3  1  0.000000  0.178031  0.913706  1
  Sc  Sc4  1  0.000000  0.824776  0.081433  1
  Sc  Sc5  1  0.000000  0.679646  0.590584  1
  Sc  Sc6  1  0.000000  0.315840  0.416297  1
  Sc  Sc7  1  0.000000  0.440849  0.127384  1
  Cr  Cr8  1  0.000000  0.140280  0.181108  1
  Cr  Cr9  1  0.000000  0.360589  0.679365  1
  Cr  Cr10  1  0.000000  0.859824  0.819703  1
  B  B11  1  0.500000  0.369456  0.816767  1
  B  B12  1  0.500000  0.980846  0.211594  1
  B  B13  1  0.500000  0.553095  0.436446  1
  B  B14  1  0.500000  0.294571  0.236651  1
  B  B15  1  0.500000  0.205394  0.736244  1
  B  B16  1  0.500000  0.099825  0.472789  1
  B  B17  1  0.500000  0.795991  0.262355  1
  B  B18  1  0.500000  0.446288  0.565313  1
  B  B19  1  0.500000  0.247827  0.579901  1
  B  B20  1  0.500000  0.478945  0.287517  1
  B  B21  1  0.500000  0.705299  0.763985  1
  B  B22  1  0.500000  0.752901  0.422494  1
  B  B23  1  0.500000  0.519639  0.712125  1
  B  B24  1  0.500000  0.899617  0.527686  1
  B  B25  1  0.500000  0.053637  0.065150  1
  B  B26  1  0.500000  0.600069  0.027211  1
  B  B27  1  0.500000  0.748571  0.920116  1
  B  B28  1  0.500000  0.019671  0.787779  1
  B  B29  1  0.500000  0.399715  0.972361  1
  B  B30  1  0.500000  0.947136  0.934163  1
  B  B31  1  0.500000  0.631423  0.180731  1
  B  B32  1  0.500000  0.251099  0.079163  1
  B  B33  1  0.500000  0.869195  0.683384  1
  B  B34  1  0.500000  0.131004  0.317449  1
  Ir  Ir35  1  0.000000  0.640019  0.320116  1
