# generated using pymatgen
data_HoTm19Ir7Ru5
_symmetry_space_group_name_H-M   'P 1'
_cell_length_a   10.69312038
_cell_length_b   10.69229304
_cell_length_c   6.34932203
_cell_angle_alpha   89.97673746
_cell_angle_beta   89.99262627
_cell_angle_gamma   90.06650601
_symmetry_Int_Tables_number   1
_chemical_formula_structural   HoTm19Ir7Ru5
_chemical_formula_sum   'Ho1 Tm19 Ir7 Ru5'
_cell_volume   725.94268174
_cell_formula_units_Z   1
loop_
 _symmetry_equiv_pos_site_id
 _symmetry_equiv_pos_as_xyz
  1  'x, y, z'
loop_
 _atom_site_type_symbol
 _atom_site_label
 _atom_site_symmetry_multiplicity
 _atom_site_fract_x
 _atom_site_fract_y
 _atom_site_fract_z
 _atom_site_occupancy
  Ho  Ho0  1  0.293315  0.086070  0.376272  1
  Tm  Tm1  1  0.293058  0.913695  0.876760  1
  Tm  Tm2  1  0.707160  0.086413  0.876952  1
  Tm  Tm3  1  0.706993  0.914156  0.375677  1
  Tm  Tm4  1  0.586199  0.793680  0.876779  1
  Tm  Tm5  1  0.587258  0.206713  0.376699  1
  Tm  Tm6  1  0.413888  0.793389  0.376583  1
  Tm  Tm7  1  0.413781  0.206385  0.876079  1
  Tm  Tm8  1  0.206311  0.413872  0.623249  1
  Tm  Tm9  1  0.206390  0.586205  0.123417  1
  Tm  Tm10  1  0.793396  0.412945  0.123337  1
  Tm  Tm11  1  0.793715  0.586343  0.623949  1
  Tm  Tm12  1  0.914006  0.706366  0.123382  1
  Tm  Tm13  1  0.913556  0.292841  0.623021  1
  Tm  Tm14  1  0.086150  0.706930  0.623300  1
  Tm  Tm15  1  0.085710  0.293168  0.124210  1
  Tm  Tm16  1  0.999318  0.000837  0.499422  1
  Tm  Tm17  1  0.999017  0.000479  0.000646  1
  Tm  Tm18  1  0.500138  0.500106  0.000055  1
  Tm  Tm19  1  0.499941  0.499905  0.499967  1
  Ir  Ir20  1  0.846779  0.846462  0.749856  1
  Ir  Ir21  1  0.153315  0.153323  0.750802  1
  Ir  Ir22  1  0.153047  0.846577  0.249835  1
  Ir  Ir23  1  0.652209  0.347776  0.750018  1
  Ir  Ir24  1  0.653002  0.652739  0.249744  1
  Ir  Ir25  1  0.347358  0.347335  0.250048  1
  Ir  Ir26  1  0.347279  0.652754  0.750010  1
  Ru  Ru27  1  0.847371  0.152619  0.249975  1
  Ru  Ru28  1  0.500382  0.000130  0.122323  1
  Ru  Ru29  1  0.500190  0.999882  0.623000  1
  Ru  Ru30  1  0.999996  0.500062  0.877277  1
  Ru  Ru31  1  0.999770  0.499843  0.377356  1
