# generated using pymatgen
data_Yb2Mo3W5C8
_symmetry_space_group_name_H-M   'P 1'
_cell_length_a   8.40370355
_cell_length_b   8.39949257
_cell_length_c   3.24321400
_cell_angle_alpha   90.00000000
_cell_angle_beta   90.00000000
_cell_angle_gamma   90.13187804
_symmetry_Int_Tables_number   1
_chemical_formula_structural   Yb2Mo3W5C8
_chemical_formula_sum   'Yb2 Mo3 W5 C8'
_cell_volume   228.92763943
_cell_formula_units_Z   1
loop_
 _symmetry_equiv_pos_site_id
 _symmetry_equiv_pos_as_xyz
  1  'x, y, z'
loop_
 _atom_site_type_symbol
 _atom_site_label
 _atom_site_symmetry_multiplicity
 _atom_site_fract_x
 _atom_site_fract_y
 _atom_site_fract_z
 _atom_site_occupancy
  Yb  Yb0  1  0.000380  0.000707  0.000000  1
  Yb  Yb1  1  0.499821  0.500006  0.500000  1
  Mo  Mo2  1  0.317289  0.871241  0.500000  1
  Mo  Mo3  1  0.128565  0.318173  0.500000  1
  Mo  Mo4  1  0.682987  0.128110  0.500000  1
  W  W5  1  0.375992  0.181026  0.000000  1
  W  W6  1  0.179113  0.623528  0.000000  1
  W  W7  1  0.623139  0.819842  0.000000  1
  W  W8  1  0.871264  0.681550  0.500000  1
  W  W9  1  0.820352  0.375944  0.000000  1
  C  C10  1  0.767651  0.901028  0.500000  1
  C  C11  1  0.234487  0.098777  0.500000  1
  C  C12  1  0.902356  0.232980  0.500000  1
  C  C13  1  0.273100  0.398941  0.000000  1
  C  C14  1  0.398142  0.727008  0.000000  1
  C  C15  1  0.097384  0.767720  0.500000  1
  C  C16  1  0.601512  0.272352  0.000000  1
  C  C17  1  0.726466  0.601066  0.000000  1
