# generated using pymatgen
data_Er6LuSn23Ir6
_symmetry_space_group_name_H-M   'P 1'
_cell_length_a   9.83485104
_cell_length_b   9.83485141
_cell_length_c   10.10212401
_cell_angle_alpha   89.99681973
_cell_angle_beta   90.00317859
_cell_angle_gamma   120.01024904
_symmetry_Int_Tables_number   1
_chemical_formula_structural   Er6LuSn23Ir6
_chemical_formula_sum   'Er6 Lu1 Sn23 Ir6'
_cell_volume   846.12407780
_cell_formula_units_Z   1
loop_
 _symmetry_equiv_pos_site_id
 _symmetry_equiv_pos_as_xyz
  1  'x, y, z'
loop_
 _atom_site_type_symbol
 _atom_site_label
 _atom_site_symmetry_multiplicity
 _atom_site_fract_x
 _atom_site_fract_y
 _atom_site_fract_z
 _atom_site_occupancy
  Er  Er0  1  0.519201  0.480799  0.693044  1
  Er  Er1  1  0.480810  0.961643  0.306836  1
  Er  Er2  1  0.519194  0.038387  0.693158  1
  Er  Er3  1  0.038357  0.519190  0.306836  1
  Er  Er4  1  0.961613  0.480806  0.693158  1
  Er  Er5  1  0.999979  0.000021  0.000028  1
  Lu  Lu6  1  0.481027  0.518973  0.306726  1
  Sn  Sn7  1  0.119632  0.880368  0.284111  1
  Sn  Sn8  1  0.880370  0.119630  0.715895  1
  Sn  Sn9  1  0.119865  0.239464  0.284140  1
  Sn  Sn10  1  0.880333  0.760708  0.715898  1
  Sn  Sn11  1  0.760536  0.880135  0.284140  1
  Sn  Sn12  1  0.239292  0.119667  0.715898  1
  Sn  Sn13  1  0.777177  0.222823  0.456861  1
  Sn  Sn14  1  0.222815  0.777185  0.543106  1
  Sn  Sn15  1  0.776908  0.554327  0.456760  1
  Sn  Sn16  1  0.222948  0.445642  0.542979  1
  Sn  Sn17  1  0.445673  0.223092  0.456760  1
  Sn  Sn18  1  0.554358  0.777052  0.542979  1
  Sn  Sn19  1  0.352441  0.000049  0.000017  1
  Sn  Sn20  1  0.647568  0.999981  0.000013  1
  Sn  Sn21  1  0.000019  0.352432  0.000013  1
  Sn  Sn22  1  0.999951  0.647559  0.000017  1
  Sn  Sn23  1  0.647501  0.647512  0.000045  1
  Sn  Sn24  1  0.352488  0.352499  0.000045  1
  Sn  Sn25  1  0.333555  0.666445  0.125279  1
  Sn  Sn26  1  0.666661  0.333339  0.874946  1
  Sn  Sn27  1  0.333345  0.666655  0.826522  1
  Sn  Sn28  1  0.666637  0.333363  0.173483  1
  Sn  Sn29  1  0.000000  0.000000  0.500006  1
  Ir  Ir30  1  0.831055  0.168945  0.198563  1
  Ir  Ir31  1  0.168967  0.831033  0.801468  1
  Ir  Ir32  1  0.830620  0.661935  0.198693  1
  Ir  Ir33  1  0.168932  0.337893  0.801441  1
  Ir  Ir34  1  0.338065  0.169380  0.198693  1
  Ir  Ir35  1  0.662107  0.831068  0.801441  1
