# generated using pymatgen
data_ErTm9(Zn2Bi)2
_symmetry_space_group_name_H-M   'P 1'
_cell_length_a   8.52591033
_cell_length_b   8.52224702
_cell_length_c   8.52000853
_cell_angle_alpha   123.70826861
_cell_angle_beta   123.72170467
_cell_angle_gamma   83.70738885
_symmetry_Int_Tables_number   1
_chemical_formula_structural   ErTm9(Zn2Bi)2
_chemical_formula_sum   'Er1 Tm9 Zn4 Bi2'
_cell_volume   410.33037736
_cell_formula_units_Z   1
loop_
 _symmetry_equiv_pos_site_id
 _symmetry_equiv_pos_as_xyz
  1  'x, y, z'
loop_
 _atom_site_type_symbol
 _atom_site_label
 _atom_site_symmetry_multiplicity
 _atom_site_fract_x
 _atom_site_fract_y
 _atom_site_fract_z
 _atom_site_occupancy
  Er  Er0  1  0.295407  0.491704  0.500023  1
  Tm  Tm1  1  0.499972  0.499856  0.000339  1
  Tm  Tm2  1  0.999631  0.999516  0.999660  1
  Tm  Tm3  1  0.508872  0.009129  0.803399  1
  Tm  Tm4  1  0.205463  0.705727  0.196598  1
  Tm  Tm5  1  0.008933  0.205457  0.500001  1
  Tm  Tm6  1  0.706103  0.508730  0.499997  1
  Tm  Tm7  1  0.491222  0.991359  0.196708  1
  Tm  Tm8  1  0.794508  0.294645  0.803283  1
  Tm  Tm9  1  0.990960  0.794641  0.500001  1
  Zn  Zn10  1  0.139825  0.639963  0.780170  1
  Zn  Zn11  1  0.859655  0.359792  0.219827  1
  Zn  Zn12  1  0.639698  0.860043  0.500000  1
  Zn  Zn13  1  0.360140  0.139632  0.499998  1
  Bi  Bi14  1  0.249554  0.249650  0.999493  1
  Bi  Bi15  1  0.750058  0.750156  0.000504  1
