# generated using pymatgen
data_UPbI5Br
_symmetry_space_group_name_H-M   'P 1'
_cell_length_a   7.73492549
_cell_length_b   7.75060365
_cell_length_c   14.22806517
_cell_angle_alpha   91.88430930
_cell_angle_beta   88.77196793
_cell_angle_gamma   119.61372613
_symmetry_Int_Tables_number   1
_chemical_formula_structural   UPbI5Br
_chemical_formula_sum   'U2 Pb2 I10 Br2'
_cell_volume   741.14436377
_cell_formula_units_Z   2
loop_
 _symmetry_equiv_pos_site_id
 _symmetry_equiv_pos_as_xyz
  1  'x, y, z'
loop_
 _atom_site_type_symbol
 _atom_site_label
 _atom_site_symmetry_multiplicity
 _atom_site_fract_x
 _atom_site_fract_y
 _atom_site_fract_z
 _atom_site_occupancy
  U  U0  1  0.000000  0.000000  0.500000  1
  U  U1  1  0.000000  0.000000  0.000000  1
  Pb  Pb2  1  0.666933  0.328381  0.746397  1
  Pb  Pb3  1  0.333067  0.671619  0.253603  1
  I  I4  1  0.002773  0.685305  0.619323  1
  I  I5  1  0.677038  0.680701  0.876321  1
  I  I6  1  0.997227  0.314695  0.380677  1
  I  I7  1  0.322962  0.319299  0.123679  1
  I  I8  1  0.322113  0.324550  0.622215  1
  I  I9  1  0.004788  0.314936  0.880665  1
  I  I10  1  0.677887  0.675450  0.377785  1
  I  I11  1  0.995212  0.685064  0.119335  1
  I  I12  1  0.316872  0.989005  0.876454  1
  I  I13  1  0.683128  0.010995  0.123546  1
  Br  Br14  1  0.714871  0.013417  0.615903  1
  Br  Br15  1  0.285129  0.986583  0.384097  1
