# generated using pymatgen
data_La3Cd3CuPdRu
_symmetry_space_group_name_H-M   'P 1'
_cell_length_a   7.81168000
_cell_length_b   7.81168108
_cell_length_c   4.03305700
_cell_angle_alpha   90.00000000
_cell_angle_beta   90.00000000
_cell_angle_gamma   120.00000388
_symmetry_Int_Tables_number   1
_chemical_formula_structural   La3Cd3CuPdRu
_chemical_formula_sum   'La3 Cd3 Cu1 Pd1 Ru1'
_cell_volume   213.13458309
_cell_formula_units_Z   1
loop_
 _symmetry_equiv_pos_site_id
 _symmetry_equiv_pos_as_xyz
  1  'x, y, z'
loop_
 _atom_site_type_symbol
 _atom_site_label
 _atom_site_symmetry_multiplicity
 _atom_site_fract_x
 _atom_site_fract_y
 _atom_site_fract_z
 _atom_site_occupancy
  La  La0  1  0.425628  0.407824  0.500000  1
  La  La1  1  0.592176  0.017804  0.500000  1
  La  La2  1  0.982196  0.574372  0.500000  1
  Cd  Cd3  1  0.754103  0.758004  0.000000  1
  Cd  Cd4  1  0.241996  0.996099  0.000000  1
  Cd  Cd5  1  0.003901  0.245897  0.000000  1
  Cu  Cu6  1  0.000000  0.000000  0.500000  1
  Pd  Pd7  1  0.333333  0.666667  0.000000  1
  Ru  Ru8  1  0.666667  0.333333  0.000000  1
