# generated using pymatgen
data_Dy3Er5(HgPt)2
_symmetry_space_group_name_H-M   'P 1'
_cell_length_a   9.59292051
_cell_length_b   9.59292066
_cell_length_c   9.59292000
_cell_angle_alpha   60.00000227
_cell_angle_beta   60.00000174
_cell_angle_gamma   59.99999970
_symmetry_Int_Tables_number   1
_chemical_formula_structural   Dy3Er5(HgPt)2
_chemical_formula_sum   'Dy6 Er10 Hg4 Pt4'
_cell_volume   624.21979263
_cell_formula_units_Z   2
loop_
 _symmetry_equiv_pos_site_id
 _symmetry_equiv_pos_as_xyz
  1  'x, y, z'
loop_
 _atom_site_type_symbol
 _atom_site_label
 _atom_site_symmetry_multiplicity
 _atom_site_fract_x
 _atom_site_fract_y
 _atom_site_fract_z
 _atom_site_occupancy
  Dy  Dy0  1  0.936394  0.563606  0.563606  1
  Dy  Dy1  1  0.563606  0.936394  0.936394  1
  Dy  Dy2  1  0.563606  0.936394  0.563606  1
  Dy  Dy3  1  0.936394  0.563605  0.936394  1
  Dy  Dy4  1  0.563606  0.563606  0.936394  1
  Dy  Dy5  1  0.936394  0.936394  0.563605  1
  Er  Er6  1  0.354259  0.354259  0.354259  1
  Er  Er7  1  0.354259  0.354259  0.937225  1
  Er  Er8  1  0.354259  0.937225  0.354259  1
  Er  Er9  1  0.937225  0.354259  0.354259  1
  Er  Er10  1  0.810514  0.189486  0.189486  1
  Er  Er11  1  0.189486  0.810514  0.810514  1
  Er  Er12  1  0.189486  0.810514  0.189486  1
  Er  Er13  1  0.810514  0.189486  0.810514  1
  Er  Er14  1  0.189486  0.189486  0.810514  1
  Er  Er15  1  0.810514  0.810514  0.189486  1
  Hg  Hg16  1  0.586296  0.586296  0.586296  1
  Hg  Hg17  1  0.586296  0.586296  0.241110  1
  Hg  Hg18  1  0.586296  0.241110  0.586296  1
  Hg  Hg19  1  0.241110  0.586296  0.586296  1
  Pt  Pt20  1  0.143791  0.143791  0.143791  1
  Pt  Pt21  1  0.143791  0.143791  0.568628  1
  Pt  Pt22  1  0.143791  0.568628  0.143791  1
  Pt  Pt23  1  0.568628  0.143791  0.143791  1
