# generated using pymatgen
data_Th2CoPdAu
_symmetry_space_group_name_H-M   'P 1'
_cell_length_a   7.57214600
_cell_length_b   7.65833100
_cell_length_c   3.75270600
_cell_angle_alpha   90.00000000
_cell_angle_beta   90.00000000
_cell_angle_gamma   90.00000000
_symmetry_Int_Tables_number   1
_chemical_formula_structural   Th2CoPdAu
_chemical_formula_sum   'Th4 Co2 Pd2 Au2'
_cell_volume   217.61942262
_cell_formula_units_Z   2
loop_
 _symmetry_equiv_pos_site_id
 _symmetry_equiv_pos_as_xyz
  1  'x, y, z'
loop_
 _atom_site_type_symbol
 _atom_site_label
 _atom_site_symmetry_multiplicity
 _atom_site_fract_x
 _atom_site_fract_y
 _atom_site_fract_z
 _atom_site_occupancy
  Th  Th0  1  0.322022  0.191175  0.500001  1
  Th  Th1  1  0.822022  0.308825  0.500001  1
  Th  Th2  1  0.181137  0.650620  0.500001  1
  Th  Th3  1  0.681138  0.849381  0.500001  1
  Co  Co4  1  0.630356  0.129626  0.000000  1
  Co  Co5  1  0.130357  0.370374  0.000000  1
  Pd  Pd6  1  0.867199  0.620545  0.000000  1
  Pd  Pd7  1  0.367197  0.879456  0.000000  1
  Au  Au8  1  0.999286  0.003369  0.000000  1
  Au  Au9  1  0.499286  0.496631  0.000000  1
