# generated using pymatgen
data_Y6Co12Si5Tc
_symmetry_space_group_name_H-M   'P 1'
_cell_length_a   5.19256400
_cell_length_b   5.19256508
_cell_length_c   15.01687500
_cell_angle_alpha   90.00000000
_cell_angle_beta   90.00000000
_cell_angle_gamma   120.00000589
_symmetry_Int_Tables_number   1
_chemical_formula_structural   Y6Co12Si5Tc
_chemical_formula_sum   'Y6 Co12 Si5 Tc1'
_cell_volume   350.65010863
_cell_formula_units_Z   1
loop_
 _symmetry_equiv_pos_site_id
 _symmetry_equiv_pos_as_xyz
  1  'x, y, z'
loop_
 _atom_site_type_symbol
 _atom_site_label
 _atom_site_symmetry_multiplicity
 _atom_site_fract_x
 _atom_site_fract_y
 _atom_site_fract_z
 _atom_site_occupancy
  Y  Y0  1  0.333333  0.666667  0.038415  1
  Y  Y1  1  0.333333  0.666667  0.250683  1
  Y  Y2  1  0.333333  0.666667  0.460657  1
  Y  Y3  1  0.666667  0.333334  0.539343  1
  Y  Y4  1  0.666667  0.333334  0.749317  1
  Y  Y5  1  0.666667  0.333334  0.961585  1
  Co  Co6  1  0.333347  0.166674  0.133594  1
  Co  Co7  1  0.833326  0.166674  0.133594  1
  Co  Co8  1  0.833326  0.666652  0.133594  1
  Co  Co9  1  0.333400  0.166700  0.369859  1
  Co  Co10  1  0.833300  0.166700  0.369859  1
  Co  Co11  1  0.833300  0.666599  0.369859  1
  Co  Co12  1  0.166700  0.333400  0.630140  1
  Co  Co13  1  0.166700  0.833299  0.630140  1
  Co  Co14  1  0.666599  0.833299  0.630140  1
  Co  Co15  1  0.166674  0.333347  0.866406  1
  Co  Co16  1  0.166674  0.833325  0.866406  1
  Co  Co17  1  0.666652  0.833325  0.866406  1
  Si  Si18  1  0.000000  0.000000  0.251795  1
  Si  Si19  1  0.666667  0.333334  0.253398  1
  Si  Si20  1  0.000000  0.000000  0.500000  1
  Si  Si21  1  0.000000  0.000000  0.748205  1
  Si  Si22  1  0.333333  0.666667  0.746602  1
  Tc  Tc23  1  0.000000  0.000000  0.000000  1
