# generated using pymatgen
data_Sc4B8Mo(Os2W)3
_symmetry_space_group_name_H-M   'P 1'
_cell_length_a   8.75414204
_cell_length_b   3.07416900
_cell_length_c   10.03026005
_cell_angle_alpha   90.00000000
_cell_angle_beta   89.98856882
_cell_angle_gamma   90.00000000
_symmetry_Int_Tables_number   1
_chemical_formula_structural   Sc4B8Mo(Os2W)3
_chemical_formula_sum   'Sc4 B8 Mo1 Os6 W3'
_cell_volume   269.93146530
_cell_formula_units_Z   1
loop_
 _symmetry_equiv_pos_site_id
 _symmetry_equiv_pos_as_xyz
  1  'x, y, z'
loop_
 _atom_site_type_symbol
 _atom_site_label
 _atom_site_symmetry_multiplicity
 _atom_site_fract_x
 _atom_site_fract_y
 _atom_site_fract_z
 _atom_site_occupancy
  Sc  Sc0  1  0.164300  0.500000  0.680825  1
  Sc  Sc1  1  0.835793  0.500000  0.319083  1
  Sc  Sc2  1  0.664016  0.500000  0.819069  1
  Sc  Sc3  1  0.335780  0.500000  0.181066  1
  B  B4  1  0.353993  0.500000  0.898676  1
  B  B5  1  0.645995  0.500000  0.101356  1
  B  B6  1  0.466602  0.500000  0.586505  1
  B  B7  1  0.533337  0.500000  0.413461  1
  B  B8  1  0.853961  0.500000  0.601225  1
  B  B9  1  0.145825  0.500000  0.398663  1
  B  B10  1  0.966684  0.500000  0.913441  1
  B  B11  1  0.033420  0.500000  0.086594  1
  Mo  Mo12  1  0.336661  0.000000  0.452340  1
  Os  Os13  1  0.411750  0.000000  0.738670  1
  Os  Os14  1  0.588633  0.000000  0.261302  1
  Os  Os15  1  0.911689  0.000000  0.761418  1
  Os  Os16  1  0.088178  0.000000  0.238778  1
  Os  Os17  1  0.499929  0.000000  0.000135  1
  Os  Os18  1  0.999773  0.000000  0.499861  1
  W  W19  1  0.163844  0.000000  0.952210  1
  W  W20  1  0.836292  0.000000  0.047675  1
  W  W21  1  0.663548  0.000000  0.547645  1
