# generated using pymatgen
data_HoTm7(Hf3Si4)4
_symmetry_space_group_name_H-M   'P 1'
_cell_length_a   7.24495198
_cell_length_b   7.24397902
_cell_length_c   13.29966536
_cell_angle_alpha   89.99702434
_cell_angle_beta   89.97097909
_cell_angle_gamma   90.00080599
_symmetry_Int_Tables_number   1
_chemical_formula_structural   HoTm7(Hf3Si4)4
_chemical_formula_sum   'Ho1 Tm7 Hf12 Si16'
_cell_volume   697.99667283
_cell_formula_units_Z   1
loop_
 _symmetry_equiv_pos_site_id
 _symmetry_equiv_pos_as_xyz
  1  'x, y, z'
loop_
 _atom_site_type_symbol
 _atom_site_label
 _atom_site_symmetry_multiplicity
 _atom_site_fract_x
 _atom_site_fract_y
 _atom_site_fract_z
 _atom_site_occupancy
  Ho  Ho0  1  0.655952  0.004539  0.284827  1
  Tm  Tm1  1  0.996696  0.344645  0.214958  1
  Tm  Tm2  1  0.003676  0.655475  0.715256  1
  Tm  Tm3  1  0.155722  0.496545  0.465490  1
  Tm  Tm4  1  0.503385  0.844046  0.034436  1
  Tm  Tm5  1  0.844533  0.503523  0.965035  1
  Tm  Tm6  1  0.496426  0.155521  0.535124  1
  Tm  Tm7  1  0.344437  0.996326  0.784795  1
  Hf  Hf8  1  0.174451  0.174639  0.999709  1
  Hf  Hf9  1  0.825615  0.825346  0.500203  1
  Hf  Hf10  1  0.325261  0.674277  0.250028  1
  Hf  Hf11  1  0.674661  0.325392  0.749993  1
  Hf  Hf12  1  0.148685  0.996679  0.374613  1
  Hf  Hf13  1  0.851898  0.003262  0.874381  1
  Hf  Hf14  1  0.503221  0.647989  0.624911  1
  Hf  Hf15  1  0.351821  0.496810  0.875300  1
  Hf  Hf16  1  0.495903  0.351898  0.124070  1
  Hf  Hf17  1  0.648127  0.503542  0.375748  1
  Hf  Hf18  1  0.996880  0.148143  0.625772  1
  Hf  Hf19  1  0.003099  0.851359  0.125202  1
  Si  Si20  1  0.360058  0.295922  0.317744  1
  Si  Si21  1  0.639276  0.704993  0.817974  1
  Si  Si22  1  0.205094  0.860747  0.568084  1
  Si  Si23  1  0.139150  0.794865  0.931931  1
  Si  Si24  1  0.795213  0.139172  0.067576  1
  Si  Si25  1  0.861942  0.205824  0.432948  1
  Si  Si26  1  0.295022  0.360761  0.682127  1
  Si  Si27  1  0.705343  0.638095  0.181722  1
  Si  Si28  1  0.296008  0.048556  0.185136  1
  Si  Si29  1  0.702858  0.951760  0.685559  1
  Si  Si30  1  0.450995  0.796532  0.436059  1
  Si  Si31  1  0.202658  0.548350  0.064311  1
  Si  Si32  1  0.548164  0.202791  0.935338  1
  Si  Si33  1  0.797313  0.451976  0.564643  1
  Si  Si34  1  0.048148  0.297262  0.814498  1
  Si  Si35  1  0.952313  0.702440  0.314499  1
