# generated using pymatgen
data_AcLa2(Zn3Ni2)3
_symmetry_space_group_name_H-M   'P 1'
_cell_length_a   9.10912700
_cell_length_b   9.10912641
_cell_length_c   4.20204000
_cell_angle_alpha   90.00000000
_cell_angle_beta   90.00000000
_cell_angle_gamma   119.99999850
_symmetry_Int_Tables_number   1
_chemical_formula_structural   AcLa2(Zn3Ni2)3
_chemical_formula_sum   'Ac1 La2 Zn9 Ni6'
_cell_volume   301.95644709
_cell_formula_units_Z   1
loop_
 _symmetry_equiv_pos_site_id
 _symmetry_equiv_pos_as_xyz
  1  'x, y, z'
loop_
 _atom_site_type_symbol
 _atom_site_label
 _atom_site_symmetry_multiplicity
 _atom_site_fract_x
 _atom_site_fract_y
 _atom_site_fract_z
 _atom_site_occupancy
  Ac  Ac0  1  0.666667  0.333333  0.000000  1
  La  La1  1  0.000000  0.000000  0.500000  1
  La  La2  1  0.333333  0.666667  0.000000  1
  Zn  Zn3  1  0.497953  0.995905  0.500000  1
  Zn  Zn4  1  0.497953  0.502047  0.500000  1
  Zn  Zn5  1  0.004095  0.502047  0.500000  1
  Zn  Zn6  1  0.290559  0.998509  0.000000  1
  Zn  Zn7  1  0.290559  0.292050  0.000000  1
  Zn  Zn8  1  0.001491  0.709441  0.000000  1
  Zn  Zn9  1  0.001491  0.292050  0.000000  1
  Zn  Zn10  1  0.707950  0.709441  0.000000  1
  Zn  Zn11  1  0.707950  0.998509  0.000000  1
  Ni  Ni12  1  0.181477  0.362953  0.500000  1
  Ni  Ni13  1  0.820541  0.179459  0.500000  1
  Ni  Ni14  1  0.358918  0.179459  0.500000  1
  Ni  Ni15  1  0.637047  0.818523  0.500000  1
  Ni  Ni16  1  0.181477  0.818523  0.500000  1
  Ni  Ni17  1  0.820541  0.641082  0.500000  1
