# generated using pymatgen
data_PrNdMn2(RuO5)2
_symmetry_space_group_name_H-M   'P 1'
_cell_length_a   5.70656100
_cell_length_b   7.86261952
_cell_length_c   8.96148059
_cell_angle_alpha   90.04148162
_cell_angle_beta   90.00000000
_cell_angle_gamma   90.00000000
_symmetry_Int_Tables_number   1
_chemical_formula_structural   PrNdMn2(RuO5)2
_chemical_formula_sum   'Pr2 Nd2 Mn4 Ru4 O20'
_cell_volume   402.08824660
_cell_formula_units_Z   2
loop_
 _symmetry_equiv_pos_site_id
 _symmetry_equiv_pos_as_xyz
  1  'x, y, z'
loop_
 _atom_site_type_symbol
 _atom_site_label
 _atom_site_symmetry_multiplicity
 _atom_site_fract_x
 _atom_site_fract_y
 _atom_site_fract_z
 _atom_site_occupancy
  Pr  Pr0  1  0.000000  0.854541  0.826676  1
  Pr  Pr1  1  0.000000  0.145459  0.173324  1
  Nd  Nd2  1  0.000000  0.355026  0.672723  1
  Nd  Nd3  1  0.000000  0.644974  0.327277  1
  Mn  Mn4  1  0.500000  0.081534  0.853312  1
  Mn  Mn5  1  0.500000  0.918466  0.146688  1
  Mn  Mn6  1  0.500000  0.580707  0.646077  1
  Mn  Mn7  1  0.500000  0.419293  0.353923  1
  Ru  Ru8  1  0.279004  0.500000  0.000000  1
  Ru  Ru9  1  0.720870  0.000000  0.500000  1
  Ru  Ru10  1  0.720996  0.500000  0.000000  1
  Ru  Ru11  1  0.279130  0.000000  0.500000  1
  O  O12  1  0.249912  0.902578  0.288910  1
  O  O13  1  0.249912  0.097422  0.711090  1
  O  O14  1  0.750025  0.405195  0.211819  1
  O  O15  1  0.750025  0.594805  0.788181  1
  O  O16  1  0.750088  0.097422  0.711090  1
  O  O17  1  0.750088  0.902578  0.288910  1
  O  O18  1  0.249975  0.594805  0.788181  1
  O  O19  1  0.249975  0.405195  0.211819  1
  O  O20  1  0.500000  0.328392  0.927912  1
  O  O21  1  0.500000  0.671608  0.072088  1
  O  O22  1  0.500000  0.828461  0.572684  1
  O  O23  1  0.500000  0.171539  0.427316  1
  O  O24  1  0.268048  0.000000  0.000000  1
  O  O25  1  0.734108  0.500000  0.500000  1
  O  O26  1  0.731952  0.000000  0.000000  1
  O  O27  1  0.265892  0.500000  0.500000  1
  O  O28  1  0.000000  0.154160  0.449313  1
  O  O29  1  0.000000  0.845840  0.550687  1
  O  O30  1  0.000000  0.653423  0.052793  1
  O  O31  1  0.000000  0.346577  0.947207  1
