# generated using pymatgen
data_TbNbCrB6
_symmetry_space_group_name_H-M   'P 1'
_cell_length_a   3.42191200
_cell_length_b   8.94584300
_cell_length_c   11.32286800
_cell_angle_alpha   90.00000000
_cell_angle_beta   90.00000000
_cell_angle_gamma   90.00000000
_symmetry_Int_Tables_number   1
_chemical_formula_structural   TbNbCrB6
_chemical_formula_sum   'Tb4 Nb4 Cr4 B24'
_cell_volume   346.61436153
_cell_formula_units_Z   4
loop_
 _symmetry_equiv_pos_site_id
 _symmetry_equiv_pos_as_xyz
  1  'x, y, z'
loop_
 _atom_site_type_symbol
 _atom_site_label
 _atom_site_symmetry_multiplicity
 _atom_site_fract_x
 _atom_site_fract_y
 _atom_site_fract_z
 _atom_site_occupancy
  Tb  Tb0  1  0.000000  0.822205  0.085858  1
  Tb  Tb1  1  0.000000  0.177795  0.914142  1
  Tb  Tb2  1  0.000000  0.322205  0.414142  1
  Tb  Tb3  1  0.000000  0.677795  0.585858  1
  Nb  Nb4  1  0.000000  0.444846  0.127803  1
  Nb  Nb5  1  0.000000  0.555154  0.872197  1
  Nb  Nb6  1  0.000000  0.944846  0.372197  1
  Nb  Nb7  1  0.000000  0.055154  0.627803  1
  Cr  Cr8  1  0.000000  0.143592  0.183660  1
  Cr  Cr9  1  0.000000  0.856408  0.816340  1
  Cr  Cr10  1  0.000000  0.643592  0.316340  1
  Cr  Cr11  1  0.000000  0.356408  0.683660  1
  B  B12  1  0.500000  0.054598  0.067924  1
  B  B13  1  0.500000  0.945402  0.932076  1
  B  B14  1  0.500000  0.554598  0.432076  1
  B  B15  1  0.500000  0.445402  0.567924  1
  B  B16  1  0.500000  0.253523  0.082997  1
  B  B17  1  0.500000  0.746477  0.917003  1
  B  B18  1  0.500000  0.753523  0.417003  1
  B  B19  1  0.500000  0.246477  0.582997  1
  B  B20  1  0.500000  0.296403  0.236009  1
  B  B21  1  0.500000  0.703597  0.763991  1
  B  B22  1  0.500000  0.796403  0.263991  1
  B  B23  1  0.500000  0.203597  0.736009  1
  B  B24  1  0.500000  0.129733  0.317250  1
  B  B25  1  0.500000  0.870267  0.682750  1
  B  B26  1  0.500000  0.629733  0.182750  1
  B  B27  1  0.500000  0.370267  0.817250  1
  B  B28  1  0.500000  0.482310  0.286416  1
  B  B29  1  0.500000  0.517690  0.713584  1
  B  B30  1  0.500000  0.982310  0.213584  1
  B  B31  1  0.500000  0.017690  0.786416  1
  B  B32  1  0.500000  0.099002  0.473883  1
  B  B33  1  0.500000  0.900998  0.526117  1
  B  B34  1  0.500000  0.599002  0.026117  1
  B  B35  1  0.500000  0.400998  0.973883  1
