# generated using pymatgen
data_Sc4Al24PdPt8
_symmetry_space_group_name_H-M   'P 1'
_cell_length_a   7.45643802
_cell_length_b   7.47418216
_cell_length_c   13.04565400
_cell_angle_alpha   84.69861882
_cell_angle_beta   79.15522900
_cell_angle_gamma   59.92858932
_symmetry_Int_Tables_number   1
_chemical_formula_structural   Sc4Al24PdPt8
_chemical_formula_sum   'Sc4 Al24 Pd1 Pt8'
_cell_volume   617.94694074
_cell_formula_units_Z   1
loop_
 _symmetry_equiv_pos_site_id
 _symmetry_equiv_pos_as_xyz
  1  'x, y, z'
loop_
 _atom_site_type_symbol
 _atom_site_label
 _atom_site_symmetry_multiplicity
 _atom_site_fract_x
 _atom_site_fract_y
 _atom_site_fract_z
 _atom_site_occupancy
  Sc  Sc0  1  0.393430  0.168642  0.808714  1
  Sc  Sc1  1  0.606570  0.831358  0.191286  1
  Sc  Sc2  1  0.733499  0.498914  0.808731  1
  Sc  Sc3  1  0.266501  0.501086  0.191269  1
  Al  Al4  1  0.682317  0.833637  0.941844  1
  Al  Al5  1  0.317683  0.166363  0.058156  1
  Al  Al6  1  0.146073  0.832643  0.562743  1
  Al  Al7  1  0.853927  0.167357  0.437257  1
  Al  Al8  1  0.479556  0.166925  0.559888  1
  Al  Al9  1  0.520444  0.833075  0.440112  1
  Al  Al10  1  0.221862  0.165333  0.323265  1
  Al  Al11  1  0.778138  0.834667  0.676735  1
  Al  Al12  1  0.437641  0.504033  0.676971  1
  Al  Al13  1  0.562359  0.495967  0.323029  1
  Al  Al14  1  0.107352  0.163285  0.676004  1
  Al  Al15  1  0.892648  0.836715  0.323996  1
  Al  Al16  1  0.356623  0.496234  0.941803  1
  Al  Al17  1  0.643377  0.503766  0.058197  1
  Al  Al18  1  0.016901  0.171001  0.949112  1
  Al  Al19  1  0.983099  0.828999  0.050888  1
  Al  Al20  1  0.187089  0.499393  0.439942  1
  Al  Al21  1  0.812911  0.500607  0.560058  1
  Al  Al22  1  0.730701  0.164189  0.182917  1
  Al  Al23  1  0.269299  0.835811  0.817083  1
  Al  Al24  1  0.060919  0.625961  0.816517  1
  Al  Al25  1  0.939081  0.374039  0.183483  1
  Al  Al26  1  0.850869  0.045806  0.816589  1
  Al  Al27  1  0.149131  0.954194  0.183412  1
  Pd  Pd28  1  0.000000  0.500000  0.000000  1
  Pt  Pt29  1  0.119975  0.491631  0.639284  1
  Pt  Pt30  1  0.880025  0.508369  0.360716  1
  Pt  Pt31  1  0.657342  0.171423  0.999933  1
  Pt  Pt32  1  0.342658  0.828577  0.000067  1
  Pt  Pt33  1  0.537702  0.166557  0.360394  1
  Pt  Pt34  1  0.462298  0.833443  0.639606  1
  Pt  Pt35  1  0.778423  0.175496  0.637965  1
  Pt  Pt36  1  0.221577  0.824504  0.362035  1
