# generated using pymatgen
data_HoLu11GaNi4Pb
_symmetry_space_group_name_H-M   'P 1'
_cell_length_a   8.21616203
_cell_length_b   8.21357280
_cell_length_c   8.21616261
_cell_angle_alpha   112.22607829
_cell_angle_beta   110.26515351
_cell_angle_gamma   105.99650169
_symmetry_Int_Tables_number   1
_chemical_formula_structural   HoLu11GaNi4Pb
_chemical_formula_sum   'Ho1 Lu11 Ga1 Ni4 Pb1'
_cell_volume   425.45337370
_cell_formula_units_Z   1
loop_
 _symmetry_equiv_pos_site_id
 _symmetry_equiv_pos_as_xyz
  1  'x, y, z'
loop_
 _atom_site_type_symbol
 _atom_site_label
 _atom_site_symmetry_multiplicity
 _atom_site_fract_x
 _atom_site_fract_y
 _atom_site_fract_z
 _atom_site_occupancy
  Ho  Ho0  1  0.677305  0.985081  0.307776  1
  Lu  Lu1  1  0.429807  0.230967  0.200570  1
  Lu  Lu2  1  0.567909  0.768624  0.797674  1
  Lu  Lu3  1  0.030397  0.230967  0.801159  1
  Lu  Lu4  1  0.970950  0.768624  0.200716  1
  Lu  Lu5  1  0.180789  0.284822  0.464069  1
  Lu  Lu6  1  0.820720  0.715295  0.536985  1
  Lu  Lu7  1  0.178312  0.715295  0.894575  1
  Lu  Lu8  1  0.820752  0.284822  0.104033  1
  Lu  Lu9  1  0.324343  0.633994  0.309652  1
  Lu  Lu10  1  0.676180  0.366620  0.690439  1
  Lu  Lu11  1  0.323646  0.014198  0.690552  1
  Ga  Ga12  1  0.998651  0.998651  0.999999  1
  Ni  Ni13  1  0.347517  0.000792  0.349408  1
  Ni  Ni14  1  0.651384  0.000792  0.653275  1
  Ni  Ni15  1  0.122871  0.622534  0.499663  1
  Ni  Ni16  1  0.879062  0.379745  0.500683  1
  Pb  Pb17  1  0.499402  0.498176  0.998773  1
