# generated using pymatgen
data_Tb4Ga16Ni2Mo
_symmetry_space_group_name_H-M   'P 1'
_cell_length_a   6.11684100
_cell_length_b   6.11684100
_cell_length_c   11.13783700
_cell_angle_alpha   90.00000000
_cell_angle_beta   90.00000000
_cell_angle_gamma   90.00000000
_symmetry_Int_Tables_number   1
_chemical_formula_structural   Tb4Ga16Ni2Mo
_chemical_formula_sum   'Tb4 Ga16 Ni2 Mo1'
_cell_volume   416.73045589
_cell_formula_units_Z   1
loop_
 _symmetry_equiv_pos_site_id
 _symmetry_equiv_pos_as_xyz
  1  'x, y, z'
loop_
 _atom_site_type_symbol
 _atom_site_label
 _atom_site_symmetry_multiplicity
 _atom_site_fract_x
 _atom_site_fract_y
 _atom_site_fract_z
 _atom_site_occupancy
  Tb  Tb0  1  0.500000  0.000000  0.808388  1
  Tb  Tb1  1  0.000000  0.500000  0.808388  1
  Tb  Tb2  1  0.500000  0.000000  0.191612  1
  Tb  Tb3  1  0.000000  0.500000  0.191612  1
  Ga  Ga4  1  0.249376  0.249376  0.616127  1
  Ga  Ga5  1  0.750624  0.750624  0.616127  1
  Ga  Ga6  1  0.750624  0.249376  0.616127  1
  Ga  Ga7  1  0.249376  0.750624  0.616127  1
  Ga  Ga8  1  0.750624  0.750624  0.383873  1
  Ga  Ga9  1  0.249376  0.249376  0.383873  1
  Ga  Ga10  1  0.249376  0.750624  0.383873  1
  Ga  Ga11  1  0.750624  0.249376  0.383873  1
  Ga  Ga12  1  0.289000  0.289000  0.000000  1
  Ga  Ga13  1  0.711000  0.711000  0.000000  1
  Ga  Ga14  1  0.711000  0.289000  0.000000  1
  Ga  Ga15  1  0.289000  0.711000  0.000000  1
  Ga  Ga16  1  0.500000  0.500000  0.796335  1
  Ga  Ga17  1  0.500000  0.500000  0.203665  1
  Ga  Ga18  1  0.000000  0.000000  0.769026  1
  Ga  Ga19  1  0.000000  0.000000  0.230974  1
  Ni  Ni20  1  0.500000  0.000000  0.500000  1
  Ni  Ni21  1  0.000000  0.500000  0.500000  1
  Mo  Mo22  1  0.000000  0.000000  0.000000  1
