# generated using pymatgen
data_Sr5Ca(PdPb)4
_symmetry_space_group_name_H-M   'P 1'
_cell_length_a   6.17309100
_cell_length_b   9.11586714
_cell_length_c   14.52474936
_cell_angle_alpha   89.62754471
_cell_angle_beta   90.00000000
_cell_angle_gamma   90.00000000
_symmetry_Int_Tables_number   1
_chemical_formula_structural   Sr5Ca(PdPb)4
_chemical_formula_sum   'Sr10 Ca2 Pd8 Pb8'
_cell_volume   817.33507491
_cell_formula_units_Z   2
loop_
 _symmetry_equiv_pos_site_id
 _symmetry_equiv_pos_as_xyz
  1  'x, y, z'
loop_
 _atom_site_type_symbol
 _atom_site_label
 _atom_site_symmetry_multiplicity
 _atom_site_fract_x
 _atom_site_fract_y
 _atom_site_fract_z
 _atom_site_occupancy
  Sr  Sr0  1  0.153661  0.602405  0.099831  1
  Sr  Sr1  1  0.153661  0.897595  0.900169  1
  Sr  Sr2  1  0.848240  0.098318  0.404627  1
  Sr  Sr3  1  0.848240  0.401682  0.595373  1
  Sr  Sr4  1  0.848755  0.396184  0.899781  1
  Sr  Sr5  1  0.848755  0.103816  0.100219  1
  Sr  Sr6  1  0.357715  0.242191  0.251924  1
  Sr  Sr7  1  0.357715  0.257809  0.748076  1
  Sr  Sr8  1  0.643777  0.739000  0.251484  1
  Sr  Sr9  1  0.643777  0.761000  0.748516  1
  Ca  Ca10  1  0.158311  0.891973  0.599208  1
  Ca  Ca11  1  0.158311  0.608027  0.400792  1
  Pd  Pd12  1  0.623069  0.466055  0.088879  1
  Pd  Pd13  1  0.623069  0.033945  0.911121  1
  Pd  Pd14  1  0.371250  0.963692  0.416660  1
  Pd  Pd15  1  0.371250  0.536308  0.583340  1
  Pd  Pd16  1  0.380960  0.534484  0.911048  1
  Pd  Pd17  1  0.380960  0.965516  0.088952  1
  Pd  Pd18  1  0.610823  0.030332  0.588738  1
  Pd  Pd19  1  0.610823  0.469668  0.411262  1
  Pb  Pb20  1  0.358622  0.250000  0.000000  1
  Pb  Pb21  1  0.644227  0.750000  0.500000  1
  Pb  Pb22  1  0.644554  0.750000  0.000000  1
  Pb  Pb23  1  0.350885  0.250000  0.500000  1
  Pb  Pb24  1  0.857531  0.394159  0.254370  1
  Pb  Pb25  1  0.857531  0.105841  0.745630  1
  Pb  Pb26  1  0.146766  0.890949  0.252239  1
  Pb  Pb27  1  0.146766  0.609051  0.747761  1
