# generated using pymatgen
data_Ca10ReSnN10
_symmetry_space_group_name_H-M   'P 1'
_cell_length_a   6.97333234
_cell_length_b   6.97333120
_cell_length_c   8.97953826
_cell_angle_alpha   80.30056547
_cell_angle_beta   80.30056464
_cell_angle_gamma   59.86292539
_symmetry_Int_Tables_number   1
_chemical_formula_structural   Ca10ReSnN10
_chemical_formula_sum   'Ca10 Re1 Sn1 N10'
_cell_volume   370.42267344
_cell_formula_units_Z   1
loop_
 _symmetry_equiv_pos_site_id
 _symmetry_equiv_pos_as_xyz
  1  'x, y, z'
loop_
 _atom_site_type_symbol
 _atom_site_label
 _atom_site_symmetry_multiplicity
 _atom_site_fract_x
 _atom_site_fract_y
 _atom_site_fract_z
 _atom_site_occupancy
  Ca  Ca0  1  0.876957  0.353125  0.827850  1
  Ca  Ca1  1  0.873619  0.873619  0.820028  1
  Ca  Ca2  1  0.739277  0.739277  0.532718  1
  Ca  Ca3  1  0.749377  0.249274  0.514663  1
  Ca  Ca4  1  0.632400  0.136874  0.149441  1
  Ca  Ca5  1  0.353125  0.876957  0.827850  1
  Ca  Ca6  1  0.249274  0.749377  0.514663  1
  Ca  Ca7  1  0.241951  0.241951  0.505318  1
  Ca  Ca8  1  0.139133  0.139133  0.158369  1
  Ca  Ca9  1  0.136874  0.632400  0.149441  1
  Re  Re10  1  0.631878  0.631878  0.227927  1
  Sn  Sn11  1  0.369747  0.369747  0.778177  1
  N  N12  1  0.903463  0.473376  0.313802  1
  N  N13  1  0.995512  0.995512  0.016232  1
  N  N14  1  0.675077  0.675077  0.022178  1
  N  N15  1  0.547680  0.547680  0.684306  1
  N  N16  1  0.473376  0.903463  0.313802  1
  N  N17  1  0.549667  0.066980  0.668098  1
  N  N18  1  0.475880  0.475880  0.295518  1
  N  N19  1  0.319132  0.319132  0.009743  1
  N  N20  1  0.061907  0.061907  0.647585  1
  N  N21  1  0.066980  0.549667  0.668098  1
