# generated using pymatgen
data_DyHo2Tm2Sb3
_symmetry_space_group_name_H-M   'P 1'
_cell_length_a   6.24220400
_cell_length_b   8.93528216
_cell_length_c   8.93301811
_cell_angle_alpha   120.00838755
_cell_angle_beta   90.00000000
_cell_angle_gamma   90.00000000
_symmetry_Int_Tables_number   1
_chemical_formula_structural   DyHo2Tm2Sb3
_chemical_formula_sum   'Dy2 Ho4 Tm4 Sb6'
_cell_volume   431.45783810
_cell_formula_units_Z   2
loop_
 _symmetry_equiv_pos_site_id
 _symmetry_equiv_pos_as_xyz
  1  'x, y, z'
loop_
 _atom_site_type_symbol
 _atom_site_label
 _atom_site_symmetry_multiplicity
 _atom_site_fract_x
 _atom_site_fract_y
 _atom_site_fract_z
 _atom_site_occupancy
  Dy  Dy0  1  0.250001  0.246742  0.246731  1
  Dy  Dy1  1  0.250001  0.000011  0.753269  1
  Ho  Ho2  1  0.749999  0.246721  0.000000  1
  Ho  Ho3  1  0.750001  0.753275  0.753310  1
  Ho  Ho4  1  0.750001  0.999965  0.246690  1
  Ho  Ho5  1  0.249999  0.753255  0.000000  1
  Tm  Tm6  1  0.499969  0.333338  0.666666  1
  Tm  Tm7  1  0.499969  0.666671  0.333334  1
  Tm  Tm8  1  0.000029  0.666675  0.333334  1
  Tm  Tm9  1  0.000029  0.333342  0.666666  1
  Sb  Sb10  1  0.749999  0.610517  0.000000  1
  Sb  Sb11  1  0.750001  0.389505  0.389504  1
  Sb  Sb12  1  0.750001  0.000001  0.610496  1
  Sb  Sb13  1  0.249999  0.389638  0.000000  1
  Sb  Sb14  1  0.250001  0.610458  0.610572  1
  Sb  Sb15  1  0.250001  0.999886  0.389428  1
