# generated using pymatgen
data_Li2SbRh3O8
_symmetry_space_group_name_H-M   'P 1'
_cell_length_a   6.17646326
_cell_length_b   10.62500233
_cell_length_c   6.17471402
_cell_angle_alpha   73.10896664
_cell_angle_beta   119.99320468
_cell_angle_gamma   90.00923742
_symmetry_Int_Tables_number   1
_chemical_formula_structural   Li2SbRh3O8
_chemical_formula_sum   'Li4 Sb2 Rh6 O16'
_cell_volume   330.62402785
_cell_formula_units_Z   2
loop_
 _symmetry_equiv_pos_site_id
 _symmetry_equiv_pos_as_xyz
  1  'x, y, z'
loop_
 _atom_site_type_symbol
 _atom_site_label
 _atom_site_symmetry_multiplicity
 _atom_site_fract_x
 _atom_site_fract_y
 _atom_site_fract_z
 _atom_site_occupancy
  Li  Li0  1  0.935842  0.192501  0.871737  1
  Li  Li1  1  0.435843  0.692504  0.871749  1
  Li  Li2  1  0.564179  0.307485  0.128266  1
  Li  Li3  1  0.064172  0.807480  0.128254  1
  Sb  Sb4  1  0.750023  0.749970  0.500019  1
  Sb  Sb5  1  0.250023  0.249971  0.500016  1
  Rh  Rh6  1  0.499937  0.000012  0.999760  1
  Rh  Rh7  1  0.499841  0.000015  0.499995  1
  Rh  Rh8  1  0.500150  0.500000  0.500139  1
  Rh  Rh9  1  0.999889  0.499997  0.999890  1
  Rh  Rh10  1  0.999959  0.499982  0.500141  1
  Rh  Rh11  1  0.000121  0.000038  0.500032  1
  O  O12  1  0.868252  0.394982  0.736676  1
  O  O13  1  0.368237  0.894987  0.736611  1
  O  O14  1  0.631742  0.105011  0.263328  1
  O  O15  1  0.131762  0.604994  0.263403  1
  O  O16  1  0.092032  0.621250  0.735439  1
  O  O17  1  0.592035  0.121245  0.735376  1
  O  O18  1  0.643426  0.621225  0.735502  1
  O  O19  1  0.143444  0.121204  0.735479  1
  O  O20  1  0.643425  0.621207  0.286756  1
  O  O21  1  0.143384  0.121219  0.286684  1
  O  O22  1  0.856562  0.878800  0.713214  1
  O  O23  1  0.356596  0.378792  0.713276  1
  O  O24  1  0.856574  0.878796  0.264517  1
  O  O25  1  0.356548  0.378820  0.264541  1
  O  O26  1  0.407997  0.878754  0.264566  1
  O  O27  1  0.908005  0.378761  0.264633  1
