# generated using pymatgen
data_Tb2Dy2TmSn4
_symmetry_space_group_name_H-M   'P 1'
_cell_length_a   8.01639900
_cell_length_b   8.17491100
_cell_length_c   15.46249000
_cell_angle_alpha   90.00000000
_cell_angle_beta   90.00000000
_cell_angle_gamma   90.00000000
_symmetry_Int_Tables_number   1
_chemical_formula_structural   Tb2Dy2TmSn4
_chemical_formula_sum   'Tb8 Dy8 Tm4 Sn16'
_cell_volume   1013.30874377
_cell_formula_units_Z   4
loop_
 _symmetry_equiv_pos_site_id
 _symmetry_equiv_pos_as_xyz
  1  'x, y, z'
loop_
 _atom_site_type_symbol
 _atom_site_label
 _atom_site_symmetry_multiplicity
 _atom_site_fract_x
 _atom_site_fract_y
 _atom_site_fract_z
 _atom_site_occupancy
  Tb  Tb0  1  0.519884  0.320451  0.902643  1
  Tb  Tb1  1  0.019884  0.179549  0.597357  1
  Tb  Tb2  1  0.480116  0.679549  0.402643  1
  Tb  Tb3  1  0.980116  0.820451  0.097357  1
  Tb  Tb4  1  0.480116  0.679549  0.097357  1
  Tb  Tb5  1  0.980116  0.820451  0.402643  1
  Tb  Tb6  1  0.519884  0.320451  0.597357  1
  Tb  Tb7  1  0.019884  0.179549  0.902643  1
  Dy  Dy8  1  0.366895  0.837134  0.877919  1
  Dy  Dy9  1  0.866895  0.662866  0.622081  1
  Dy  Dy10  1  0.633105  0.162866  0.377919  1
  Dy  Dy11  1  0.133105  0.337134  0.122081  1
  Dy  Dy12  1  0.633105  0.162866  0.122081  1
  Dy  Dy13  1  0.133105  0.337134  0.377919  1
  Dy  Dy14  1  0.366895  0.837134  0.622081  1
  Dy  Dy15  1  0.866895  0.662866  0.877919  1
  Tm  Tm16  1  0.198277  0.502746  0.750000  1
  Tm  Tm17  1  0.698277  0.997254  0.750000  1
  Tm  Tm18  1  0.801723  0.497254  0.250000  1
  Tm  Tm19  1  0.301723  0.002746  0.250000  1
  Sn  Sn20  1  0.293141  0.035918  0.042559  1
  Sn  Sn21  1  0.793141  0.464082  0.457441  1
  Sn  Sn22  1  0.706859  0.964082  0.542559  1
  Sn  Sn23  1  0.206859  0.535918  0.957441  1
  Sn  Sn24  1  0.706859  0.964082  0.957441  1
  Sn  Sn25  1  0.206859  0.535918  0.542559  1
  Sn  Sn26  1  0.293141  0.035918  0.457441  1
  Sn  Sn27  1  0.793141  0.464082  0.042559  1
  Sn  Sn28  1  0.563824  0.618398  0.750000  1
  Sn  Sn29  1  0.063824  0.881602  0.750000  1
  Sn  Sn30  1  0.436176  0.381602  0.250000  1
  Sn  Sn31  1  0.936176  0.118398  0.250000  1
  Sn  Sn32  1  0.328919  0.148311  0.750000  1
  Sn  Sn33  1  0.828919  0.351689  0.750000  1
  Sn  Sn34  1  0.671081  0.851689  0.250000  1
  Sn  Sn35  1  0.171081  0.648311  0.250000  1
