# generated using pymatgen
data_Mg3Zn(Co3O8)2
_symmetry_space_group_name_H-M   'P 1'
_cell_length_a   5.72236500
_cell_length_b   5.72236485
_cell_length_c   9.31089300
_cell_angle_alpha   90.00000000
_cell_angle_beta   90.00000000
_cell_angle_gamma   120.00000664
_symmetry_Int_Tables_number   1
_chemical_formula_structural   Mg3Zn(Co3O8)2
_chemical_formula_sum   'Mg3 Zn1 Co6 O16'
_cell_volume   264.04201521
_cell_formula_units_Z   1
loop_
 _symmetry_equiv_pos_site_id
 _symmetry_equiv_pos_as_xyz
  1  'x, y, z'
loop_
 _atom_site_type_symbol
 _atom_site_label
 _atom_site_symmetry_multiplicity
 _atom_site_fract_x
 _atom_site_fract_y
 _atom_site_fract_z
 _atom_site_occupancy
  Mg  Mg0  1  0.666667  0.333333  0.024104  1
  Mg  Mg1  1  0.333333  0.666667  0.522436  1
  Mg  Mg2  1  0.666667  0.333333  0.423271  1
  Zn  Zn3  1  0.333333  0.666667  0.922774  1
  Co  Co4  1  0.671729  0.835865  0.245204  1
  Co  Co5  1  0.836208  0.163792  0.744845  1
  Co  Co6  1  0.164135  0.328271  0.245204  1
  Co  Co7  1  0.836208  0.672416  0.744845  1
  Co  Co8  1  0.327584  0.163792  0.744845  1
  Co  Co9  1  0.164135  0.835865  0.245204  1
  O  O10  1  0.842701  0.157299  0.147510  1
  O  O11  1  0.685881  0.842941  0.646900  1
  O  O12  1  0.157059  0.314119  0.646900  1
  O  O13  1  0.842701  0.685401  0.147510  1
  O  O14  1  0.314599  0.157299  0.147510  1
  O  O15  1  0.157059  0.842941  0.646900  1
  O  O16  1  0.519209  0.480791  0.860811  1
  O  O17  1  0.038478  0.519239  0.360337  1
  O  O18  1  0.480761  0.961522  0.360337  1
  O  O19  1  0.519209  0.038418  0.860811  1
  O  O20  1  0.000000  0.000000  0.351769  1
  O  O21  1  0.000000  0.000000  0.851046  1
  O  O22  1  0.333333  0.666667  0.137360  1
  O  O23  1  0.961582  0.480791  0.860811  1
  O  O24  1  0.480761  0.519239  0.360337  1
  O  O25  1  0.666667  0.333333  0.637422  1
