# generated using pymatgen
data_Sm8Sn(Pd5Pt3)3
_symmetry_space_group_name_H-M   'P 1'
_cell_length_a   8.49106600
_cell_length_b   8.49100500
_cell_length_c   8.49592100
_cell_angle_alpha   90.00000000
_cell_angle_beta   90.00000000
_cell_angle_gamma   90.00000000
_symmetry_Int_Tables_number   1
_chemical_formula_structural   Sm8Sn(Pd5Pt3)3
_chemical_formula_sum   'Sm8 Sn1 Pd15 Pt9'
_cell_volume   612.53622637
_cell_formula_units_Z   1
loop_
 _symmetry_equiv_pos_site_id
 _symmetry_equiv_pos_as_xyz
  1  'x, y, z'
loop_
 _atom_site_type_symbol
 _atom_site_label
 _atom_site_symmetry_multiplicity
 _atom_site_fract_x
 _atom_site_fract_y
 _atom_site_fract_z
 _atom_site_occupancy
  Sm  Sm0  1  0.252331  0.252704  0.252452  1
  Sm  Sm1  1  0.747634  0.746834  0.747136  1
  Sm  Sm2  1  0.747634  0.746834  0.252864  1
  Sm  Sm3  1  0.747634  0.253166  0.747136  1
  Sm  Sm4  1  0.252331  0.252704  0.747548  1
  Sm  Sm5  1  0.252331  0.747296  0.252452  1
  Sm  Sm6  1  0.252331  0.747296  0.747548  1
  Sm  Sm7  1  0.747634  0.253166  0.252864  1
  Sn  Sn8  1  0.000717  0.000000  0.000000  1
  Pd  Pd9  1  0.500044  0.000000  0.266006  1
  Pd  Pd10  1  0.265674  0.000000  0.500000  1
  Pd  Pd11  1  0.500044  0.000000  0.733994  1
  Pd  Pd12  1  0.734056  0.000000  0.500000  1
  Pd  Pd13  1  0.999951  0.500000  0.265289  1
  Pd  Pd14  1  0.999951  0.500000  0.734711  1
  Pd  Pd15  1  0.500068  0.254819  0.500000  1
  Pd  Pd16  1  0.500068  0.745181  0.500000  1
  Pd  Pd17  1  0.500072  0.500000  0.254977  1
  Pd  Pd18  1  0.500072  0.500000  0.745023  1
  Pd  Pd19  1  0.690463  0.000000  0.000000  1
  Pd  Pd20  1  0.999748  0.310224  0.000000  1
  Pd  Pd21  1  0.999748  0.689776  0.000000  1
  Pd  Pd22  1  0.999747  0.000000  0.310179  1
  Pd  Pd23  1  0.999747  0.000000  0.689821  1
  Pt  Pt24  1  0.264924  0.500000  0.000000  1
  Pt  Pt25  1  0.734601  0.500000  0.000000  1
  Pt  Pt26  1  0.999950  0.265128  0.500000  1
  Pt  Pt27  1  0.499758  0.265024  0.000000  1
  Pt  Pt28  1  0.999950  0.734872  0.500000  1
  Pt  Pt29  1  0.499758  0.734976  0.000000  1
  Pt  Pt30  1  0.254226  0.500000  0.500000  1
  Pt  Pt31  1  0.745918  0.500000  0.500000  1
  Pt  Pt32  1  0.310886  0.000000  0.000000  1
