# generated using pymatgen
data_SrTb5YPtBr12
_symmetry_space_group_name_H-M   'P 1'
_cell_length_a   9.35560124
_cell_length_b   9.34669379
_cell_length_c   9.35139800
_cell_angle_alpha   106.32714066
_cell_angle_beta   106.38239969
_cell_angle_gamma   106.37059037
_symmetry_Int_Tables_number   1
_chemical_formula_structural   SrTb5YPtBr12
_chemical_formula_sum   'Sr1 Tb5 Y1 Pt1 Br12'
_cell_volume   692.55222323
_cell_formula_units_Z   1
loop_
 _symmetry_equiv_pos_site_id
 _symmetry_equiv_pos_as_xyz
  1  'x, y, z'
loop_
 _atom_site_type_symbol
 _atom_site_label
 _atom_site_symmetry_multiplicity
 _atom_site_fract_x
 _atom_site_fract_y
 _atom_site_fract_z
 _atom_site_occupancy
  Sr  Sr0  1  0.999901  0.000098  0.999973  1
  Tb  Tb1  1  0.399607  0.478184  0.188483  1
  Tb  Tb2  1  0.188413  0.399946  0.477897  1
  Tb  Tb3  1  0.477670  0.187805  0.399269  1
  Tb  Tb4  1  0.600474  0.522305  0.811766  1
  Tb  Tb5  1  0.811828  0.600744  0.522269  1
  Y  Y6  1  0.522536  0.812007  0.600652  1
  Pt  Pt7  1  0.500134  0.499762  0.500038  1
  Br  Br8  1  0.053848  0.358617  0.132577  1
  Br  Br9  1  0.132445  0.053825  0.358332  1
  Br  Br10  1  0.358206  0.132498  0.053733  1
  Br  Br11  1  0.946129  0.641566  0.867453  1
  Br  Br12  1  0.867153  0.946410  0.641601  1
  Br  Br13  1  0.641307  0.867494  0.945625  1
  Br  Br14  1  0.718843  0.573175  0.177471  1
  Br  Br15  1  0.177990  0.719326  0.573270  1
  Br  Br16  1  0.572614  0.175602  0.718422  1
  Br  Br17  1  0.281229  0.426882  0.822487  1
  Br  Br18  1  0.822528  0.281213  0.426916  1
  Br  Br19  1  0.427144  0.822543  0.281765  1
