# generated using pymatgen
data_La8Y12GaSn15
_symmetry_space_group_name_H-M   'P 1'
_cell_length_a   8.09698800
_cell_length_b   8.37264636
_cell_length_c   15.70133000
_cell_angle_alpha   90.00000000
_cell_angle_beta   90.00000000
_cell_angle_gamma   90.19067272
_symmetry_Int_Tables_number   1
_chemical_formula_structural   La8Y12GaSn15
_chemical_formula_sum   'La8 Y12 Ga1 Sn15'
_cell_volume   1064.43777962
_cell_formula_units_Z   1
loop_
 _symmetry_equiv_pos_site_id
 _symmetry_equiv_pos_as_xyz
  1  'x, y, z'
loop_
 _atom_site_type_symbol
 _atom_site_label
 _atom_site_symmetry_multiplicity
 _atom_site_fract_x
 _atom_site_fract_y
 _atom_site_fract_z
 _atom_site_occupancy
  La  La0  1  0.508384  0.318244  0.907054  1
  La  La1  1  0.009216  0.179899  0.597077  1
  La  La2  1  0.490693  0.678717  0.404014  1
  La  La3  1  0.988849  0.822374  0.096297  1
  La  La4  1  0.490693  0.678717  0.095986  1
  La  La5  1  0.988849  0.822374  0.403703  1
  La  La6  1  0.508384  0.318244  0.592946  1
  La  La7  1  0.009216  0.179899  0.902923  1
  Y  Y8  1  0.357281  0.833065  0.875267  1
  Y  Y9  1  0.846964  0.664226  0.625182  1
  Y  Y10  1  0.647972  0.163156  0.376750  1
  Y  Y11  1  0.148504  0.335415  0.124416  1
  Y  Y12  1  0.647972  0.163156  0.123250  1
  Y  Y13  1  0.148504  0.335415  0.375584  1
  Y  Y14  1  0.357281  0.833065  0.624733  1
  Y  Y15  1  0.846964  0.664226  0.874818  1
  Y  Y16  1  0.196900  0.506692  0.750000  1
  Y  Y17  1  0.688750  0.996661  0.750000  1
  Y  Y18  1  0.813274  0.498561  0.250000  1
  Y  Y19  1  0.312471  0.000681  0.250000  1
  Ga  Ga20  1  0.553092  0.625641  0.750000  1
  Sn  Sn21  1  0.307743  0.040246  0.041754  1
  Sn  Sn22  1  0.813895  0.458762  0.458538  1
  Sn  Sn23  1  0.691744  0.958666  0.542326  1
  Sn  Sn24  1  0.187915  0.539882  0.957322  1
  Sn  Sn25  1  0.691744  0.958666  0.957674  1
  Sn  Sn26  1  0.187915  0.539882  0.542678  1
  Sn  Sn27  1  0.307743  0.040246  0.458246  1
  Sn  Sn28  1  0.813895  0.458762  0.041462  1
  Sn  Sn29  1  0.053278  0.877617  0.750000  1
  Sn  Sn30  1  0.450643  0.374329  0.250000  1
  Sn  Sn31  1  0.948277  0.124792  0.250000  1
  Sn  Sn32  1  0.316803  0.141504  0.750000  1
  Sn  Sn33  1  0.803921  0.367474  0.750000  1
  Sn  Sn34  1  0.681510  0.858576  0.250000  1
  Sn  Sn35  1  0.182760  0.642164  0.250000  1
