# generated using pymatgen
data_Cs6TbSmI12
_symmetry_space_group_name_H-M   'P 1'
_cell_length_a   10.74260768
_cell_length_b   10.73790569
_cell_length_c   8.88213100
_cell_angle_alpha   90.00000000
_cell_angle_beta   90.00000000
_cell_angle_gamma   89.95904035
_symmetry_Int_Tables_number   1
_chemical_formula_structural   Cs6TbSmI12
_chemical_formula_sum   'Cs6 Tb1 Sm1 I12'
_cell_volume   1024.58115609
_cell_formula_units_Z   1
loop_
 _symmetry_equiv_pos_site_id
 _symmetry_equiv_pos_as_xyz
  1  'x, y, z'
loop_
 _atom_site_type_symbol
 _atom_site_label
 _atom_site_symmetry_multiplicity
 _atom_site_fract_x
 _atom_site_fract_y
 _atom_site_fract_z
 _atom_site_occupancy
  Cs  Cs0  1  0.000000  0.000000  0.500000  1
  Cs  Cs1  1  0.000000  0.000000  0.000000  1
  Cs  Cs2  1  0.233077  0.586587  0.500000  1
  Cs  Cs3  1  0.766923  0.413413  0.500000  1
  Cs  Cs4  1  0.413322  0.233802  0.000000  1
  Cs  Cs5  1  0.586678  0.766198  0.000000  1
  Tb  Tb6  1  0.000000  0.500000  0.000000  1
  Sm  Sm7  1  0.500000  0.000000  0.500000  1
  I  I8  1  0.696981  0.059177  0.746397  1
  I  I9  1  0.303019  0.940823  0.746397  1
  I  I10  1  0.941480  0.694547  0.243496  1
  I  I11  1  0.058520  0.305453  0.243496  1
  I  I12  1  0.303019  0.940823  0.253603  1
  I  I13  1  0.696981  0.059177  0.253603  1
  I  I14  1  0.058520  0.305453  0.756504  1
  I  I15  1  0.941480  0.694547  0.756504  1
  I  I16  1  0.571189  0.721047  0.500000  1
  I  I17  1  0.428811  0.278953  0.500000  1
  I  I18  1  0.275557  0.570437  0.000000  1
  I  I19  1  0.724443  0.429563  0.000000  1
