# generated using pymatgen
data_ThAl5CoNi
_symmetry_space_group_name_H-M   'P 1'
_cell_length_a   6.24774127
_cell_length_b   6.24774137
_cell_length_c   6.24774190
_cell_angle_alpha   142.65168964
_cell_angle_beta   110.44331820
_cell_angle_gamma   81.70657078
_symmetry_Int_Tables_number   1
_chemical_formula_structural   ThAl5CoNi
_chemical_formula_sum   'Th1 Al5 Co1 Ni1'
_cell_volume   134.75877145
_cell_formula_units_Z   1
loop_
 _symmetry_equiv_pos_site_id
 _symmetry_equiv_pos_as_xyz
  1  'x, y, z'
loop_
 _atom_site_type_symbol
 _atom_site_label
 _atom_site_symmetry_multiplicity
 _atom_site_fract_x
 _atom_site_fract_y
 _atom_site_fract_z
 _atom_site_occupancy
  Th  Th0  1  0.995756  0.995756  0.000000  1
  Al  Al1  1  0.501335  0.001335  0.500000  1
  Al  Al2  1  0.151686  0.341373  0.810313  1
  Al  Al3  1  0.846170  0.659810  0.186360  1
  Al  Al4  1  0.473448  0.659810  0.813640  1
  Al  Al5  1  0.531060  0.341373  0.189687  1
  Co  Co6  1  0.745227  0.245227  0.500000  1
  Ni  Ni7  1  0.255316  0.755316  0.500000  1
