# generated using pymatgen
data_ErTm5(ThSn2)4
_symmetry_space_group_name_H-M   'P 1'
_cell_length_a   8.08981400
_cell_length_b   8.17189130
_cell_length_c   15.41890757
_cell_angle_alpha   90.03117743
_cell_angle_beta   90.00000000
_cell_angle_gamma   90.00000000
_symmetry_Int_Tables_number   1
_chemical_formula_structural   ErTm5(ThSn2)4
_chemical_formula_sum   'Er2 Tm10 Th8 Sn16'
_cell_volume   1019.32965345
_cell_formula_units_Z   2
loop_
 _symmetry_equiv_pos_site_id
 _symmetry_equiv_pos_as_xyz
  1  'x, y, z'
loop_
 _atom_site_type_symbol
 _atom_site_label
 _atom_site_symmetry_multiplicity
 _atom_site_fract_x
 _atom_site_fract_y
 _atom_site_fract_z
 _atom_site_occupancy
  Er  Er0  1  0.358903  0.837439  0.875871  1
  Er  Er1  1  0.858903  0.662561  0.624129  1
  Tm  Tm2  1  0.641228  0.162379  0.375320  1
  Tm  Tm3  1  0.141228  0.337621  0.124680  1
  Tm  Tm4  1  0.641149  0.162449  0.124522  1
  Tm  Tm5  1  0.141149  0.337551  0.375478  1
  Tm  Tm6  1  0.358575  0.837491  0.624449  1
  Tm  Tm7  1  0.858575  0.662509  0.875551  1
  Tm  Tm8  1  0.188530  0.498458  0.749998  1
  Tm  Tm9  1  0.688530  0.001542  0.750002  1
  Tm  Tm10  1  0.811476  0.501377  0.249924  1
  Tm  Tm11  1  0.311476  0.998623  0.250076  1
  Th  Th12  1  0.517597  0.321618  0.904565  1
  Th  Th13  1  0.017597  0.178382  0.595435  1
  Th  Th14  1  0.482383  0.678326  0.404364  1
  Th  Th15  1  0.982383  0.821674  0.095636  1
  Th  Th16  1  0.482289  0.678144  0.095756  1
  Th  Th17  1  0.982289  0.821856  0.404244  1
  Th  Th18  1  0.517857  0.321668  0.595411  1
  Th  Th19  1  0.017857  0.178332  0.904589  1
  Sn  Sn20  1  0.301262  0.040734  0.042956  1
  Sn  Sn21  1  0.801262  0.459266  0.457044  1
  Sn  Sn22  1  0.698127  0.959952  0.542292  1
  Sn  Sn23  1  0.198127  0.540048  0.957708  1
  Sn  Sn24  1  0.699158  0.959619  0.957710  1
  Sn  Sn25  1  0.199158  0.540381  0.542290  1
  Sn  Sn26  1  0.301329  0.040684  0.457345  1
  Sn  Sn27  1  0.801329  0.459316  0.042655  1
  Sn  Sn28  1  0.554124  0.623287  0.749987  1
  Sn  Sn29  1  0.054124  0.876713  0.750013  1
  Sn  Sn30  1  0.445698  0.376065  0.250185  1
  Sn  Sn31  1  0.945698  0.123935  0.249815  1
  Sn  Sn32  1  0.324397  0.143667  0.749797  1
  Sn  Sn33  1  0.824397  0.356333  0.750203  1
  Sn  Sn34  1  0.675918  0.856298  0.249778  1
  Sn  Sn35  1  0.175918  0.643702  0.250222  1
