# generated using pymatgen
data_Pr9YS10
_symmetry_space_group_name_H-M   'P 1'
_cell_length_a   7.08798415
_cell_length_b   8.17991358
_cell_length_c   9.13966400
_cell_angle_alpha   102.87675745
_cell_angle_beta   97.47434586
_cell_angle_gamma   106.81288381
_symmetry_Int_Tables_number   1
_chemical_formula_structural   Pr9YS10
_chemical_formula_sum   'Pr9 Y1 S10'
_cell_volume   483.63648186
_cell_formula_units_Z   1
loop_
 _symmetry_equiv_pos_site_id
 _symmetry_equiv_pos_as_xyz
  1  'x, y, z'
loop_
 _atom_site_type_symbol
 _atom_site_label
 _atom_site_symmetry_multiplicity
 _atom_site_fract_x
 _atom_site_fract_y
 _atom_site_fract_z
 _atom_site_occupancy
  Pr  Pr0  1  0.800369  0.599253  0.597245  1
  Pr  Pr1  1  0.594237  0.197683  0.198389  1
  Pr  Pr2  1  0.405763  0.802317  0.801611  1
  Pr  Pr3  1  0.599778  0.700568  0.200334  1
  Pr  Pr4  1  0.199631  0.400747  0.402755  1
  Pr  Pr5  1  0.400222  0.299432  0.799666  1
  Pr  Pr6  1  0.000000  0.000000  0.000000  1
  Pr  Pr7  1  0.200993  0.900341  0.400178  1
  Pr  Pr8  1  0.799007  0.099659  0.599822  1
  Y  Y9  1  0.000000  0.500000  0.000000  1
  S  S10  1  0.709461  0.646073  0.901563  1
  S  S11  1  0.499685  0.249512  0.500289  1
  S  S12  1  0.708774  0.159742  0.902915  1
  S  S13  1  0.291226  0.840258  0.097085  1
  S  S14  1  0.500315  0.750488  0.499711  1
  S  S15  1  0.098879  0.452742  0.708381  1
  S  S16  1  0.290539  0.353927  0.098437  1
  S  S17  1  0.897761  0.050049  0.299278  1
  S  S18  1  0.102239  0.949951  0.700722  1
  S  S19  1  0.901121  0.547258  0.291619  1
