# generated using pymatgen
data_CePrZn4Os
_symmetry_space_group_name_H-M   'P 1'
_cell_length_a   7.15139600
_cell_length_b   7.15139600
_cell_length_c   5.28655000
_cell_angle_alpha   90.00000000
_cell_angle_beta   90.00000000
_cell_angle_gamma   90.00000000
_symmetry_Int_Tables_number   1
_chemical_formula_structural   CePrZn4Os
_chemical_formula_sum   'Ce2 Pr2 Zn8 Os2'
_cell_volume   270.36719702
_cell_formula_units_Z   2
loop_
 _symmetry_equiv_pos_site_id
 _symmetry_equiv_pos_as_xyz
  1  'x, y, z'
loop_
 _atom_site_type_symbol
 _atom_site_label
 _atom_site_symmetry_multiplicity
 _atom_site_fract_x
 _atom_site_fract_y
 _atom_site_fract_z
 _atom_site_occupancy
  Ce  Ce0  1  0.000000  0.000000  0.000000  1
  Ce  Ce1  1  0.500000  0.500000  0.000000  1
  Pr  Pr2  1  0.000000  0.500000  0.777441  1
  Pr  Pr3  1  0.500000  0.000000  0.222559  1
  Zn  Zn4  1  0.185724  0.685724  0.292059  1
  Zn  Zn5  1  0.814276  0.685724  0.292059  1
  Zn  Zn6  1  0.814276  0.314276  0.292059  1
  Zn  Zn7  1  0.314276  0.185724  0.707941  1
  Zn  Zn8  1  0.185724  0.314276  0.292059  1
  Zn  Zn9  1  0.685724  0.185724  0.707941  1
  Zn  Zn10  1  0.685724  0.814276  0.707941  1
  Zn  Zn11  1  0.314276  0.814276  0.707941  1
  Os  Os12  1  0.500000  0.500000  0.500000  1
  Os  Os13  1  0.000000  0.000000  0.500000  1
