# generated using pymatgen
data_LaYb3YIr2
_symmetry_space_group_name_H-M   'P 1'
_cell_length_a   6.57754767
_cell_length_b   7.41179265
_cell_length_c   8.68342364
_cell_angle_alpha   97.13870519
_cell_angle_beta   112.25575828
_cell_angle_gamma   89.99999805
_symmetry_Int_Tables_number   1
_chemical_formula_structural   LaYb3YIr2
_chemical_formula_sum   'La2 Yb6 Y2 Ir4'
_cell_volume   388.24421057
_cell_formula_units_Z   2
loop_
 _symmetry_equiv_pos_site_id
 _symmetry_equiv_pos_as_xyz
  1  'x, y, z'
loop_
 _atom_site_type_symbol
 _atom_site_label
 _atom_site_symmetry_multiplicity
 _atom_site_fract_x
 _atom_site_fract_y
 _atom_site_fract_z
 _atom_site_occupancy
  La  La0  1  0.985627  0.918400  0.181508  1
  La  La1  1  0.804120  0.581600  0.818492  1
  Yb  Yb2  1  0.020053  0.080843  0.821769  1
  Yb  Yb3  1  0.198284  0.419157  0.178231  1
  Yb  Yb4  1  0.635879  0.819775  0.431060  1
  Yb  Yb5  1  0.204817  0.680225  0.568940  1
  Yb  Yb6  1  0.366489  0.183899  0.570174  1
  Yb  Yb7  1  0.796316  0.316101  0.429826  1
  Y  Y8  1  0.427402  0.750000  0.000000  1
  Y  Y9  1  0.561920  0.250000  0.000000  1
  Ir  Ir10  1  0.813501  0.581075  0.204123  1
  Ir  Ir11  1  0.609377  0.918925  0.795877  1
  Ir  Ir12  1  0.181047  0.424378  0.785881  1
  Ir  Ir13  1  0.395166  0.075622  0.214119  1
