# generated using pymatgen
data_La2EuEr4FeI12
_symmetry_space_group_name_H-M   'P 1'
_cell_length_a   9.92213880
_cell_length_b   9.75855502
_cell_length_c   9.94468437
_cell_angle_alpha   105.87335611
_cell_angle_beta   106.42832740
_cell_angle_gamma   107.25372154
_symmetry_Int_Tables_number   1
_chemical_formula_structural   La2EuEr4FeI12
_chemical_formula_sum   'La2 Eu1 Er4 Fe1 I12'
_cell_volume   812.12392868
_cell_formula_units_Z   1
loop_
 _symmetry_equiv_pos_site_id
 _symmetry_equiv_pos_as_xyz
  1  'x, y, z'
loop_
 _atom_site_type_symbol
 _atom_site_label
 _atom_site_symmetry_multiplicity
 _atom_site_fract_x
 _atom_site_fract_y
 _atom_site_fract_z
 _atom_site_occupancy
  La  La0  1  0.587797  0.772496  0.520278  1
  La  La1  1  0.412203  0.227504  0.479722  1
  Eu  Eu2  1  0.000000  0.000000  0.000000  1
  Er  Er3  1  0.796915  0.524467  0.595215  1
  Er  Er4  1  0.523056  0.594939  0.795819  1
  Er  Er5  1  0.203085  0.475533  0.404785  1
  Er  Er6  1  0.476944  0.405061  0.204181  1
  Fe  Fe7  1  0.500000  0.500000  0.500000  1
  I  I8  1  0.737064  0.192644  0.580082  1
  I  I9  1  0.960945  0.871478  0.647540  1
  I  I10  1  0.572430  0.717728  0.171066  1
  I  I11  1  0.133069  0.364937  0.054524  1
  I  I12  1  0.643000  0.950268  0.880333  1
  I  I13  1  0.866931  0.635063  0.945476  1
  I  I14  1  0.039055  0.128522  0.352460  1
  I  I15  1  0.817434  0.428758  0.281245  1
  I  I16  1  0.357000  0.049732  0.119667  1
  I  I17  1  0.262936  0.807356  0.419918  1
  I  I18  1  0.182566  0.571242  0.718755  1
  I  I19  1  0.427570  0.282272  0.828934  1
