# generated using pymatgen
data_Tb6Zn20PAu3
_symmetry_space_group_name_H-M   'P 1'
_cell_length_a   9.08522999
_cell_length_b   9.06450601
_cell_length_c   9.06450700
_cell_angle_alpha   60.15748424
_cell_angle_beta   59.87008971
_cell_angle_gamma   59.87008860
_symmetry_Int_Tables_number   1
_chemical_formula_structural   Tb6Zn20PAu3
_chemical_formula_sum   'Tb6 Zn20 P1 Au3'
_cell_volume   527.43125180
_cell_formula_units_Z   1
loop_
 _symmetry_equiv_pos_site_id
 _symmetry_equiv_pos_as_xyz
  1  'x, y, z'
loop_
 _atom_site_type_symbol
 _atom_site_label
 _atom_site_symmetry_multiplicity
 _atom_site_fract_x
 _atom_site_fract_y
 _atom_site_fract_z
 _atom_site_occupancy
  Tb  Tb0  1  0.713368  0.286624  0.286624  1
  Tb  Tb1  1  0.712411  0.287686  0.711730  1
  Tb  Tb2  1  0.712411  0.711730  0.287686  1
  Tb  Tb3  1  0.286632  0.713376  0.713376  1
  Tb  Tb4  1  0.287589  0.712314  0.288270  1
  Tb  Tb5  1  0.287589  0.288270  0.712314  1
  Zn  Zn6  1  0.625216  0.123158  0.123158  1
  Zn  Zn7  1  0.121556  0.626621  0.126486  1
  Zn  Zn8  1  0.121556  0.126486  0.626621  1
  Zn  Zn9  1  0.124771  0.123607  0.123607  1
  Zn  Zn10  1  0.374784  0.876842  0.876842  1
  Zn  Zn11  1  0.878444  0.373379  0.873514  1
  Zn  Zn12  1  0.878444  0.873514  0.373379  1
  Zn  Zn13  1  0.875229  0.876393  0.876393  1
  Zn  Zn14  1  0.500000  0.000000  0.000000  1
  Zn  Zn15  1  0.000000  0.500000  0.500000  1
  Zn  Zn16  1  0.000000  0.500000  0.000000  1
  Zn  Zn17  1  0.000000  0.000000  0.500000  1
  Zn  Zn18  1  0.008839  0.329436  0.329436  1
  Zn  Zn19  1  0.325611  0.011357  0.327804  1
  Zn  Zn20  1  0.325611  0.327804  0.011357  1
  Zn  Zn21  1  0.322131  0.331469  0.331469  1
  Zn  Zn22  1  0.991161  0.670564  0.670564  1
  Zn  Zn23  1  0.674389  0.988643  0.672196  1
  Zn  Zn24  1  0.674389  0.672196  0.988643  1
  Zn  Zn25  1  0.677869  0.668531  0.668531  1
  P  P26  1  0.500000  0.500000  0.500000  1
  Au  Au27  1  0.500000  0.000000  0.500000  1
  Au  Au28  1  0.500000  0.500000  0.000000  1
  Au  Au29  1  0.000000  0.000000  0.000000  1
