# generated using pymatgen
data_HoSbI6
_symmetry_space_group_name_H-M   'P 1'
_cell_length_a   8.70793675
_cell_length_b   8.70793662
_cell_length_c   8.70793681
_cell_angle_alpha   52.58476944
_cell_angle_beta   52.58477355
_cell_angle_gamma   52.58476917
_symmetry_Int_Tables_number   1
_chemical_formula_structural   HoSbI6
_chemical_formula_sum   'Ho1 Sb1 I6'
_cell_volume   385.64981431
_cell_formula_units_Z   1
loop_
 _symmetry_equiv_pos_site_id
 _symmetry_equiv_pos_as_xyz
  1  'x, y, z'
loop_
 _atom_site_type_symbol
 _atom_site_label
 _atom_site_symmetry_multiplicity
 _atom_site_fract_x
 _atom_site_fract_y
 _atom_site_fract_z
 _atom_site_occupancy
  Ho  Ho0  1  0.833310  0.833310  0.833310  1
  Sb  Sb1  1  0.166726  0.166726  0.166726  1
  I  I2  1  0.220991  0.579971  0.932893  1
  I  I3  1  0.932893  0.220991  0.579971  1
  I  I4  1  0.579971  0.932893  0.220991  1
  I  I5  1  0.775736  0.425182  0.065191  1
  I  I6  1  0.065191  0.775736  0.425182  1
  I  I7  1  0.425182  0.065191  0.775736  1
