# generated using pymatgen
data_Nd2Cu5Ni3Pd2
_symmetry_space_group_name_H-M   'P 1'
_cell_length_a   4.02392600
_cell_length_b   5.28551802
_cell_length_c   8.73431034
_cell_angle_alpha   93.85737267
_cell_angle_beta   90.00000000
_cell_angle_gamma   90.00000000
_symmetry_Int_Tables_number   1
_chemical_formula_structural   Nd2Cu5Ni3Pd2
_chemical_formula_sum   'Nd2 Cu5 Ni3 Pd2'
_cell_volume   185.34513791
_cell_formula_units_Z   1
loop_
 _symmetry_equiv_pos_site_id
 _symmetry_equiv_pos_as_xyz
  1  'x, y, z'
loop_
 _atom_site_type_symbol
 _atom_site_label
 _atom_site_symmetry_multiplicity
 _atom_site_fract_x
 _atom_site_fract_y
 _atom_site_fract_z
 _atom_site_occupancy
  Nd  Nd0  1  0.000000  0.500000  0.000000  1
  Nd  Nd1  1  0.000000  0.000000  0.500000  1
  Cu  Cu2  1  0.000000  0.473778  0.338037  1
  Cu  Cu3  1  0.000000  0.974822  0.841329  1
  Cu  Cu4  1  0.000000  0.025178  0.158671  1
  Cu  Cu5  1  0.000000  0.526222  0.661963  1
  Cu  Cu6  1  0.500000  0.500000  0.500000  1
  Ni  Ni7  1  0.500000  0.000000  0.000000  1
  Ni  Ni8  1  0.500000  0.249190  0.248346  1
  Ni  Ni9  1  0.500000  0.750810  0.751654  1
  Pd  Pd10  1  0.500000  0.751853  0.249601  1
  Pd  Pd11  1  0.500000  0.248147  0.750399  1
