# generated using pymatgen
data_LiMgSnIr
_symmetry_space_group_name_H-M   'P 1'
_cell_length_a   4.54611108
_cell_length_b   4.54611091
_cell_length_c   4.54611100
_cell_angle_alpha   60.00000660
_cell_angle_beta   60.00000789
_cell_angle_gamma   59.99999557
_symmetry_Int_Tables_number   1
_chemical_formula_structural   LiMgSnIr
_chemical_formula_sum   'Li1 Mg1 Sn1 Ir1'
_cell_volume   66.43625460
_cell_formula_units_Z   1
loop_
 _symmetry_equiv_pos_site_id
 _symmetry_equiv_pos_as_xyz
  1  'x, y, z'
loop_
 _atom_site_type_symbol
 _atom_site_label
 _atom_site_symmetry_multiplicity
 _atom_site_fract_x
 _atom_site_fract_y
 _atom_site_fract_z
 _atom_site_occupancy
  Li  Li0  1  0.750000  0.750000  0.750000  1
  Mg  Mg1  1  0.500000  0.500000  0.500000  1
  Sn  Sn2  1  0.000000  0.000000  0.000000  1
  Ir  Ir3  1  0.250000  0.250000  0.250000  1
