# generated using pymatgen
data_SrLa3(Mo2O7)2
_symmetry_space_group_name_H-M   'P 1'
_cell_length_a   7.61232446
_cell_length_b   7.55239997
_cell_length_c   7.55240000
_cell_angle_alpha   59.99999988
_cell_angle_beta   60.26006483
_cell_angle_gamma   60.26006057
_symmetry_Int_Tables_number   1
_chemical_formula_structural   SrLa3(Mo2O7)2
_chemical_formula_sum   'Sr1 La3 Mo4 O14'
_cell_volume   308.22528671
_cell_formula_units_Z   1
loop_
 _symmetry_equiv_pos_site_id
 _symmetry_equiv_pos_as_xyz
  1  'x, y, z'
loop_
 _atom_site_type_symbol
 _atom_site_label
 _atom_site_symmetry_multiplicity
 _atom_site_fract_x
 _atom_site_fract_y
 _atom_site_fract_z
 _atom_site_occupancy
  Sr  Sr0  1  0.625000  0.125000  0.125000  1
  La  La1  1  0.125000  0.625000  0.125000  1
  La  La2  1  0.125000  0.125000  0.625000  1
  La  La3  1  0.125000  0.125000  0.125000  1
  Mo  Mo4  1  0.125000  0.625000  0.625000  1
  Mo  Mo5  1  0.625000  0.125000  0.625000  1
  Mo  Mo6  1  0.625000  0.625000  0.125000  1
  Mo  Mo7  1  0.625000  0.625000  0.625000  1
  O  O8  1  0.240436  0.253188  0.253188  1
  O  O9  1  0.009564  0.996812  0.996812  1
  O  O10  1  0.713546  0.690689  0.297883  1
  O  O11  1  0.291551  0.305334  0.701557  1
  O  O12  1  0.713546  0.297883  0.690689  1
  O  O13  1  0.291551  0.701557  0.305334  1
  O  O14  1  0.291551  0.701557  0.701557  1
  O  O15  1  0.713546  0.297883  0.297883  1
  O  O16  1  0.536454  0.559311  0.952117  1
  O  O17  1  0.958449  0.944666  0.548443  1
  O  O18  1  0.536454  0.952117  0.559311  1
  O  O19  1  0.958449  0.548443  0.944666  1
  O  O20  1  0.958449  0.548443  0.548443  1
  O  O21  1  0.536454  0.952117  0.952117  1
