# generated using pymatgen
data_InAg3Au4
_symmetry_space_group_name_H-M   'P 1'
_cell_length_a   5.94277068
_cell_length_b   5.93490843
_cell_length_c   5.93490921
_cell_angle_alpha   60.08764541
_cell_angle_beta   59.95616345
_cell_angle_gamma   59.95617297
_symmetry_Int_Tables_number   1
_chemical_formula_structural   InAg3Au4
_chemical_formula_sum   'In1 Ag3 Au4'
_cell_volume   148.01321484
_cell_formula_units_Z   1
loop_
 _symmetry_equiv_pos_site_id
 _symmetry_equiv_pos_as_xyz
  1  'x, y, z'
loop_
 _atom_site_type_symbol
 _atom_site_label
 _atom_site_symmetry_multiplicity
 _atom_site_fract_x
 _atom_site_fract_y
 _atom_site_fract_z
 _atom_site_occupancy
  In  In0  1  0.000000  0.000000  0.000000  1
  Ag  Ag1  1  0.499999  0.000000  0.000000  1
  Ag  Ag2  1  0.000000  0.499999  0.499999  1
  Ag  Ag3  1  0.499999  0.499999  0.499999  1
  Au  Au4  1  0.000000  0.499999  0.000000  1
  Au  Au5  1  0.499999  0.499999  0.000000  1
  Au  Au6  1  0.000000  0.000000  0.499999  1
  Au  Au7  1  0.499999  0.000000  0.499999  1
