# generated using pymatgen
data_YbCe3(MgIr)4
_symmetry_space_group_name_H-M   'P 1'
_cell_length_a   7.14435929
_cell_length_b   4.08929300
_cell_length_c   8.68704756
_cell_angle_alpha   90.00000000
_cell_angle_beta   90.75425718
_cell_angle_gamma   90.00000000
_symmetry_Int_Tables_number   1
_chemical_formula_structural   YbCe3(MgIr)4
_chemical_formula_sum   'Yb1 Ce3 Mg4 Ir4'
_cell_volume   253.77339095
_cell_formula_units_Z   1
loop_
 _symmetry_equiv_pos_site_id
 _symmetry_equiv_pos_as_xyz
  1  'x, y, z'
loop_
 _atom_site_type_symbol
 _atom_site_label
 _atom_site_symmetry_multiplicity
 _atom_site_fract_x
 _atom_site_fract_y
 _atom_site_fract_z
 _atom_site_occupancy
  Yb  Yb0  1  0.962676  0.250000  0.179249  1
  Ce  Ce1  1  0.460684  0.250000  0.312823  1
  Ce  Ce2  1  0.035914  0.750000  0.826157  1
  Ce  Ce3  1  0.533046  0.750000  0.678813  1
  Mg  Mg4  1  0.864907  0.250000  0.555740  1
  Mg  Mg5  1  0.369036  0.250000  0.944625  1
  Mg  Mg6  1  0.128884  0.750000  0.438052  1
  Mg  Mg7  1  0.643738  0.750000  0.057630  1
  Ir  Ir8  1  0.754072  0.250000  0.857898  1
  Ir  Ir9  1  0.252388  0.250000  0.636168  1
  Ir  Ir10  1  0.264539  0.750000  0.135602  1
  Ir  Ir11  1  0.730115  0.750000  0.377243  1
