# generated using pymatgen
data_Yb4Zn4Fe3H22
_symmetry_space_group_name_H-M   'P 1'
_cell_length_a   6.46221800
_cell_length_b   6.46221800
_cell_length_c   6.46221800
_cell_angle_alpha   90.00000000
_cell_angle_beta   90.00000000
_cell_angle_gamma   90.00000000
_symmetry_Int_Tables_number   1
_chemical_formula_structural   Yb4Zn4Fe3H22
_chemical_formula_sum   'Yb4 Zn4 Fe3 H22'
_cell_volume   269.86391342
_cell_formula_units_Z   1
loop_
 _symmetry_equiv_pos_site_id
 _symmetry_equiv_pos_as_xyz
  1  'x, y, z'
loop_
 _atom_site_type_symbol
 _atom_site_label
 _atom_site_symmetry_multiplicity
 _atom_site_fract_x
 _atom_site_fract_y
 _atom_site_fract_z
 _atom_site_occupancy
  Yb  Yb0  1  0.284714  0.284714  0.715286  1
  Yb  Yb1  1  0.284714  0.715286  0.284714  1
  Yb  Yb2  1  0.715286  0.284714  0.284714  1
  Yb  Yb3  1  0.715286  0.715286  0.715286  1
  Zn  Zn4  1  0.782232  0.782232  0.217768  1
  Zn  Zn5  1  0.782232  0.217768  0.782232  1
  Zn  Zn6  1  0.217768  0.782232  0.782232  1
  Zn  Zn7  1  0.217768  0.217768  0.217768  1
  Fe  Fe8  1  0.000000  0.000000  0.500000  1
  Fe  Fe9  1  0.000000  0.500000  0.000000  1
  Fe  Fe10  1  0.500000  0.000000  0.000000  1
  H  H11  1  0.000000  0.500000  0.242421  1
  H  H12  1  0.500000  0.757579  0.000000  1
  H  H13  1  0.757579  0.000000  0.500000  1
  H  H14  1  0.000000  0.757579  0.500000  1
  H  H15  1  0.500000  0.000000  0.242421  1
  H  H16  1  0.757579  0.500000  0.000000  1
  H  H17  1  0.000000  0.500000  0.757579  1
  H  H18  1  0.500000  0.242421  0.000000  1
  H  H19  1  0.000000  0.242421  0.500000  1
  H  H20  1  0.500000  0.000000  0.757579  1
  H  H21  1  0.242421  0.000000  0.500000  1
  H  H22  1  0.242421  0.500000  0.000000  1
  H  H23  1  0.000000  0.000000  0.254784  1
  H  H24  1  0.000000  0.745216  0.000000  1
  H  H25  1  0.745216  0.000000  0.000000  1
  H  H26  1  0.000000  0.000000  0.745216  1
  H  H27  1  0.000000  0.254784  0.000000  1
  H  H28  1  0.254784  0.000000  0.000000  1
  H  H29  1  0.630780  0.630780  0.369220  1
  H  H30  1  0.630780  0.369220  0.630780  1
  H  H31  1  0.369220  0.630780  0.630780  1
  H  H32  1  0.369220  0.369220  0.369220  1
