# generated using pymatgen
data_La2SnPtI2
_symmetry_space_group_name_H-M   'P 1'
_cell_length_a   4.63892600
_cell_length_b   4.63892671
_cell_length_c   11.95979600
_cell_angle_alpha   90.00000000
_cell_angle_beta   90.00000000
_cell_angle_gamma   120.00000923
_symmetry_Int_Tables_number   1
_chemical_formula_structural   La2SnPtI2
_chemical_formula_sum   'La2 Sn1 Pt1 I2'
_cell_volume   222.88935052
_cell_formula_units_Z   1
loop_
 _symmetry_equiv_pos_site_id
 _symmetry_equiv_pos_as_xyz
  1  'x, y, z'
loop_
 _atom_site_type_symbol
 _atom_site_label
 _atom_site_symmetry_multiplicity
 _atom_site_fract_x
 _atom_site_fract_y
 _atom_site_fract_z
 _atom_site_occupancy
  La  La0  1  0.000000  0.000000  0.165530  1
  La  La1  1  0.000000  0.000000  0.838973  1
  Sn  Sn2  1  0.666667  0.333333  0.012498  1
  Pt  Pt3  1  0.333333  0.666667  0.986504  1
  I  I4  1  0.666667  0.333333  0.663368  1
  I  I5  1  0.333333  0.666667  0.333128  1
