# generated using pymatgen
data_Mg4Al2B4Ir3Rh7
_symmetry_space_group_name_H-M   'P 1'
_cell_length_a   2.92427200
_cell_length_b   9.45216703
_cell_length_c   9.45136003
_cell_angle_alpha   90.00906862
_cell_angle_beta   90.00000000
_cell_angle_gamma   90.00000000
_symmetry_Int_Tables_number   1
_chemical_formula_structural   Mg4Al2B4Ir3Rh7
_chemical_formula_sum   'Mg4 Al2 B4 Ir3 Rh7'
_cell_volume   261.24227369
_cell_formula_units_Z   1
loop_
 _symmetry_equiv_pos_site_id
 _symmetry_equiv_pos_as_xyz
  1  'x, y, z'
loop_
 _atom_site_type_symbol
 _atom_site_label
 _atom_site_symmetry_multiplicity
 _atom_site_fract_x
 _atom_site_fract_y
 _atom_site_fract_z
 _atom_site_occupancy
  Mg  Mg0  1  0.000000  0.821768  0.175323  1
  Mg  Mg1  1  0.000000  0.321717  0.324907  1
  Mg  Mg2  1  0.000000  0.677899  0.676337  1
  Mg  Mg3  1  0.000000  0.177501  0.825135  1
  Al  Al4  1  0.000000  0.501275  0.999467  1
  Al  Al5  1  0.000000  0.000016  0.499750  1
  B  B6  1  0.000000  0.126745  0.124224  1
  B  B7  1  0.000000  0.624916  0.375967  1
  B  B8  1  0.000000  0.374822  0.624701  1
  B  B9  1  0.000000  0.875831  0.874565  1
  Ir  Ir10  1  0.499999  0.998860  0.999999  1
  Ir  Ir11  1  0.499999  0.286857  0.072495  1
  Ir  Ir12  1  0.499999  0.500205  0.500753  1
  Rh  Rh13  1  0.499999  0.570467  0.214507  1
  Rh  Rh14  1  0.499999  0.069062  0.285965  1
  Rh  Rh15  1  0.499999  0.786236  0.426326  1
  Rh  Rh16  1  0.499999  0.213539  0.573209  1
  Rh  Rh17  1  0.499999  0.929706  0.713472  1
  Rh  Rh18  1  0.499999  0.428624  0.785985  1
  Rh  Rh19  1  0.499999  0.713967  0.926924  1
