# generated using pymatgen
data_ThFe4(ReTc3)2
_symmetry_space_group_name_H-M   'P 1'
_cell_length_a   4.77433540
_cell_length_b   6.79764126
_cell_length_c   6.79764337
_cell_angle_alpha   96.91515945
_cell_angle_beta   110.55925757
_cell_angle_gamma   69.44073722
_symmetry_Int_Tables_number   1
_chemical_formula_structural   ThFe4(ReTc3)2
_chemical_formula_sum   'Th1 Fe4 Re2 Tc6'
_cell_volume   193.40422673
_cell_formula_units_Z   1
loop_
 _symmetry_equiv_pos_site_id
 _symmetry_equiv_pos_as_xyz
  1  'x, y, z'
loop_
 _atom_site_type_symbol
 _atom_site_label
 _atom_site_symmetry_multiplicity
 _atom_site_fract_x
 _atom_site_fract_y
 _atom_site_fract_z
 _atom_site_occupancy
  Th  Th0  1  0.000000  0.000000  0.000000  1
  Fe  Fe1  1  0.500000  0.000000  0.500000  1
  Fe  Fe2  1  0.000000  0.000000  0.500000  1
  Fe  Fe3  1  0.500000  0.500000  0.000000  1
  Fe  Fe4  1  0.000000  0.500000  0.000000  1
  Re  Re5  1  0.000023  0.358278  0.358278  1
  Re  Re6  1  0.999977  0.641722  0.641722  1
  Tc  Tc7  1  0.719578  0.780422  0.219578  1
  Tc  Tc8  1  0.280422  0.219578  0.780422  1
  Tc  Tc9  1  0.500011  0.780760  0.780760  1
  Tc  Tc10  1  0.499989  0.219240  0.219240  1
  Tc  Tc11  1  0.641745  0.358255  0.641745  1
  Tc  Tc12  1  0.358255  0.641745  0.358255  1
