# generated using pymatgen
data_Ho16In4IrRuPt2
_symmetry_space_group_name_H-M   'P 1'
_cell_length_a   9.64311301
_cell_length_b   9.63759617
_cell_length_c   9.65290542
_cell_angle_alpha   60.10527495
_cell_angle_beta   60.03313198
_cell_angle_gamma   59.98145546
_symmetry_Int_Tables_number   1
_chemical_formula_structural   Ho16In4IrRuPt2
_chemical_formula_sum   'Ho16 In4 Ir1 Ru1 Pt2'
_cell_volume   634.92312382
_cell_formula_units_Z   1
loop_
 _symmetry_equiv_pos_site_id
 _symmetry_equiv_pos_as_xyz
  1  'x, y, z'
loop_
 _atom_site_type_symbol
 _atom_site_label
 _atom_site_symmetry_multiplicity
 _atom_site_fract_x
 _atom_site_fract_y
 _atom_site_fract_z
 _atom_site_occupancy
  Ho  Ho0  1  0.442261  0.435973  0.060326  1
  Ho  Ho1  1  0.651392  0.644382  0.052823  1
  Ho  Ho2  1  0.187291  0.808759  0.194245  1
  Ho  Ho3  1  0.061450  0.435960  0.060317  1
  Ho  Ho4  1  0.191355  0.808712  0.808576  1
  Ho  Ho5  1  0.061415  0.437860  0.439315  1
  Ho  Ho6  1  0.810264  0.191163  0.188308  1
  Ho  Ho7  1  0.654643  0.648743  0.650145  1
  Ho  Ho8  1  0.810190  0.195402  0.809057  1
  Ho  Ho9  1  0.185336  0.195415  0.809067  1
  Ho  Ho10  1  0.046471  0.648746  0.650140  1
  Ho  Ho11  1  0.438970  0.060863  0.061174  1
  Ho  Ho12  1  0.061977  0.060532  0.436282  1
  Ho  Ho13  1  0.650402  0.054121  0.645083  1
  Ho  Ho14  1  0.809699  0.808763  0.194254  1
  Ho  Ho15  1  0.441208  0.060541  0.436269  1
  In  In16  1  0.416417  0.416932  0.416868  1
  In  In17  1  0.416580  0.417282  0.749567  1
  In  In18  1  0.416543  0.749528  0.417389  1
  In  In19  1  0.749783  0.416933  0.416869  1
  Ir  Ir20  1  0.856937  0.860491  0.425641  1
  Ru  Ru21  1  0.857475  0.424677  0.860364  1
  Pt  Pt22  1  0.426524  0.859111  0.858965  1
  Pt  Pt23  1  0.855416  0.859111  0.858958  1
