# generated using pymatgen
data_Lu5Pa3(Pt2Pb)4
_symmetry_space_group_name_H-M   'P 1'
_cell_length_a   7.91672844
_cell_length_b   7.91672887
_cell_length_c   7.10127700
_cell_angle_alpha   90.00000000
_cell_angle_beta   90.00000000
_cell_angle_gamma   90.42907964
_symmetry_Int_Tables_number   1
_chemical_formula_structural   Lu5Pa3(Pt2Pb)4
_chemical_formula_sum   'Lu5 Pa3 Pt8 Pb4'
_cell_volume   445.05716266
_cell_formula_units_Z   1
loop_
 _symmetry_equiv_pos_site_id
 _symmetry_equiv_pos_as_xyz
  1  'x, y, z'
loop_
 _atom_site_type_symbol
 _atom_site_label
 _atom_site_symmetry_multiplicity
 _atom_site_fract_x
 _atom_site_fract_y
 _atom_site_fract_z
 _atom_site_occupancy
  Lu  Lu0  1  0.342270  0.345930  0.500000  1
  Lu  Lu1  1  0.654070  0.657730  0.500000  1
  Lu  Lu2  1  0.175296  0.824704  0.500000  1
  Lu  Lu3  1  0.843484  0.156516  0.000000  1
  Lu  Lu4  1  0.156567  0.843433  0.000000  1
  Pa  Pa5  1  0.680186  0.676148  0.000000  1
  Pa  Pa6  1  0.825705  0.174295  0.500000  1
  Pa  Pa7  1  0.323852  0.319814  0.000000  1
  Pt  Pt8  1  0.867037  0.872560  0.731174  1
  Pt  Pt9  1  0.127440  0.132963  0.731174  1
  Pt  Pt10  1  0.631094  0.368906  0.767872  1
  Pt  Pt11  1  0.631094  0.368906  0.232128  1
  Pt  Pt12  1  0.375230  0.624770  0.224023  1
  Pt  Pt13  1  0.127440  0.132963  0.268826  1
  Pt  Pt14  1  0.867037  0.872560  0.268826  1
  Pt  Pt15  1  0.375230  0.624770  0.775977  1
  Pb  Pb16  1  0.495326  0.996840  0.746542  1
  Pb  Pb17  1  0.495326  0.996840  0.253458  1
  Pb  Pb18  1  0.003160  0.504674  0.746542  1
  Pb  Pb19  1  0.003160  0.504674  0.253458  1
