# generated using pymatgen
data_Ti4PbS8
_symmetry_space_group_name_H-M   'P 1'
_cell_length_a   6.85448145
_cell_length_b   6.85448088
_cell_length_c   9.33062024
_cell_angle_alpha   57.07945641
_cell_angle_beta   57.07946009
_cell_angle_gamma   60.01742064
_symmetry_Int_Tables_number   1
_chemical_formula_structural   Ti4PbS8
_chemical_formula_sum   'Ti4 Pb1 S8'
_cell_volume   295.62577506
_cell_formula_units_Z   1
loop_
 _symmetry_equiv_pos_site_id
 _symmetry_equiv_pos_as_xyz
  1  'x, y, z'
loop_
 _atom_site_type_symbol
 _atom_site_label
 _atom_site_symmetry_multiplicity
 _atom_site_fract_x
 _atom_site_fract_y
 _atom_site_fract_z
 _atom_site_occupancy
  Ti  Ti0  1  0.758294  0.241706  0.000000  1
  Ti  Ti1  1  0.241706  0.758294  0.000000  1
  Ti  Ti2  1  0.243475  0.243475  0.007112  1
  Ti  Ti3  1  0.756525  0.756525  0.992888  1
  Pb  Pb4  1  0.500000  0.500000  0.500000  1
  S  S5  1  0.984480  0.486125  0.199447  1
  S  S6  1  0.486125  0.984480  0.199447  1
  S  S7  1  0.488608  0.488608  0.192222  1
  S  S8  1  0.982919  0.982919  0.201869  1
  S  S9  1  0.017081  0.017081  0.798131  1
  S  S10  1  0.511392  0.511392  0.807778  1
  S  S11  1  0.513875  0.015520  0.800553  1
  S  S12  1  0.015520  0.513875  0.800553  1
