# generated using pymatgen
data_TbFeF6
_symmetry_space_group_name_H-M   'P 1'
_cell_length_a   5.88268332
_cell_length_b   5.88268352
_cell_length_c   5.88268300
_cell_angle_alpha   59.99999732
_cell_angle_beta   59.99999617
_cell_angle_gamma   60.00000185
_symmetry_Int_Tables_number   1
_chemical_formula_structural   TbFeF6
_chemical_formula_sum   'Tb1 Fe1 F6'
_cell_volume   143.94990669
_cell_formula_units_Z   1
loop_
 _symmetry_equiv_pos_site_id
 _symmetry_equiv_pos_as_xyz
  1  'x, y, z'
loop_
 _atom_site_type_symbol
 _atom_site_label
 _atom_site_symmetry_multiplicity
 _atom_site_fract_x
 _atom_site_fract_y
 _atom_site_fract_z
 _atom_site_occupancy
  Tb  Tb0  1  0.499999  0.499999  0.499999  1
  Fe  Fe1  1  0.000000  0.000000  0.000000  1
  F  F2  1  0.764800  0.235199  0.235199  1
  F  F3  1  0.235199  0.764800  0.235199  1
  F  F4  1  0.764800  0.764800  0.235199  1
  F  F5  1  0.235199  0.235199  0.764800  1
  F  F6  1  0.764800  0.235199  0.764800  1
  F  F7  1  0.235199  0.764800  0.764800  1
