# generated using pymatgen
data_Sr4CaLa(Sn4Bi)2
_symmetry_space_group_name_H-M   'P 1'
_cell_length_a   8.97438260
_cell_length_b   8.97438167
_cell_length_c   8.97438206
_cell_angle_alpha   120.00839440
_cell_angle_beta   120.00838627
_cell_angle_gamma   89.98546559
_symmetry_Int_Tables_number   1
_chemical_formula_structural   Sr4CaLa(Sn4Bi)2
_chemical_formula_sum   'Sr4 Ca1 La1 Sn8 Bi2'
_cell_volume   511.02669462
_cell_formula_units_Z   1
loop_
 _symmetry_equiv_pos_site_id
 _symmetry_equiv_pos_as_xyz
  1  'x, y, z'
loop_
 _atom_site_type_symbol
 _atom_site_label
 _atom_site_symmetry_multiplicity
 _atom_site_fract_x
 _atom_site_fract_y
 _atom_site_fract_z
 _atom_site_occupancy
  Sr  Sr0  1  0.161379  0.661379  0.822760  1
  Sr  Sr1  1  0.838621  0.338621  0.177240  1
  Sr  Sr2  1  0.661379  0.838621  0.500000  1
  Sr  Sr3  1  0.338621  0.161379  0.500000  1
  Ca  Ca4  1  0.250000  0.250000  0.000000  1
  La  La5  1  0.750000  0.750000  0.000000  1
  Sn  Sn6  1  0.833336  0.331309  0.788513  1
  Sn  Sn7  1  0.168691  0.666664  0.211487  1
  Sn  Sn8  1  0.542797  0.044824  0.211487  1
  Sn  Sn9  1  0.331309  0.542797  0.497974  1
  Sn  Sn10  1  0.957203  0.168691  0.502026  1
  Sn  Sn11  1  0.455176  0.957203  0.788513  1
  Sn  Sn12  1  0.666664  0.455176  0.497974  1
  Sn  Sn13  1  0.044824  0.833336  0.502026  1
  Bi  Bi14  1  0.003491  0.003491  0.000000  1
  Bi  Bi15  1  0.496509  0.496509  0.000000  1
