# generated using pymatgen
data_TbPa3CoNi3P4
_symmetry_space_group_name_H-M   'P 1'
_cell_length_a   3.90254600
_cell_length_b   3.90254602
_cell_length_c   15.45083300
_cell_angle_alpha   90.00000000
_cell_angle_beta   90.00000000
_cell_angle_gamma   119.99999982
_symmetry_Int_Tables_number   1
_chemical_formula_structural   TbPa3CoNi3P4
_chemical_formula_sum   'Tb1 Pa3 Co1 Ni3 P4'
_cell_volume   203.78799435
_cell_formula_units_Z   1
loop_
 _symmetry_equiv_pos_site_id
 _symmetry_equiv_pos_as_xyz
  1  'x, y, z'
loop_
 _atom_site_type_symbol
 _atom_site_label
 _atom_site_symmetry_multiplicity
 _atom_site_fract_x
 _atom_site_fract_y
 _atom_site_fract_z
 _atom_site_occupancy
  Tb  Tb0  1  0.000000  0.000000  0.751152  1
  Pa  Pa1  1  0.000000  0.000000  0.246369  1
  Pa  Pa2  1  0.000000  0.000000  0.003745  1
  Pa  Pa3  1  0.000000  0.000000  0.499362  1
  Co  Co4  1  0.333333  0.666667  0.119269  1
  Ni  Ni5  1  0.666667  0.333333  0.887594  1
  Ni  Ni6  1  0.666667  0.333333  0.616045  1
  Ni  Ni7  1  0.333333  0.666667  0.377225  1
  P  P8  1  0.333333  0.666667  0.624173  1
  P  P9  1  0.666667  0.333333  0.372558  1
  P  P10  1  0.666667  0.333333  0.127832  1
  P  P11  1  0.333333  0.666667  0.874677  1
