# generated using pymatgen
data_Dy5Ho(GaC3)2
_symmetry_space_group_name_H-M   'P 1'
_cell_length_a   3.56699700
_cell_length_b   7.04101739
_cell_length_c   9.89362910
_cell_angle_alpha   89.95573505
_cell_angle_beta   90.00000000
_cell_angle_gamma   90.00000000
_symmetry_Int_Tables_number   1
_chemical_formula_structural   Dy5Ho(GaC3)2
_chemical_formula_sum   'Dy5 Ho1 Ga2 C6'
_cell_volume   248.48126909
_cell_formula_units_Z   1
loop_
 _symmetry_equiv_pos_site_id
 _symmetry_equiv_pos_as_xyz
  1  'x, y, z'
loop_
 _atom_site_type_symbol
 _atom_site_label
 _atom_site_symmetry_multiplicity
 _atom_site_fract_x
 _atom_site_fract_y
 _atom_site_fract_z
 _atom_site_occupancy
  Dy  Dy0  1  0.500000  0.510517  0.197142  1
  Dy  Dy1  1  0.500000  0.489464  0.802747  1
  Dy  Dy2  1  0.500000  0.989704  0.197486  1
  Dy  Dy3  1  0.000000  0.749963  0.458820  1
  Dy  Dy4  1  0.000000  0.249867  0.541253  1
  Ho  Ho5  1  0.500000  0.011623  0.802283  1
  Ga  Ga6  1  0.000000  0.750951  0.001047  1
  Ga  Ga7  1  0.000000  0.249157  0.998318  1
  C  C8  1  0.500000  0.509188  0.566694  1
  C  C9  1  0.500000  0.490699  0.433308  1
  C  C10  1  0.500000  0.990675  0.567411  1
  C  C11  1  0.500000  0.009114  0.433760  1
  C  C12  1  0.000000  0.750094  0.209322  1
  C  C13  1  0.000000  0.248983  0.790410  1
