# generated using pymatgen
data_Y3Ho9Ni4
_symmetry_space_group_name_H-M   'P 1'
_cell_length_a   6.31527448
_cell_length_b   6.79052401
_cell_length_c   9.55550200
_cell_angle_alpha   90.00000000
_cell_angle_beta   90.00000000
_cell_angle_gamma   90.17613719
_symmetry_Int_Tables_number   1
_chemical_formula_structural   Y3Ho9Ni4
_chemical_formula_sum   'Y3 Ho9 Ni4'
_cell_volume   409.77643054
_cell_formula_units_Z   1
loop_
 _symmetry_equiv_pos_site_id
 _symmetry_equiv_pos_as_xyz
  1  'x, y, z'
loop_
 _atom_site_type_symbol
 _atom_site_label
 _atom_site_symmetry_multiplicity
 _atom_site_fract_x
 _atom_site_fract_y
 _atom_site_fract_z
 _atom_site_occupancy
  Y  Y0  1  0.863159  0.531585  0.250000  1
  Y  Y1  1  0.638087  0.031390  0.250000  1
  Y  Y2  1  0.137068  0.468539  0.750000  1
  Ho  Ho3  1  0.321353  0.679390  0.066064  1
  Ho  Ho4  1  0.179581  0.178722  0.434039  1
  Ho  Ho5  1  0.678183  0.320701  0.566847  1
  Ho  Ho6  1  0.820051  0.821413  0.933305  1
  Ho  Ho7  1  0.678183  0.320701  0.933153  1
  Ho  Ho8  1  0.820051  0.821413  0.566695  1
  Ho  Ho9  1  0.321353  0.679390  0.433936  1
  Ho  Ho10  1  0.179581  0.178722  0.065961  1
  Ho  Ho11  1  0.361006  0.966863  0.750000  1
  Ni  Ni12  1  0.059286  0.893137  0.250000  1
  Ni  Ni13  1  0.442765  0.393174  0.250000  1
  Ni  Ni14  1  0.945301  0.105987  0.750000  1
  Ni  Ni15  1  0.554991  0.608874  0.750000  1
