# generated using pymatgen
data_Tm12Si12Ru3Pt
_symmetry_space_group_name_H-M   'P 1'
_cell_length_a   4.16680500
_cell_length_b   10.60870567
_cell_length_c   12.19914868
_cell_angle_alpha   90.16326102
_cell_angle_beta   90.00000000
_cell_angle_gamma   90.00000000
_symmetry_Int_Tables_number   1
_chemical_formula_structural   Tm12Si12Ru3Pt
_chemical_formula_sum   'Tm12 Si12 Ru3 Pt1'
_cell_volume   539.25395427
_cell_formula_units_Z   1
loop_
 _symmetry_equiv_pos_site_id
 _symmetry_equiv_pos_as_xyz
  1  'x, y, z'
loop_
 _atom_site_type_symbol
 _atom_site_label
 _atom_site_symmetry_multiplicity
 _atom_site_fract_x
 _atom_site_fract_y
 _atom_site_fract_z
 _atom_site_occupancy
  Tm  Tm0  1  0.250000  0.879678  0.021417  1
  Tm  Tm1  1  0.250000  0.621286  0.519935  1
  Tm  Tm2  1  0.750000  0.121986  0.981254  1
  Tm  Tm3  1  0.750000  0.380860  0.478866  1
  Tm  Tm4  1  0.250000  0.921110  0.604133  1
  Tm  Tm5  1  0.250000  0.579026  0.104667  1
  Tm  Tm6  1  0.750000  0.078413  0.396439  1
  Tm  Tm7  1  0.750000  0.420613  0.895952  1
  Tm  Tm8  1  0.250000  0.659462  0.799477  1
  Tm  Tm9  1  0.250000  0.838278  0.299486  1
  Tm  Tm10  1  0.750000  0.338525  0.200124  1
  Tm  Tm11  1  0.750000  0.161959  0.698127  1
  Si  Si12  1  0.250000  0.017794  0.823737  1
  Si  Si13  1  0.250000  0.487550  0.321049  1
  Si  Si14  1  0.750000  0.987582  0.178814  1
  Si  Si15  1  0.750000  0.511419  0.679478  1
  Si  Si16  1  0.250000  0.249400  0.840617  1
  Si  Si17  1  0.250000  0.250009  0.341744  1
  Si  Si18  1  0.750000  0.750616  0.158563  1
  Si  Si19  1  0.750000  0.746423  0.655219  1
  Si  Si20  1  0.250000  0.201806  0.542806  1
  Si  Si21  1  0.250000  0.300387  0.043564  1
  Si  Si22  1  0.750000  0.801919  0.456267  1
  Si  Si23  1  0.750000  0.694665  0.958358  1
  Ru  Ru24  1  0.250000  0.391006  0.680260  1
  Ru  Ru25  1  0.250000  0.109261  0.180006  1
  Ru  Ru26  1  0.750000  0.610299  0.320044  1
  Pt  Pt27  1  0.750000  0.888667  0.819598  1
