# generated using pymatgen
data_Tb6CeYSb20
_symmetry_space_group_name_H-M   'P 1'
_cell_length_a   4.19987100
_cell_length_b   13.31165150
_cell_length_c   14.80686457
_cell_angle_alpha   78.50560308
_cell_angle_beta   90.00000000
_cell_angle_gamma   90.00000000
_symmetry_Int_Tables_number   1
_chemical_formula_structural   Tb6CeYSb20
_chemical_formula_sum   'Tb6 Ce1 Y1 Sb20'
_cell_volume   811.20821495
_cell_formula_units_Z   1
loop_
 _symmetry_equiv_pos_site_id
 _symmetry_equiv_pos_as_xyz
  1  'x, y, z'
loop_
 _atom_site_type_symbol
 _atom_site_label
 _atom_site_symmetry_multiplicity
 _atom_site_fract_x
 _atom_site_fract_y
 _atom_site_fract_z
 _atom_site_occupancy
  Tb  Tb0  1  0.250000  0.662124  0.856247  1
  Tb  Tb1  1  0.250000  0.667690  0.576467  1
  Tb  Tb2  1  0.750000  0.045845  0.640822  1
  Tb  Tb3  1  0.750000  0.332878  0.424186  1
  Tb  Tb4  1  0.250000  0.393786  0.771405  1
  Tb  Tb5  1  0.750000  0.605733  0.228552  1
  Ce  Ce6  1  0.250000  0.952462  0.360259  1
  Y  Y7  1  0.750000  0.338952  0.143262  1
  Sb  Sb8  1  0.750000  0.847414  0.826513  1
  Sb  Sb9  1  0.250000  0.859024  0.678048  1
  Sb  Sb10  1  0.250000  0.143499  0.480291  1
  Sb  Sb11  1  0.750000  0.280077  0.936971  1
  Sb  Sb12  1  0.250000  0.143296  0.776714  1
  Sb  Sb13  1  0.750000  0.571883  0.446582  1
  Sb  Sb14  1  0.750000  0.143955  0.322338  1
  Sb  Sb15  1  0.250000  0.712508  0.349285  1
  Sb  Sb16  1  0.750000  0.285861  0.650992  1
  Sb  Sb17  1  0.750000  0.855775  0.222798  1
  Sb  Sb18  1  0.250000  0.420482  0.975808  1
  Sb  Sb19  1  0.250000  0.426827  0.553941  1
  Sb  Sb20  1  0.750000  0.575441  0.734521  1
  Sb  Sb21  1  0.250000  0.424149  0.265341  1
  Sb  Sb22  1  0.750000  0.855667  0.517287  1
  Sb  Sb23  1  0.750000  0.030348  0.899058  1
  Sb  Sb24  1  0.250000  0.719940  0.063275  1
  Sb  Sb25  1  0.250000  0.971409  0.101231  1
  Sb  Sb26  1  0.250000  0.153137  0.173569  1
  Sb  Sb27  1  0.750000  0.579840  0.024238  1
