# generated using pymatgen
data_Tb3Ho2Co16(P4Ru)3
_symmetry_space_group_name_H-M   'P 1'
_cell_length_a   12.04354408
_cell_length_b   12.04354526
_cell_length_c   3.72152900
_cell_angle_alpha   90.00000000
_cell_angle_beta   90.00000000
_cell_angle_gamma   119.98698453
_symmetry_Int_Tables_number   1
_chemical_formula_structural   Tb3Ho2Co16(P4Ru)3
_chemical_formula_sum   'Tb3 Ho2 Co16 P12 Ru3'
_cell_volume   467.53877924
_cell_formula_units_Z   1
loop_
 _symmetry_equiv_pos_site_id
 _symmetry_equiv_pos_as_xyz
  1  'x, y, z'
loop_
 _atom_site_type_symbol
 _atom_site_label
 _atom_site_symmetry_multiplicity
 _atom_site_fract_x
 _atom_site_fract_y
 _atom_site_fract_z
 _atom_site_occupancy
  Tb  Tb0  1  0.666505  0.333224  0.000000  1
  Tb  Tb1  1  0.333224  0.666505  0.000000  1
  Tb  Tb2  1  0.815372  0.815372  0.500000  1
  Ho  Ho3  1  0.185049  0.000305  0.500000  1
  Ho  Ho4  1  0.000305  0.185049  0.500000  1
  Co  Co5  1  0.874623  0.357957  0.500000  1
  Co  Co6  1  0.641839  0.516355  0.500000  1
  Co  Co7  1  0.483216  0.125397  0.500000  1
  Co  Co8  1  0.357957  0.874623  0.500000  1
  Co  Co9  1  0.516355  0.641839  0.500000  1
  Co  Co10  1  0.125397  0.483216  0.500000  1
  Co  Co11  1  0.804235  0.179934  0.000000  1
  Co  Co12  1  0.820366  0.623972  0.000000  1
  Co  Co13  1  0.375488  0.195747  0.000000  1
  Co  Co14  1  0.179934  0.804235  0.000000  1
  Co  Co15  1  0.623972  0.820366  0.000000  1
  Co  Co16  1  0.195747  0.375488  0.000000  1
  Co  Co17  1  0.282436  0.282436  0.500000  1
  Co  Co18  1  0.717411  0.000323  0.500000  1
  Co  Co19  1  0.000323  0.717411  0.500000  1
  Co  Co20  1  0.000473  0.000473  0.000000  1
  P  P21  1  0.687330  0.165657  0.500000  1
  P  P22  1  0.834473  0.521868  0.500000  1
  P  P23  1  0.477974  0.312450  0.500000  1
  P  P24  1  0.165657  0.687330  0.500000  1
  P  P25  1  0.521868  0.834473  0.500000  1
  P  P26  1  0.312450  0.477974  0.500000  1
  P  P27  1  0.179827  0.179827  0.000000  1
  P  P28  1  0.820443  0.000732  0.000000  1
  P  P29  1  0.000732  0.820443  0.000000  1
  P  P30  1  0.635784  0.635784  0.000000  1
  P  P31  1  0.363529  0.000014  0.000000  1
  P  P32  1  0.000014  0.363529  0.000000  1
  Ru  Ru33  1  0.445629  0.445629  0.000000  1
  Ru  Ru34  1  0.553972  0.000092  0.000000  1
  Ru  Ru35  1  0.000092  0.553972  0.000000  1
