# generated using pymatgen
data_Y3Tm5Sc12(GaSi3)4
_symmetry_space_group_name_H-M   'P 1'
_cell_length_a   7.10151474
_cell_length_b   7.38585863
_cell_length_c   14.09251717
_cell_angle_alpha   90.04270633
_cell_angle_beta   89.86751612
_cell_angle_gamma   90.16348333
_symmetry_Int_Tables_number   1
_chemical_formula_structural   Y3Tm5Sc12(GaSi3)4
_chemical_formula_sum   'Y3 Tm5 Sc12 Ga4 Si12'
_cell_volume   739.15838610
_cell_formula_units_Z   1
loop_
 _symmetry_equiv_pos_site_id
 _symmetry_equiv_pos_as_xyz
  1  'x, y, z'
loop_
 _atom_site_type_symbol
 _atom_site_label
 _atom_site_symmetry_multiplicity
 _atom_site_fract_x
 _atom_site_fract_y
 _atom_site_fract_z
 _atom_site_occupancy
  Y  Y0  1  0.013098  0.174898  0.096853  1
  Y  Y1  1  0.988448  0.825072  0.902183  1
  Y  Y2  1  0.487534  0.676787  0.901990  1
  Tm  Tm3  1  0.987992  0.826893  0.600247  1
  Tm  Tm4  1  0.510626  0.320786  0.097514  1
  Tm  Tm5  1  0.009537  0.175467  0.400489  1
  Tm  Tm6  1  0.510935  0.323941  0.400704  1
  Tm  Tm7  1  0.490474  0.676384  0.600557  1
  Sc  Sc8  1  0.162663  0.500877  0.751025  1
  Sc  Sc9  1  0.836375  0.497950  0.250280  1
  Sc  Sc10  1  0.336437  0.002585  0.248611  1
  Sc  Sc11  1  0.663405  0.998222  0.749593  1
  Sc  Sc12  1  0.333807  0.174593  0.627768  1
  Sc  Sc13  1  0.668913  0.826389  0.373765  1
  Sc  Sc14  1  0.170030  0.673391  0.373094  1
  Sc  Sc15  1  0.668503  0.826364  0.125838  1
  Sc  Sc16  1  0.829186  0.324686  0.626621  1
  Sc  Sc17  1  0.330917  0.175740  0.874385  1
  Sc  Sc18  1  0.829200  0.323540  0.873981  1
  Sc  Sc19  1  0.173411  0.674911  0.124641  1
  Ga  Ga20  1  0.162762  0.461956  0.539726  1
  Ga  Ga21  1  0.838166  0.537433  0.461382  1
  Ga  Ga22  1  0.338322  0.962342  0.461467  1
  Ga  Ga23  1  0.838489  0.537822  0.038775  1
  Si  Si24  1  0.032980  0.115487  0.750776  1
  Si  Si25  1  0.967088  0.884760  0.249559  1
  Si  Si26  1  0.467540  0.612766  0.248563  1
  Si  Si27  1  0.532959  0.386104  0.750791  1
  Si  Si28  1  0.286014  0.870905  0.750120  1
  Si  Si29  1  0.714124  0.129394  0.249122  1
  Si  Si30  1  0.214789  0.371035  0.249224  1
  Si  Si31  1  0.786747  0.629713  0.750504  1
  Si  Si32  1  0.659131  0.035741  0.539334  1
  Si  Si33  1  0.158211  0.462974  0.960948  1
  Si  Si34  1  0.656525  0.037260  0.961619  1
  Si  Si35  1  0.344666  0.964835  0.037951  1
