# generated using pymatgen
data_NdTh(TcB2)3
_symmetry_space_group_name_H-M   'P 1'
_cell_length_a   6.31733704
_cell_length_b   6.31733714
_cell_length_c   7.64399752
_cell_angle_alpha   90.73178807
_cell_angle_beta   90.73178048
_cell_angle_gamma   114.80995432
_symmetry_Int_Tables_number   1
_chemical_formula_structural   NdTh(TcB2)3
_chemical_formula_sum   'Nd2 Th2 Tc6 B12'
_cell_volume   276.82867938
_cell_formula_units_Z   2
loop_
 _symmetry_equiv_pos_site_id
 _symmetry_equiv_pos_as_xyz
  1  'x, y, z'
loop_
 _atom_site_type_symbol
 _atom_site_label
 _atom_site_symmetry_multiplicity
 _atom_site_fract_x
 _atom_site_fract_y
 _atom_site_fract_z
 _atom_site_occupancy
  Nd  Nd0  1  0.905545  0.562509  0.677421  1
  Nd  Nd1  1  0.437491  0.094455  0.822579  1
  Th  Th2  1  0.093016  0.438240  0.327911  1
  Th  Th3  1  0.561760  0.906984  0.172089  1
  Tc  Tc4  1  0.586155  0.413845  0.250000  1
  Tc  Tc5  1  0.414575  0.585425  0.750000  1
  Tc  Tc6  1  0.988985  0.802644  0.088935  1
  Tc  Tc7  1  0.197356  0.011015  0.411065  1
  Tc  Tc8  1  0.009597  0.196305  0.913081  1
  Tc  Tc9  1  0.803695  0.990403  0.586919  1
  B  B10  1  0.243587  0.151531  0.129272  1
  B  B11  1  0.848469  0.756413  0.370728  1
  B  B12  1  0.757838  0.847412  0.866502  1
  B  B13  1  0.152588  0.242162  0.633498  1
  B  B14  1  0.582528  0.158759  0.482120  1
  B  B15  1  0.841241  0.417472  0.017880  1
  B  B16  1  0.418241  0.840102  0.517732  1
  B  B17  1  0.159898  0.581759  0.982268  1
  B  B18  1  0.441997  0.350519  0.532949  1
  B  B19  1  0.649481  0.558003  0.967051  1
  B  B20  1  0.556343  0.650386  0.467405  1
  B  B21  1  0.349614  0.443657  0.032595  1
