# generated using pymatgen
data_DyMnV(PRh)3
_symmetry_space_group_name_H-M   'P 1'
_cell_length_a   3.82635400
_cell_length_b   10.77219100
_cell_length_c   12.44794300
_cell_angle_alpha   90.00000000
_cell_angle_beta   90.00000000
_cell_angle_gamma   90.00000000
_symmetry_Int_Tables_number   1
_chemical_formula_structural   DyMnV(PRh)3
_chemical_formula_sum   'Dy4 Mn4 V4 P12 Rh12'
_cell_volume   513.08200484
_cell_formula_units_Z   4
loop_
 _symmetry_equiv_pos_site_id
 _symmetry_equiv_pos_as_xyz
  1  'x, y, z'
loop_
 _atom_site_type_symbol
 _atom_site_label
 _atom_site_symmetry_multiplicity
 _atom_site_fract_x
 _atom_site_fract_y
 _atom_site_fract_z
 _atom_site_occupancy
  Dy  Dy0  1  0.250000  0.585342  0.706777  1
  Dy  Dy1  1  0.250000  0.914658  0.206777  1
  Dy  Dy2  1  0.750000  0.414658  0.293223  1
  Dy  Dy3  1  0.750000  0.085342  0.793223  1
  Mn  Mn4  1  0.250000  0.469819  0.937292  1
  Mn  Mn5  1  0.250000  0.030181  0.437292  1
  Mn  Mn6  1  0.750000  0.530181  0.062708  1
  Mn  Mn7  1  0.750000  0.969819  0.562708  1
  V  V8  1  0.250000  0.699810  0.984411  1
  V  V9  1  0.250000  0.800190  0.484411  1
  V  V10  1  0.750000  0.300190  0.015589  1
  V  V11  1  0.750000  0.199810  0.515589  1
  P  P12  1  0.250000  0.419373  0.111440  1
  P  P13  1  0.250000  0.080627  0.611440  1
  P  P14  1  0.750000  0.580627  0.888560  1
  P  P15  1  0.750000  0.919373  0.388560  1
  P  P16  1  0.250000  0.271679  0.874197  1
  P  P17  1  0.250000  0.228321  0.374197  1
  P  P18  1  0.750000  0.728321  0.125803  1
  P  P19  1  0.750000  0.771679  0.625803  1
  P  P20  1  0.250000  0.598839  0.389910  1
  P  P21  1  0.250000  0.901161  0.889910  1
  P  P22  1  0.750000  0.401161  0.610090  1
  P  P23  1  0.750000  0.098839  0.110090  1
  Rh  Rh24  1  0.250000  0.404574  0.485761  1
  Rh  Rh25  1  0.250000  0.095426  0.985761  1
  Rh  Rh26  1  0.750000  0.595426  0.514239  1
  Rh  Rh27  1  0.750000  0.904574  0.014239  1
  Rh  Rh28  1  0.250000  0.224724  0.180209  1
  Rh  Rh29  1  0.250000  0.275276  0.680209  1
  Rh  Rh30  1  0.750000  0.775276  0.819791  1
  Rh  Rh31  1  0.750000  0.724724  0.319791  1
  Rh  Rh32  1  0.250000  0.889584  0.698081  1
  Rh  Rh33  1  0.250000  0.610416  0.198081  1
  Rh  Rh34  1  0.750000  0.110416  0.301919  1
  Rh  Rh35  1  0.750000  0.389584  0.801919  1
