# generated using pymatgen
data_Ce3MnAlSe7
_symmetry_space_group_name_H-M   'P 1'
_cell_length_a   10.54429400
_cell_length_b   10.54429291
_cell_length_c   6.50613600
_cell_angle_alpha   90.00000000
_cell_angle_beta   90.00000000
_cell_angle_gamma   119.99999481
_symmetry_Int_Tables_number   1
_chemical_formula_structural   Ce3MnAlSe7
_chemical_formula_sum   'Ce6 Mn2 Al2 Se14'
_cell_volume   626.45338435
_cell_formula_units_Z   2
loop_
 _symmetry_equiv_pos_site_id
 _symmetry_equiv_pos_as_xyz
  1  'x, y, z'
loop_
 _atom_site_type_symbol
 _atom_site_label
 _atom_site_symmetry_multiplicity
 _atom_site_fract_x
 _atom_site_fract_y
 _atom_site_fract_z
 _atom_site_occupancy
  Ce  Ce0  1  0.769544  0.144728  0.736494  1
  Ce  Ce1  1  0.375184  0.230456  0.736494  1
  Ce  Ce2  1  0.855272  0.624816  0.736494  1
  Ce  Ce3  1  0.230456  0.855272  0.236494  1
  Ce  Ce4  1  0.624816  0.769544  0.236494  1
  Ce  Ce5  1  0.144728  0.375184  0.236494  1
  Mn  Mn6  1  0.000000  0.000000  0.536406  1
  Mn  Mn7  1  0.000000  0.000000  0.036406  1
  Al  Al8  1  0.666667  0.333333  0.154570  1
  Al  Al9  1  0.333333  0.666667  0.654570  1
  Se  Se10  1  0.857873  0.096117  0.306916  1
  Se  Se11  1  0.238243  0.142127  0.306916  1
  Se  Se12  1  0.903883  0.761757  0.306916  1
  Se  Se13  1  0.142127  0.903883  0.806916  1
  Se  Se14  1  0.761757  0.857873  0.806916  1
  Se  Se15  1  0.096117  0.238243  0.806916  1
  Se  Se16  1  0.905931  0.423509  0.006580  1
  Se  Se17  1  0.517578  0.094069  0.006580  1
  Se  Se18  1  0.576491  0.482422  0.006580  1
  Se  Se19  1  0.094069  0.576491  0.506580  1
  Se  Se20  1  0.482422  0.905931  0.506580  1
  Se  Se21  1  0.423509  0.517578  0.506580  1
  Se  Se22  1  0.666667  0.333333  0.523107  1
  Se  Se23  1  0.333333  0.666667  0.023107  1
