# generated using pymatgen
data_Yb11Ho5(ErSn4)4
_symmetry_space_group_name_H-M   'P 1'
_cell_length_a   7.82208802
_cell_length_b   8.41197231
_cell_length_c   15.93825901
_cell_angle_alpha   90.00365160
_cell_angle_beta   90.00000346
_cell_angle_gamma   89.87832779
_symmetry_Int_Tables_number   1
_chemical_formula_structural   Yb11Ho5(ErSn4)4
_chemical_formula_sum   'Yb11 Ho5 Er4 Sn16'
_cell_volume   1048.72213182
_cell_formula_units_Z   1
loop_
 _symmetry_equiv_pos_site_id
 _symmetry_equiv_pos_as_xyz
  1  'x, y, z'
loop_
 _atom_site_type_symbol
 _atom_site_label
 _atom_site_symmetry_multiplicity
 _atom_site_fract_x
 _atom_site_fract_y
 _atom_site_fract_z
 _atom_site_occupancy
  Yb  Yb0  1  0.503911  0.687388  0.593509  1
  Yb  Yb1  1  0.003960  0.815197  0.908364  1
  Yb  Yb2  1  0.494337  0.311976  0.092272  1
  Yb  Yb3  1  0.995765  0.187171  0.408126  1
  Yb  Yb4  1  0.494396  0.311978  0.407743  1
  Yb  Yb5  1  0.995836  0.187175  0.091854  1
  Yb  Yb6  1  0.503849  0.687367  0.906507  1
  Yb  Yb7  1  0.003910  0.815221  0.591643  1
  Yb  Yb8  1  0.336150  0.989725  0.750003  1
  Yb  Yb9  1  0.163697  0.488111  0.249970  1
  Yb  Yb10  1  0.663419  0.009630  0.249990  1
  Ho  Ho11  1  0.826354  0.664168  0.378249  1
  Ho  Ho12  1  0.326155  0.833241  0.377949  1
  Ho  Ho13  1  0.826369  0.664194  0.121751  1
  Ho  Ho14  1  0.674075  0.163778  0.877799  1
  Ho  Ho15  1  0.175466  0.334869  0.622816  1
  Er  Er16  1  0.674146  0.163728  0.622238  1
  Er  Er17  1  0.175404  0.334986  0.877214  1
  Er  Er18  1  0.326098  0.833304  0.122006  1
  Er  Er19  1  0.837791  0.510074  0.750023  1
  Sn  Sn20  1  0.671930  0.962809  0.459348  1
  Sn  Sn21  1  0.171825  0.536538  0.040092  1
  Sn  Sn22  1  0.328485  0.037047  0.959305  1
  Sn  Sn23  1  0.828503  0.465418  0.543939  1
  Sn  Sn24  1  0.328893  0.037071  0.540791  1
  Sn  Sn25  1  0.828881  0.465521  0.956069  1
  Sn  Sn26  1  0.671721  0.962641  0.040803  1
  Sn  Sn27  1  0.171610  0.536505  0.459847  1
  Sn  Sn28  1  0.475792  0.379598  0.750034  1
  Sn  Sn29  1  0.971823  0.132518  0.749986  1
  Sn  Sn30  1  0.527786  0.625055  0.249946  1
  Sn  Sn31  1  0.027438  0.872220  0.249887  1
  Sn  Sn32  1  0.721864  0.865492  0.749964  1
  Sn  Sn33  1  0.209805  0.631250  0.750049  1
  Sn  Sn34  1  0.280725  0.126319  0.249932  1
  Sn  Sn35  1  0.781833  0.370719  0.249983  1
