# generated using pymatgen
data_SrU4Pb3O16
_symmetry_space_group_name_H-M   'P 1'
_cell_length_a   5.64672315
_cell_length_b   8.03574179
_cell_length_c   8.26574800
_cell_angle_alpha   90.00000000
_cell_angle_beta   90.00000000
_cell_angle_gamma   90.13829651
_symmetry_Int_Tables_number   1
_chemical_formula_structural   SrU4Pb3O16
_chemical_formula_sum   'Sr1 U4 Pb3 O16'
_cell_volume   375.06225877
_cell_formula_units_Z   1
loop_
 _symmetry_equiv_pos_site_id
 _symmetry_equiv_pos_as_xyz
  1  'x, y, z'
loop_
 _atom_site_type_symbol
 _atom_site_label
 _atom_site_symmetry_multiplicity
 _atom_site_fract_x
 _atom_site_fract_y
 _atom_site_fract_z
 _atom_site_occupancy
  Sr  Sr0  1  0.482892  0.197022  0.250000  1
  U  U1  1  0.999731  0.999957  0.001732  1
  U  U2  1  0.998776  0.499012  0.000918  1
  U  U3  1  0.998776  0.499012  0.499082  1
  U  U4  1  0.999731  0.999957  0.498268  1
  Pb  Pb5  1  0.508554  0.294869  0.750000  1
  Pb  Pb6  1  0.495507  0.703813  0.250000  1
  Pb  Pb7  1  0.493064  0.797397  0.750000  1
  O  O8  1  0.301630  0.920779  0.082151  1
  O  O9  1  0.295104  0.586316  0.922499  1
  O  O10  1  0.702827  0.415771  0.421905  1
  O  O11  1  0.701659  0.087345  0.575619  1
  O  O12  1  0.701659  0.087345  0.924381  1
  O  O13  1  0.702827  0.415771  0.078095  1
  O  O14  1  0.295104  0.586316  0.577501  1
  O  O15  1  0.301630  0.920779  0.417849  1
  O  O16  1  0.158929  0.248373  0.010972  1
  O  O17  1  0.846741  0.750506  0.499643  1
  O  O18  1  0.846741  0.750506  0.000357  1
  O  O19  1  0.158929  0.248373  0.489028  1
  O  O20  1  0.871539  0.034119  0.250000  1
  O  O21  1  0.868381  0.457526  0.750000  1
  O  O22  1  0.137040  0.535510  0.250000  1
  O  O23  1  0.132230  0.963624  0.750000  1
