# generated using pymatgen
data_Ho20BiRu4Pb7
_symmetry_space_group_name_H-M   'P 1'
_cell_length_a   7.85644657
_cell_length_b   9.08458380
_cell_length_c   12.27185075
_cell_angle_alpha   90.02710796
_cell_angle_beta   90.23002906
_cell_angle_gamma   89.95897922
_symmetry_Int_Tables_number   1
_chemical_formula_structural   Ho20BiRu4Pb7
_chemical_formula_sum   'Ho20 Bi1 Ru4 Pb7'
_cell_volume   875.86586676
_cell_formula_units_Z   1
loop_
 _symmetry_equiv_pos_site_id
 _symmetry_equiv_pos_as_xyz
  1  'x, y, z'
loop_
 _atom_site_type_symbol
 _atom_site_label
 _atom_site_symmetry_multiplicity
 _atom_site_fract_x
 _atom_site_fract_y
 _atom_site_fract_z
 _atom_site_occupancy
  Ho  Ho0  1  0.843432  0.748474  0.788883  1
  Ho  Ho1  1  0.155103  0.250250  0.211908  1
  Ho  Ho2  1  0.347963  0.250931  0.710531  1
  Ho  Ho3  1  0.654147  0.749425  0.288348  1
  Ho  Ho4  1  0.380812  0.748423  0.694030  1
  Ho  Ho5  1  0.622256  0.250449  0.305275  1
  Ho  Ho6  1  0.875424  0.251269  0.806331  1
  Ho  Ho7  1  0.121305  0.749879  0.194517  1
  Ho  Ho8  1  0.952438  0.748004  0.502029  1
  Ho  Ho9  1  0.046567  0.251886  0.495835  1
  Ho  Ho10  1  0.453158  0.250297  0.996690  1
  Ho  Ho11  1  0.546121  0.749703  0.003484  1
  Ho  Ho12  1  0.675126  0.039095  0.568606  1
  Ho  Ho13  1  0.324860  0.962947  0.430167  1
  Ho  Ho14  1  0.176647  0.962202  0.933398  1
  Ho  Ho15  1  0.324680  0.537887  0.431405  1
  Ho  Ho16  1  0.824046  0.037602  0.069075  1
  Ho  Ho17  1  0.677027  0.461975  0.569063  1
  Ho  Ho18  1  0.824245  0.462654  0.069247  1
  Ho  Ho19  1  0.174930  0.537232  0.930604  1
  Bi  Bi20  1  0.072894  0.993654  0.671480  1
  Ru  Ru21  1  0.574898  0.750638  0.508284  1
  Ru  Ru22  1  0.426103  0.250332  0.491021  1
  Ru  Ru23  1  0.074595  0.249472  0.991605  1
  Ru  Ru24  1  0.925796  0.750346  0.008181  1
  Pb  Pb25  1  0.572489  0.494500  0.830270  1
  Pb  Pb26  1  0.425945  0.505331  0.170276  1
  Pb  Pb27  1  0.073289  0.505459  0.670931  1
  Pb  Pb28  1  0.426533  0.994893  0.170165  1
  Pb  Pb29  1  0.927467  0.494729  0.328572  1
  Pb  Pb30  1  0.572864  0.004745  0.829407  1
  Pb  Pb31  1  0.926839  0.005318  0.330382  1
