# generated using pymatgen
data_Sn3Bi9Te7I5
_symmetry_space_group_name_H-M   'P 1'
_cell_length_a   23.79458893
_cell_length_b   23.79458828
_cell_length_c   6.63641432
_cell_angle_alpha   74.22211270
_cell_angle_beta   74.22211265
_cell_angle_gamma   14.10392339
_symmetry_Int_Tables_number   1
_chemical_formula_structural   Sn3Bi9Te7I5
_chemical_formula_sum   'Sn3 Bi9 Te7 I5'
_cell_volume   880.57778281
_cell_formula_units_Z   1
loop_
 _symmetry_equiv_pos_site_id
 _symmetry_equiv_pos_as_xyz
  1  'x, y, z'
loop_
 _atom_site_type_symbol
 _atom_site_label
 _atom_site_symmetry_multiplicity
 _atom_site_fract_x
 _atom_site_fract_y
 _atom_site_fract_z
 _atom_site_occupancy
  Sn  Sn0  1  0.960630  0.960630  0.320776  1
  Sn  Sn1  1  0.461797  0.461797  0.810949  1
  Sn  Sn2  1  0.538857  0.538857  0.188672  1
  Bi  Bi3  1  0.035209  0.035209  0.695922  1
  Bi  Bi4  1  0.748801  0.748801  0.983760  1
  Bi  Bi5  1  0.248080  0.248080  0.484681  1
  Bi  Bi6  1  0.248575  0.248575  0.001408  1
  Bi  Bi7  1  0.748114  0.748114  0.499213  1
  Bi  Bi8  1  0.826518  0.826518  0.636781  1
  Bi  Bi9  1  0.326422  0.326422  0.133917  1
  Bi  Bi10  1  0.173644  0.173644  0.354043  1
  Bi  Bi11  1  0.673064  0.673064  0.857363  1
  Te  Te12  1  0.961029  0.961029  0.812201  1
  Te  Te13  1  0.535330  0.535330  0.694257  1
  Te  Te14  1  0.035163  0.035163  0.194326  1
  Te  Te15  1  0.326306  0.326306  0.629903  1
  Te  Te16  1  0.825919  0.825919  0.129520  1
  Te  Te17  1  0.171906  0.171906  0.865522  1
  Te  Te18  1  0.672122  0.672122  0.364403  1
  I  I19  1  0.102061  0.102061  0.582810  1
  I  I20  1  0.604503  0.604503  0.077097  1
  I  I21  1  0.892799  0.892799  0.425536  1
  I  I22  1  0.392802  0.392802  0.939741  1
  I  I23  1  0.458436  0.458436  0.317199  1
