# generated using pymatgen
data_Ba7NaScUS12
_symmetry_space_group_name_H-M   'P 1'
_cell_length_a   8.62169831
_cell_length_b   8.62169802
_cell_length_c   8.62169784
_cell_angle_alpha   90.25321716
_cell_angle_beta   90.25323250
_cell_angle_gamma   90.25324548
_symmetry_Int_Tables_number   1
_chemical_formula_structural   Ba7NaScUS12
_chemical_formula_sum   'Ba7 Na1 Sc1 U1 S12'
_cell_volume   640.86368768
_cell_formula_units_Z   1
loop_
 _symmetry_equiv_pos_site_id
 _symmetry_equiv_pos_as_xyz
  1  'x, y, z'
loop_
 _atom_site_type_symbol
 _atom_site_label
 _atom_site_symmetry_multiplicity
 _atom_site_fract_x
 _atom_site_fract_y
 _atom_site_fract_z
 _atom_site_occupancy
  Ba  Ba0  1  0.877128  0.611306  0.264805  1
  Ba  Ba1  1  0.264805  0.877128  0.611306  1
  Ba  Ba2  1  0.611306  0.264805  0.877128  1
  Ba  Ba3  1  0.731149  0.127714  0.381582  1
  Ba  Ba4  1  0.381582  0.731149  0.127714  1
  Ba  Ba5  1  0.127714  0.381582  0.731149  1
  Ba  Ba6  1  0.742563  0.742563  0.742563  1
  Na  Na7  1  0.261838  0.261838  0.261838  1
  Sc  Sc8  1  0.492618  0.492618  0.492618  1
  U  U9  1  0.005556  0.005556  0.005556  1
  S  S10  1  0.209990  0.559677  0.416499  1
  S  S11  1  0.416499  0.209990  0.559677  1
  S  S12  1  0.559677  0.416499  0.209990  1
  S  S13  1  0.932877  0.054992  0.716914  1
  S  S14  1  0.716914  0.932877  0.054992  1
  S  S15  1  0.054992  0.716914  0.932877  1
  S  S16  1  0.788110  0.433592  0.581572  1
  S  S17  1  0.581572  0.788110  0.433592  1
  S  S18  1  0.433592  0.581572  0.788110  1
  S  S19  1  0.070712  0.950606  0.288202  1
  S  S20  1  0.288202  0.070712  0.950606  1
  S  S21  1  0.950606  0.288202  0.070712  1
