# generated using pymatgen
data_Ho5Tm5(OsRh)2
_symmetry_space_group_name_H-M   'P 1'
_cell_length_a   6.33073305
_cell_length_b   7.22252632
_cell_length_c   8.41349100
_cell_angle_alpha   96.82751712
_cell_angle_beta   112.01225724
_cell_angle_gamma   89.98860997
_symmetry_Int_Tables_number   1
_chemical_formula_structural   Ho5Tm5(OsRh)2
_chemical_formula_sum   'Ho5 Tm5 Os2 Rh2'
_cell_volume   353.71388131
_cell_formula_units_Z   1
loop_
 _symmetry_equiv_pos_site_id
 _symmetry_equiv_pos_as_xyz
  1  'x, y, z'
loop_
 _atom_site_type_symbol
 _atom_site_label
 _atom_site_symmetry_multiplicity
 _atom_site_fract_x
 _atom_site_fract_y
 _atom_site_fract_z
 _atom_site_occupancy
  Ho  Ho0  1  0.790297  0.081415  0.811794  1
  Ho  Ho1  1  0.977919  0.418568  0.188224  1
  Ho  Ho2  1  0.211222  0.915592  0.184124  1
  Ho  Ho3  1  0.026416  0.584149  0.815472  1
  Ho  Ho4  1  0.207578  0.183721  0.564394  1
  Tm  Tm5  1  0.643182  0.317442  0.435171  1
  Tm  Tm6  1  0.792328  0.812776  0.437738  1
  Tm  Tm7  1  0.354856  0.686101  0.562171  1
  Tm  Tm8  1  0.421127  0.250167  0.000489  1
  Tm  Tm9  1  0.575339  0.750153  0.000045  1
  Os  Os10  1  0.398791  0.574439  0.220219  1
  Os  Os11  1  0.178921  0.925102  0.780136  1
  Rh  Rh12  1  0.601755  0.424848  0.779413  1
  Rh  Rh13  1  0.820266  0.075528  0.220612  1
