# generated using pymatgen
data_LiEr4Tc2B16Rh
_symmetry_space_group_name_H-M   'P 1'
_cell_length_a   3.56776400
_cell_length_b   5.93268564
_cell_length_c   11.43612943
_cell_angle_alpha   90.00651657
_cell_angle_beta   90.00000000
_cell_angle_gamma   90.00000000
_symmetry_Int_Tables_number   1
_chemical_formula_structural   LiEr4Tc2B16Rh
_chemical_formula_sum   'Li1 Er4 Tc2 B16 Rh1'
_cell_volume   242.06194299
_cell_formula_units_Z   1
loop_
 _symmetry_equiv_pos_site_id
 _symmetry_equiv_pos_as_xyz
  1  'x, y, z'
loop_
 _atom_site_type_symbol
 _atom_site_label
 _atom_site_symmetry_multiplicity
 _atom_site_fract_x
 _atom_site_fract_y
 _atom_site_fract_z
 _atom_site_occupancy
  Li  Li0  1  0.000000  0.135342  0.912261  1
  Er  Er1  1  0.000000  0.127809  0.651503  1
  Er  Er2  1  0.000000  0.869609  0.349927  1
  Er  Er3  1  0.000000  0.624772  0.851248  1
  Er  Er4  1  0.000000  0.373822  0.146448  1
  Tc  Tc5  1  0.000000  0.637011  0.587157  1
  Tc  Tc6  1  0.000000  0.363073  0.412028  1
  B  B7  1  0.500000  0.789582  0.687609  1
  B  B8  1  0.500000  0.211020  0.313219  1
  B  B9  1  0.500000  0.287270  0.816618  1
  B  B10  1  0.500000  0.711291  0.183801  1
  B  B11  1  0.500000  0.864938  0.531690  1
  B  B12  1  0.500000  0.134109  0.469172  1
  B  B13  1  0.500000  0.364798  0.967564  1
  B  B14  1  0.500000  0.634682  0.030383  1
  B  B15  1  0.500000  0.021472  0.191985  1
  B  B16  1  0.500000  0.981913  0.808404  1
  B  B17  1  0.500000  0.524321  0.306278  1
  B  B18  1  0.500000  0.473743  0.694725  1
  B  B19  1  0.500000  0.114286  0.047664  1
  B  B20  1  0.500000  0.885042  0.952593  1
  B  B21  1  0.500000  0.612154  0.452786  1
  B  B22  1  0.500000  0.385674  0.547693  1
  Rh  Rh23  1  0.000000  0.872269  0.087244  1
