# generated using pymatgen
data_K4Rb8Ga3FeSe12
_symmetry_space_group_name_H-M   'P 1'
_cell_length_a   13.47731456
_cell_length_b   8.34769285
_cell_length_c   10.89197790
_cell_angle_alpha   52.67754597
_cell_angle_beta   90.10645774
_cell_angle_gamma   89.98808920
_symmetry_Int_Tables_number   1
_chemical_formula_structural   K4Rb8Ga3FeSe12
_chemical_formula_sum   'K4 Rb8 Ga3 Fe1 Se12'
_cell_volume   974.47614695
_cell_formula_units_Z   1
loop_
 _symmetry_equiv_pos_site_id
 _symmetry_equiv_pos_as_xyz
  1  'x, y, z'
loop_
 _atom_site_type_symbol
 _atom_site_label
 _atom_site_symmetry_multiplicity
 _atom_site_fract_x
 _atom_site_fract_y
 _atom_site_fract_z
 _atom_site_occupancy
  K  K0  1  0.620242  0.370039  0.476133  1
  K  K1  1  0.120135  0.630772  0.023729  1
  K  K2  1  0.379879  0.630364  0.523927  1
  K  K3  1  0.879901  0.369549  0.975564  1
  Rb  Rb4  1  0.909459  0.340076  0.394486  1
  Rb  Rb5  1  0.409542  0.660456  0.105677  1
  Rb  Rb6  1  0.090311  0.659395  0.606120  1
  Rb  Rb7  1  0.590487  0.339840  0.894035  1
  Rb  Rb8  1  0.191008  0.135815  0.582528  1
  Rb  Rb9  1  0.691160  0.864378  0.917738  1
  Rb  Rb10  1  0.808886  0.863397  0.418118  1
  Rb  Rb11  1  0.308831  0.135872  0.081909  1
  Ga  Ga12  1  0.439225  0.938063  0.660371  1
  Ga  Ga13  1  0.060269  0.938490  0.158908  1
  Ga  Ga14  1  0.560807  0.062062  0.339594  1
  Fe  Fe15  1  0.939883  0.061128  0.841987  1
  Se  Se16  1  0.394118  0.152171  0.377995  1
  Se  Se17  1  0.894204  0.848967  0.119988  1
  Se  Se18  1  0.605866  0.847923  0.622058  1
  Se  Se19  1  0.105073  0.151698  0.877500  1
  Se  Se20  1  0.676974  0.341107  0.195445  1
  Se  Se21  1  0.176854  0.659063  0.304025  1
  Se  Se22  1  0.323001  0.659094  0.804424  1
  Se  Se23  1  0.824463  0.336394  0.696975  1
  Se  Se24  1  0.549860  0.864612  0.246073  1
  Se  Se25  1  0.049762  0.135824  0.253212  1
  Se  Se26  1  0.450069  0.135676  0.753726  1
  Se  Se27  1  0.949729  0.867774  0.747755  1
