# generated using pymatgen
data_Dy5HoSc4(In2Rh)4
_symmetry_space_group_name_H-M   'P 1'
_cell_length_a   3.55704700
_cell_length_b   7.89345249
_cell_length_c   17.96058112
_cell_angle_alpha   90.04036326
_cell_angle_beta   90.00000000
_cell_angle_gamma   90.00000000
_symmetry_Int_Tables_number   1
_chemical_formula_structural   Dy5HoSc4(In2Rh)4
_chemical_formula_sum   'Dy5 Ho1 Sc4 In8 Rh4'
_cell_volume   504.28596274
_cell_formula_units_Z   1
loop_
 _symmetry_equiv_pos_site_id
 _symmetry_equiv_pos_as_xyz
  1  'x, y, z'
loop_
 _atom_site_type_symbol
 _atom_site_label
 _atom_site_symmetry_multiplicity
 _atom_site_fract_x
 _atom_site_fract_y
 _atom_site_fract_z
 _atom_site_occupancy
  Dy  Dy0  1  0.000000  0.999980  0.000029  1
  Dy  Dy1  1  0.000000  0.499969  0.500007  1
  Dy  Dy2  1  0.000000  0.748241  0.781432  1
  Dy  Dy3  1  0.000000  0.251860  0.218616  1
  Dy  Dy4  1  0.000000  0.248182  0.718591  1
  Ho  Ho5  1  0.000000  0.751968  0.281290  1
  Sc  Sc6  1  0.000000  0.878106  0.588421  1
  Sc  Sc7  1  0.000000  0.121770  0.411507  1
  Sc  Sc8  1  0.000000  0.378147  0.911561  1
  Sc  Sc9  1  0.000000  0.621949  0.088518  1
  In  In10  1  0.500000  0.808554  0.437602  1
  In  In11  1  0.500000  0.191331  0.562235  1
  In  In12  1  0.500000  0.308741  0.062247  1
  In  In13  1  0.500000  0.691304  0.937774  1
  In  In14  1  0.500000  0.925794  0.149595  1
  In  In15  1  0.500000  0.074020  0.850527  1
  In  In16  1  0.500000  0.426339  0.350507  1
  In  In17  1  0.500000  0.573999  0.649468  1
  Rh  Rh18  1  0.500000  0.962788  0.691876  1
  Rh  Rh19  1  0.500000  0.036649  0.308057  1
  Rh  Rh20  1  0.500000  0.462761  0.808148  1
  Rh  Rh21  1  0.500000  0.537548  0.191993  1
