# generated using pymatgen
data_Ta13Co8Os3C4
_symmetry_space_group_name_H-M   'P 1'
_cell_length_a   8.09878410
_cell_length_b   8.17053583
_cell_length_c   8.17075200
_cell_angle_alpha   59.99912480
_cell_angle_beta   59.70560694
_cell_angle_gamma   59.70476496
_symmetry_Int_Tables_number   1
_chemical_formula_structural   Ta13Co8Os3C4
_chemical_formula_sum   'Ta13 Co8 Os3 C4'
_cell_volume   380.59654167
_cell_formula_units_Z   1
loop_
 _symmetry_equiv_pos_site_id
 _symmetry_equiv_pos_as_xyz
  1  'x, y, z'
loop_
 _atom_site_type_symbol
 _atom_site_label
 _atom_site_symmetry_multiplicity
 _atom_site_fract_x
 _atom_site_fract_y
 _atom_site_fract_z
 _atom_site_occupancy
  Ta  Ta0  1  0.125000  0.625000  0.625000  1
  Ta  Ta1  1  0.804175  0.805229  0.195298  1
  Ta  Ta2  1  0.193863  0.186106  0.810016  1
  Ta  Ta3  1  0.804176  0.195287  0.805246  1
  Ta  Ta4  1  0.193858  0.810012  0.186112  1
  Ta  Ta5  1  0.193858  0.810012  0.810018  1
  Ta  Ta6  1  0.804176  0.195287  0.195290  1
  Ta  Ta7  1  0.445825  0.444771  0.054702  1
  Ta  Ta8  1  0.056137  0.063894  0.439984  1
  Ta  Ta9  1  0.445824  0.054713  0.444754  1
  Ta  Ta10  1  0.056142  0.439988  0.063888  1
  Ta  Ta11  1  0.056142  0.439988  0.439982  1
  Ta  Ta12  1  0.445824  0.054713  0.054710  1
  Co  Co13  1  0.727135  0.424280  0.424293  1
  Co  Co14  1  0.423271  0.736473  0.420128  1
  Co  Co15  1  0.423290  0.420133  0.736445  1
  Co  Co16  1  0.423290  0.420133  0.420132  1
  Co  Co17  1  0.522865  0.825720  0.825707  1
  Co  Co18  1  0.826729  0.513527  0.829872  1
  Co  Co19  1  0.826710  0.829867  0.513555  1
  Co  Co20  1  0.826710  0.829867  0.829868  1
  Os  Os21  1  0.625000  0.125000  0.625000  1
  Os  Os22  1  0.625000  0.625000  0.125000  1
  Os  Os23  1  0.625000  0.625000  0.625000  1
  C  C24  1  0.625000  0.125000  0.125000  1
  C  C25  1  0.125000  0.625000  0.125000  1
  C  C26  1  0.125000  0.125000  0.625000  1
  C  C27  1  0.125000  0.125000  0.125000  1
