# generated using pymatgen
data_BaSiSe6
_symmetry_space_group_name_H-M   'P 1'
_cell_length_a   8.37618700
_cell_length_b   11.16145400
_cell_length_c   11.77018000
_cell_angle_alpha   90.00000000
_cell_angle_beta   90.00000000
_cell_angle_gamma   90.00000000
_symmetry_Int_Tables_number   1
_chemical_formula_structural   BaSiSe6
_chemical_formula_sum   'Ba4 Si4 Se24'
_cell_volume   1100.39914107
_cell_formula_units_Z   4
loop_
 _symmetry_equiv_pos_site_id
 _symmetry_equiv_pos_as_xyz
  1  'x, y, z'
loop_
 _atom_site_type_symbol
 _atom_site_label
 _atom_site_symmetry_multiplicity
 _atom_site_fract_x
 _atom_site_fract_y
 _atom_site_fract_z
 _atom_site_occupancy
  Ba  Ba0  1  0.936066  0.334333  0.877229  1
  Ba  Ba1  1  0.063934  0.834333  0.122771  1
  Ba  Ba2  1  0.063934  0.334333  0.377229  1
  Ba  Ba3  1  0.936066  0.834333  0.622771  1
  Si  Si4  1  0.197981  0.655438  0.861762  1
  Si  Si5  1  0.802019  0.155438  0.138238  1
  Si  Si6  1  0.802019  0.655438  0.361762  1
  Si  Si7  1  0.197981  0.155438  0.638238  1
  Se  Se8  1  0.931912  0.687169  0.882936  1
  Se  Se9  1  0.068088  0.187169  0.117064  1
  Se  Se10  1  0.068088  0.687169  0.382936  1
  Se  Se11  1  0.931912  0.187169  0.617064  1
  Se  Se12  1  0.913311  0.456100  0.138334  1
  Se  Se13  1  0.086689  0.956100  0.861666  1
  Se  Se14  1  0.086689  0.456100  0.638334  1
  Se  Se15  1  0.913311  0.956100  0.361666  1
  Se  Se16  1  0.652143  0.315117  0.088477  1
  Se  Se17  1  0.347857  0.815117  0.911523  1
  Se  Se18  1  0.347857  0.315117  0.588477  1
  Se  Se19  1  0.652143  0.815117  0.411523  1
  Se  Se20  1  0.743963  0.629661  0.170260  1
  Se  Se21  1  0.256037  0.129661  0.829740  1
  Se  Se22  1  0.256037  0.629661  0.670260  1
  Se  Se23  1  0.743963  0.129661  0.329740  1
  Se  Se24  1  0.797924  0.553013  0.646597  1
  Se  Se25  1  0.202076  0.053013  0.353403  1
  Se  Se26  1  0.202076  0.553013  0.146597  1
  Se  Se27  1  0.797924  0.053013  0.853403  1
  Se  Se28  1  0.283914  0.484879  0.960001  1
  Se  Se29  1  0.716086  0.984879  0.039999  1
  Se  Se30  1  0.716086  0.484879  0.460001  1
  Se  Se31  1  0.283914  0.984879  0.539999  1
