# generated using pymatgen
data_GdTi4O3
_symmetry_space_group_name_H-M   'P 1'
_cell_length_a   8.37822982
_cell_length_b   17.09243376
_cell_length_c   20.28031743
_cell_angle_alpha   110.14043477
_cell_angle_beta   85.82846363
_cell_angle_gamma   113.46068747
_symmetry_Int_Tables_number   1
_chemical_formula_structural   GdTi4O3
_chemical_formula_sum   'Gd1 Ti4 O3'
_cell_volume   2494.24897590
_cell_formula_units_Z   1
loop_
 _symmetry_equiv_pos_site_id
 _symmetry_equiv_pos_as_xyz
  1  'x, y, z'
loop_
 _atom_site_type_symbol
 _atom_site_label
 _atom_site_symmetry_multiplicity
 _atom_site_fract_x
 _atom_site_fract_y
 _atom_site_fract_z
 _atom_site_occupancy
  Gd  Gd0  1  0.456915  0.920766  0.443412  1
  Ti  Ti1  1  0.326580  0.357345  0.569423  1
  Ti  Ti2  1  0.057788  0.277934  0.984238  1
  Ti  Ti3  1  0.949933  0.662455  0.485347  1
  Ti  Ti4  1  0.598695  0.692652  0.685863  1
  O  O5  1  0.253857  0.350165  0.707208  1
  O  O6  1  0.397606  0.070589  0.151135  1
  O  O7  1  0.297866  0.582312  0.442270  1
