# generated using pymatgen
data_SmYMnCo16
_symmetry_space_group_name_H-M   'P 1'
_cell_length_a   6.30383461
_cell_length_b   6.30383376
_cell_length_c   6.30383423
_cell_angle_alpha   83.15896782
_cell_angle_beta   83.15897068
_cell_angle_gamma   83.15897099
_symmetry_Int_Tables_number   1
_chemical_formula_structural   SmYMnCo16
_chemical_formula_sum   'Sm1 Y1 Mn1 Co16'
_cell_volume   245.54676701
_cell_formula_units_Z   1
loop_
 _symmetry_equiv_pos_site_id
 _symmetry_equiv_pos_as_xyz
  1  'x, y, z'
loop_
 _atom_site_type_symbol
 _atom_site_label
 _atom_site_symmetry_multiplicity
 _atom_site_fract_x
 _atom_site_fract_y
 _atom_site_fract_z
 _atom_site_occupancy
  Sm  Sm0  1  0.346565  0.346565  0.346565  1
  Y  Y1  1  0.656040  0.656040  0.656040  1
  Mn  Mn2  1  0.096760  0.096760  0.096760  1
  Co  Co3  1  0.712626  0.287426  0.998393  1
  Co  Co4  1  0.998393  0.712626  0.287426  1
  Co  Co5  1  0.287426  0.998393  0.712626  1
  Co  Co6  1  0.998393  0.287426  0.712626  1
  Co  Co7  1  0.712626  0.998393  0.287426  1
  Co  Co8  1  0.287426  0.712626  0.998393  1
  Co  Co9  1  0.347199  0.347199  0.848967  1
  Co  Co10  1  0.848967  0.347199  0.347199  1
  Co  Co11  1  0.347199  0.848967  0.347199  1
  Co  Co12  1  0.655860  0.655860  0.150869  1
  Co  Co13  1  0.150869  0.655860  0.655860  1
  Co  Co14  1  0.655860  0.150869  0.655860  1
  Co  Co15  1  0.997116  0.997116  0.504674  1
  Co  Co16  1  0.504674  0.997116  0.997116  1
  Co  Co17  1  0.997116  0.504674  0.997116  1
  Co  Co18  1  0.898890  0.898890  0.898890  1
