# generated using pymatgen
data_Zr8Al14Ru7S
_symmetry_space_group_name_H-M   'P 1'
_cell_length_a   8.86995432
_cell_length_b   8.86995409
_cell_length_c   8.86995400
_cell_angle_alpha   120.09889340
_cell_angle_beta   119.95348153
_cell_angle_gamma   89.95469377
_symmetry_Int_Tables_number   1
_chemical_formula_structural   Zr8Al14Ru7S
_chemical_formula_sum   'Zr8 Al14 Ru7 S1'
_cell_volume   493.26030387
_cell_formula_units_Z   1
loop_
 _symmetry_equiv_pos_site_id
 _symmetry_equiv_pos_as_xyz
  1  'x, y, z'
loop_
 _atom_site_type_symbol
 _atom_site_label
 _atom_site_symmetry_multiplicity
 _atom_site_fract_x
 _atom_site_fract_y
 _atom_site_fract_z
 _atom_site_occupancy
  Zr  Zr0  1  0.806032  0.299764  0.096165  1
  Zr  Zr1  1  0.203601  0.299764  0.493733  1
  Zr  Zr2  1  0.195724  0.695724  0.500000  1
  Zr  Zr3  1  0.203601  0.709868  0.903835  1
  Zr  Zr4  1  0.806032  0.709868  0.506267  1
  Zr  Zr5  1  0.790801  0.290801  0.500000  1
  Zr  Zr6  1  0.379570  0.117629  0.738060  1
  Zr  Zr7  1  0.379570  0.641510  0.261940  1
  Al  Al8  1  0.163427  0.330327  0.166899  1
  Al  Al9  1  0.163427  0.996527  0.833101  1
  Al  Al10  1  0.157433  0.336034  0.821398  1
  Al  Al11  1  0.514635  0.336034  0.178602  1
  Al  Al12  1  0.835251  0.664997  0.829749  1
  Al  Al13  1  0.835251  0.005502  0.170251  1
  Al  Al14  1  0.834804  0.664462  0.170342  1
  Al  Al15  1  0.494121  0.664462  0.829658  1
  Al  Al16  1  0.379165  0.119810  0.259355  1
  Al  Al17  1  0.860457  0.119810  0.740645  1
  Al  Al18  1  0.621478  0.877949  0.256471  1
  Al  Al19  1  0.621478  0.365008  0.743529  1
  Al  Al20  1  0.624002  0.880609  0.743394  1
  Al  Al21  1  0.137215  0.880609  0.256606  1
  Ru  Ru22  1  0.995877  0.998994  0.498774  1
  Ru  Ru23  1  0.500219  0.998994  0.003116  1
  Ru  Ru24  1  0.499596  0.499596  0.000000  1
  Ru  Ru25  1  0.500219  0.497103  0.501226  1
  Ru  Ru26  1  0.995877  0.497103  0.996884  1
  Ru  Ru27  1  0.999545  0.999545  0.000000  1
  Ru  Ru28  1  0.507912  0.007912  0.500000  1
  S  S29  1  0.993684  0.493684  0.500000  1
