# generated using pymatgen
data_Nd6Lu6Th4ZnCd3Ir4
_symmetry_space_group_name_H-M   'P 1'
_cell_length_a   9.74016881
_cell_length_b   9.74016974
_cell_length_c   9.74016864
_cell_angle_alpha   60.03379045
_cell_angle_beta   60.03378627
_cell_angle_gamma   60.03379272
_symmetry_Int_Tables_number   1
_chemical_formula_structural   Nd6Lu6Th4ZnCd3Ir4
_chemical_formula_sum   'Nd6 Lu6 Th4 Zn1 Cd3 Ir4'
_cell_volume   653.90852875
_cell_formula_units_Z   1
loop_
 _symmetry_equiv_pos_site_id
 _symmetry_equiv_pos_as_xyz
  1  'x, y, z'
loop_
 _atom_site_type_symbol
 _atom_site_label
 _atom_site_symmetry_multiplicity
 _atom_site_fract_x
 _atom_site_fract_y
 _atom_site_fract_z
 _atom_site_occupancy
  Nd  Nd0  1  0.937168  0.561477  0.561477  1
  Nd  Nd1  1  0.559837  0.939608  0.939608  1
  Nd  Nd2  1  0.561477  0.937168  0.561477  1
  Nd  Nd3  1  0.939608  0.559837  0.939608  1
  Nd  Nd4  1  0.561477  0.561477  0.937168  1
  Nd  Nd5  1  0.939608  0.939608  0.559837  1
  Lu  Lu6  1  0.816116  0.183571  0.183571  1
  Lu  Lu7  1  0.183622  0.816507  0.816507  1
  Lu  Lu8  1  0.183571  0.816116  0.183571  1
  Lu  Lu9  1  0.816507  0.183622  0.816507  1
  Lu  Lu10  1  0.183571  0.183571  0.816116  1
  Lu  Lu11  1  0.816507  0.816507  0.183622  1
  Th  Th12  1  0.349346  0.349346  0.349346  1
  Th  Th13  1  0.350412  0.350412  0.949662  1
  Th  Th14  1  0.350412  0.949662  0.350412  1
  Th  Th15  1  0.949662  0.350412  0.350412  1
  Zn  Zn16  1  0.580405  0.580405  0.580405  1
  Cd  Cd17  1  0.579982  0.579982  0.260795  1
  Cd  Cd18  1  0.579982  0.260795  0.579982  1
  Cd  Cd19  1  0.260795  0.579982  0.579982  1
  Ir  Ir20  1  0.142449  0.142449  0.142449  1
  Ir  Ir21  1  0.142150  0.142150  0.573183  1
  Ir  Ir22  1  0.142150  0.573183  0.142150  1
  Ir  Ir23  1  0.573183  0.142150  0.142150  1
