# generated using pymatgen
data_PmSi2RuPt
_symmetry_space_group_name_H-M   'P 1'
_cell_length_a   5.87635037
_cell_length_b   5.87634993
_cell_length_c   5.87635077
_cell_angle_alpha   138.97199762
_cell_angle_beta   138.97199524
_cell_angle_gamma   59.41755529
_symmetry_Int_Tables_number   1
_chemical_formula_structural   PmSi2RuPt
_chemical_formula_sum   'Pm1 Si2 Ru1 Pt1'
_cell_volume   86.57624861
_cell_formula_units_Z   1
loop_
 _symmetry_equiv_pos_site_id
 _symmetry_equiv_pos_as_xyz
  1  'x, y, z'
loop_
 _atom_site_type_symbol
 _atom_site_label
 _atom_site_symmetry_multiplicity
 _atom_site_fract_x
 _atom_site_fract_y
 _atom_site_fract_z
 _atom_site_occupancy
  Pm  Pm0  1  0.000000  0.000000  0.000000  1
  Si  Si1  1  0.378093  0.378093  0.000000  1
  Si  Si2  1  0.621906  0.621906  0.000000  1
  Ru  Ru3  1  0.750000  0.250000  0.500000  1
  Pt  Pt4  1  0.250000  0.750000  0.500000  1
