# generated using pymatgen
data_NpI19
_symmetry_space_group_name_H-M   'P 1'
_cell_length_a   11.28240732
_cell_length_b   7.40878937
_cell_length_c   18.63956100
_cell_angle_alpha   112.41935583
_cell_angle_beta   70.62709114
_cell_angle_gamma   112.17243233
_symmetry_Int_Tables_number   1
_chemical_formula_structural   NpI19
_chemical_formula_sum   'Np1 I19'
_cell_volume   1301.30723471
_cell_formula_units_Z   1
loop_
 _symmetry_equiv_pos_site_id
 _symmetry_equiv_pos_as_xyz
  1  'x, y, z'
loop_
 _atom_site_type_symbol
 _atom_site_label
 _atom_site_symmetry_multiplicity
 _atom_site_fract_x
 _atom_site_fract_y
 _atom_site_fract_z
 _atom_site_occupancy
  Np  Np0  1  0.379205  0.121138  0.115240  1
  I  I1  1  0.975487  0.256981  0.607461  1
  I  I2  1  0.873989  0.625705  0.139149  1
  I  I3  1  0.851475  0.897839  0.685678  1
  I  I4  1  0.886534  0.714317  0.990122  1
  I  I5  1  0.138005  0.578955  0.543675  1
  I  I6  1  0.347122  0.174207  0.967841  1
  I  I7  1  0.497261  0.552735  0.170773  1
  I  I8  1  0.596417  0.174584  0.519484  1
  I  I9  1  0.287649  0.332582  0.400139  1
  I  I10  1  0.416308  0.070913  0.263465  1
  I  I11  1  0.126165  0.185834  0.194068  1
  I  I12  1  0.257818  0.690700  0.063363  1
  I  I13  1  0.860423  0.561179  0.282532  1
  I  I14  1  0.461776  0.925504  0.813787  1
  I  I15  1  0.000211  0.412531  0.868648  1
  I  I16  1  0.585289  0.704477  0.654526  1
  I  I17  1  0.102006  0.075397  0.738605  1
  I  I18  1  0.723234  0.889023  0.405652  1
  I  I19  1  0.633625  0.055399  0.038393  1
