# generated using pymatgen
data_Zr2GaFe(BRu2)2
_symmetry_space_group_name_H-M   'P 1'
_cell_length_a   9.26616500
_cell_length_b   9.26616500
_cell_length_c   3.08650200
_cell_angle_alpha   90.00000000
_cell_angle_beta   90.00000000
_cell_angle_gamma   90.00000000
_symmetry_Int_Tables_number   1
_chemical_formula_structural   Zr2GaFe(BRu2)2
_chemical_formula_sum   'Zr4 Ga2 Fe2 B4 Ru8'
_cell_volume   265.01266004
_cell_formula_units_Z   2
loop_
 _symmetry_equiv_pos_site_id
 _symmetry_equiv_pos_as_xyz
  1  'x, y, z'
loop_
 _atom_site_type_symbol
 _atom_site_label
 _atom_site_symmetry_multiplicity
 _atom_site_fract_x
 _atom_site_fract_y
 _atom_site_fract_z
 _atom_site_occupancy
  Zr  Zr0  1  0.674862  0.174862  0.000000  1
  Zr  Zr1  1  0.325138  0.825138  0.000000  1
  Zr  Zr2  1  0.174862  0.325138  0.000000  1
  Zr  Zr3  1  0.825138  0.674862  0.000000  1
  Ga  Ga4  1  0.000000  0.000000  0.000000  1
  Ga  Ga5  1  0.500000  0.500000  0.000000  1
  Fe  Fe6  1  0.500000  0.000000  0.500000  1
  Fe  Fe7  1  0.000000  0.500000  0.500000  1
  B  B8  1  0.117002  0.617002  0.000000  1
  B  B9  1  0.882998  0.382998  0.000000  1
  B  B10  1  0.617002  0.882998  0.000000  1
  B  B11  1  0.382998  0.117002  0.000000  1
  Ru  Ru12  1  0.220893  0.063672  0.500000  1
  Ru  Ru13  1  0.779107  0.936328  0.500000  1
  Ru  Ru14  1  0.063672  0.779107  0.500000  1
  Ru  Ru15  1  0.720893  0.436328  0.500000  1
  Ru  Ru16  1  0.936328  0.220893  0.500000  1
  Ru  Ru17  1  0.279107  0.563672  0.500000  1
  Ru  Ru18  1  0.563672  0.720893  0.500000  1
  Ru  Ru19  1  0.436328  0.279107  0.500000  1
