# generated using pymatgen
data_Ca7Nd8Dy5Sn16
_symmetry_space_group_name_H-M   'P 1'
_cell_length_a   8.01675168
_cell_length_b   8.46462720
_cell_length_c   15.93559000
_cell_angle_alpha   89.97462359
_cell_angle_beta   90.06821105
_cell_angle_gamma   89.91946064
_symmetry_Int_Tables_number   1
_chemical_formula_structural   Ca7Nd8Dy5Sn16
_chemical_formula_sum   'Ca7 Nd8 Dy5 Sn16'
_cell_volume   1081.36830150
_cell_formula_units_Z   1
loop_
 _symmetry_equiv_pos_site_id
 _symmetry_equiv_pos_as_xyz
  1  'x, y, z'
loop_
 _atom_site_type_symbol
 _atom_site_label
 _atom_site_symmetry_multiplicity
 _atom_site_fract_x
 _atom_site_fract_y
 _atom_site_fract_z
 _atom_site_occupancy
  Ca  Ca0  1  0.330873  0.830074  0.878232  1
  Ca  Ca1  1  0.832520  0.669843  0.622449  1
  Ca  Ca2  1  0.669587  0.169050  0.376505  1
  Ca  Ca3  1  0.163086  0.500499  0.749695  1
  Ca  Ca4  1  0.662820  0.001255  0.751055  1
  Ca  Ca5  1  0.835466  0.500381  0.250123  1
  Ca  Ca6  1  0.337092  0.996661  0.251244  1
  Nd  Nd7  1  0.491628  0.317226  0.905868  1
  Nd  Nd8  1  0.991356  0.183948  0.595065  1
  Nd  Nd9  1  0.509077  0.682369  0.404128  1
  Nd  Nd10  1  0.006995  0.817450  0.095000  1
  Nd  Nd11  1  0.506884  0.682008  0.095585  1
  Nd  Nd12  1  0.005726  0.817940  0.403782  1
  Nd  Nd13  1  0.493173  0.317984  0.595188  1
  Nd  Nd14  1  0.992312  0.183318  0.904194  1
  Dy  Dy15  1  0.167057  0.328099  0.124104  1
  Dy  Dy16  1  0.667359  0.170984  0.124265  1
  Dy  Dy17  1  0.167888  0.328419  0.374712  1
  Dy  Dy18  1  0.333337  0.828304  0.624459  1
  Dy  Dy19  1  0.832655  0.673135  0.875975  1
  Sn  Sn20  1  0.329304  0.038816  0.041166  1
  Sn  Sn21  1  0.834374  0.463501  0.459632  1
  Sn  Sn22  1  0.666897  0.964799  0.540650  1
  Sn  Sn23  1  0.168967  0.534703  0.962150  1
  Sn  Sn24  1  0.677196  0.962196  0.963607  1
  Sn  Sn25  1  0.178392  0.538671  0.536079  1
  Sn  Sn26  1  0.323056  0.037478  0.463290  1
  Sn  Sn27  1  0.825610  0.460666  0.037576  1
  Sn  Sn28  1  0.533181  0.610027  0.751412  1
  Sn  Sn29  1  0.032916  0.891573  0.748244  1
  Sn  Sn30  1  0.466590  0.389512  0.248659  1
  Sn  Sn31  1  0.970041  0.112582  0.247834  1
  Sn  Sn32  1  0.288592  0.139138  0.748732  1
  Sn  Sn33  1  0.789001  0.362281  0.751578  1
  Sn  Sn34  1  0.710713  0.860285  0.248190  1
  Sn  Sn35  1  0.208282  0.634828  0.249570  1
