# generated using pymatgen
data_Nb12Ga8Cu3NiC4
_symmetry_space_group_name_H-M   'P 1'
_cell_length_a   8.30202771
_cell_length_b   8.29154609
_cell_length_c   8.29144900
_cell_angle_alpha   60.00056095
_cell_angle_beta   60.04212106
_cell_angle_gamma   60.04121012
_symmetry_Int_Tables_number   1
_chemical_formula_structural   Nb12Ga8Cu3NiC4
_chemical_formula_sum   'Nb12 Ga8 Cu3 Ni1 C4'
_cell_volume   403.84080428
_cell_formula_units_Z   1
loop_
 _symmetry_equiv_pos_site_id
 _symmetry_equiv_pos_as_xyz
  1  'x, y, z'
loop_
 _atom_site_type_symbol
 _atom_site_label
 _atom_site_symmetry_multiplicity
 _atom_site_fract_x
 _atom_site_fract_y
 _atom_site_fract_z
 _atom_site_occupancy
  Nb  Nb0  1  0.814947  0.815243  0.184906  1
  Nb  Nb1  1  0.184568  0.185675  0.814877  1
  Nb  Nb2  1  0.814942  0.184910  0.815236  1
  Nb  Nb3  1  0.184563  0.814879  0.185674  1
  Nb  Nb4  1  0.184569  0.814878  0.814877  1
  Nb  Nb5  1  0.814942  0.184906  0.184910  1
  Nb  Nb6  1  0.435053  0.434757  0.065094  1
  Nb  Nb7  1  0.065432  0.064325  0.435123  1
  Nb  Nb8  1  0.435058  0.065090  0.434764  1
  Nb  Nb9  1  0.065437  0.435121  0.064326  1
  Nb  Nb10  1  0.065431  0.435122  0.435123  1
  Nb  Nb11  1  0.435058  0.065094  0.065090  1
  Ga  Ga12  1  0.755390  0.414878  0.414863  1
  Ga  Ga13  1  0.412611  0.753649  0.416868  1
  Ga  Ga14  1  0.412607  0.416876  0.753650  1
  Ga  Ga15  1  0.412604  0.416876  0.416866  1
  Ga  Ga16  1  0.494610  0.835122  0.835137  1
  Ga  Ga17  1  0.837389  0.496351  0.833132  1
  Ga  Ga18  1  0.837393  0.833124  0.496350  1
  Ga  Ga19  1  0.837396  0.833124  0.833134  1
  Cu  Cu20  1  0.625000  0.125000  0.625000  1
  Cu  Cu21  1  0.625000  0.625000  0.125000  1
  Cu  Cu22  1  0.625000  0.625000  0.625000  1
  Ni  Ni23  1  0.125000  0.625000  0.625000  1
  C  C24  1  0.625000  0.125000  0.125000  1
  C  C25  1  0.125000  0.625000  0.125000  1
  C  C26  1  0.125000  0.125000  0.625000  1
  C  C27  1  0.125000  0.125000  0.125000  1
