# generated using pymatgen
data_Ho2Mo3P7Rh9
_symmetry_space_group_name_H-M   'P 1'
_cell_length_a   3.93385465
_cell_length_b   9.53285258
_cell_length_c   9.53248098
_cell_angle_alpha   120.00079866
_cell_angle_beta   89.99638583
_cell_angle_gamma   90.00453214
_symmetry_Int_Tables_number   1
_chemical_formula_structural   Ho2Mo3P7Rh9
_chemical_formula_sum   'Ho2 Mo3 P7 Rh9'
_cell_volume   309.58097853
_cell_formula_units_Z   1
loop_
 _symmetry_equiv_pos_site_id
 _symmetry_equiv_pos_as_xyz
  1  'x, y, z'
loop_
 _atom_site_type_symbol
 _atom_site_label
 _atom_site_symmetry_multiplicity
 _atom_site_fract_x
 _atom_site_fract_y
 _atom_site_fract_z
 _atom_site_occupancy
  Ho  Ho0  1  0.261163  0.666622  0.333260  1
  Ho  Ho1  1  0.762235  0.333360  0.666711  1
  Mo  Mo2  1  0.761993  0.091705  0.870743  1
  Mo  Mo3  1  0.762027  0.129351  0.221164  1
  Mo  Mo4  1  0.762001  0.778904  0.908167  1
  P  P5  1  0.262413  0.000038  0.999962  1
  P  P6  1  0.761653  0.881748  0.593381  1
  P  P7  1  0.761638  0.406576  0.288351  1
  P  P8  1  0.761623  0.711627  0.118191  1
  P  P9  1  0.262062  0.118373  0.411937  1
  P  P10  1  0.262083  0.588105  0.706480  1
  P  P11  1  0.262059  0.293572  0.881677  1
  Rh  Rh12  1  0.261873  0.884507  0.159794  1
  Rh  Rh13  1  0.261906  0.840148  0.724550  1
  Rh  Rh14  1  0.261906  0.275401  0.115634  1
  Rh  Rh15  1  0.761867  0.612911  0.558144  1
  Rh  Rh16  1  0.761845  0.441724  0.054623  1
  Rh  Rh17  1  0.761877  0.945243  0.387059  1
  Rh  Rh18  1  0.261961  0.371423  0.439902  1
  Rh  Rh19  1  0.261890  0.560222  0.931639  1
  Rh  Rh20  1  0.261922  0.068435  0.628634  1
