# generated using pymatgen
data_Pd2PtCl6
_symmetry_space_group_name_H-M   'P 1'
_cell_length_a   8.64379854
_cell_length_b   8.62001706
_cell_length_c   8.64379849
_cell_angle_alpha   108.14441480
_cell_angle_beta   108.13711466
_cell_angle_gamma   108.14441234
_symmetry_Int_Tables_number   1
_chemical_formula_structural   Pd2PtCl6
_chemical_formula_sum   'Pd4 Pt2 Cl12'
_cell_volume   518.75313119
_cell_formula_units_Z   2
loop_
 _symmetry_equiv_pos_site_id
 _symmetry_equiv_pos_as_xyz
  1  'x, y, z'
loop_
 _atom_site_type_symbol
 _atom_site_label
 _atom_site_symmetry_multiplicity
 _atom_site_fract_x
 _atom_site_fract_y
 _atom_site_fract_z
 _atom_site_occupancy
  Pd  Pd0  1  0.929072  0.929445  0.690468  1
  Pd  Pd1  1  0.690468  0.929445  0.929072  1
  Pd  Pd2  1  0.928772  0.689800  0.928772  1
  Pd  Pd3  1  0.069865  0.309465  0.069865  1
  Pt  Pt4  1  0.069844  0.070270  0.309229  1
  Pt  Pt5  1  0.309229  0.070270  0.069844  1
  Cl  Cl6  1  0.000055  0.236583  0.764208  1
  Cl  Cl7  1  0.766960  0.000825  0.236991  1
  Cl  Cl8  1  0.237067  0.766034  0.000347  1
  Cl  Cl9  1  0.000347  0.766034  0.237067  1
  Cl  Cl10  1  0.236991  0.000825  0.766960  1
  Cl  Cl11  1  0.764208  0.236583  0.000055  1
  Cl  Cl12  1  0.137276  0.372706  0.374850  1
  Cl  Cl13  1  0.374850  0.372706  0.137276  1
  Cl  Cl14  1  0.372146  0.136965  0.372146  1
  Cl  Cl15  1  0.625590  0.862321  0.625590  1
  Cl  Cl16  1  0.862016  0.624862  0.625245  1
  Cl  Cl17  1  0.625245  0.624862  0.862016  1
