# generated using pymatgen
data_ErV3P3Rh2
_symmetry_space_group_name_H-M   'P 1'
_cell_length_a   3.88338400
_cell_length_b   6.83773358
_cell_length_c   9.92783162
_cell_angle_alpha   80.05008877
_cell_angle_beta   90.00000000
_cell_angle_gamma   90.00000000
_symmetry_Int_Tables_number   1
_chemical_formula_structural   ErV3P3Rh2
_chemical_formula_sum   'Er2 V6 P6 Rh4'
_cell_volume   259.65407814
_cell_formula_units_Z   2
loop_
 _symmetry_equiv_pos_site_id
 _symmetry_equiv_pos_as_xyz
  1  'x, y, z'
loop_
 _atom_site_type_symbol
 _atom_site_label
 _atom_site_symmetry_multiplicity
 _atom_site_fract_x
 _atom_site_fract_y
 _atom_site_fract_z
 _atom_site_occupancy
  Er  Er0  1  0.250000  0.804264  0.790683  1
  Er  Er1  1  0.750000  0.195736  0.209317  1
  V  V2  1  0.250000  0.612244  0.513606  1
  V  V3  1  0.750000  0.387756  0.486394  1
  V  V4  1  0.250000  0.128775  0.500683  1
  V  V5  1  0.750000  0.871225  0.499317  1
  V  V6  1  0.250000  0.320732  0.726278  1
  V  V7  1  0.750000  0.679268  0.273722  1
  P  P8  1  0.250000  0.255403  0.977082  1
  P  P9  1  0.750000  0.744597  0.022918  1
  P  P10  1  0.250000  0.427362  0.329748  1
  P  P11  1  0.750000  0.572638  0.670252  1
  P  P12  1  0.250000  0.903051  0.337568  1
  P  P13  1  0.750000  0.096949  0.662432  1
  Rh  Rh14  1  0.250000  0.527180  0.095898  1
  Rh  Rh15  1  0.750000  0.472820  0.904102  1
  Rh  Rh16  1  0.250000  0.927570  0.099190  1
  Rh  Rh17  1  0.750000  0.072430  0.900810  1
