# generated using pymatgen
data_V12Ga4Co3IrN4
_symmetry_space_group_name_H-M   'P 1'
_cell_length_a   6.52521844
_cell_length_b   6.52521844
_cell_length_c   6.52521844
_cell_angle_alpha   89.97028237
_cell_angle_beta   89.97028237
_cell_angle_gamma   89.97028237
_symmetry_Int_Tables_number   1
_chemical_formula_structural   V12Ga4Co3IrN4
_chemical_formula_sum   'V12 Ga4 Co3 Ir1 N4'
_cell_volume   277.83374248
_cell_formula_units_Z   1
loop_
 _symmetry_equiv_pos_site_id
 _symmetry_equiv_pos_as_xyz
  1  'x, y, z'
loop_
 _atom_site_type_symbol
 _atom_site_label
 _atom_site_symmetry_multiplicity
 _atom_site_fract_x
 _atom_site_fract_y
 _atom_site_fract_z
 _atom_site_occupancy
  V  V0  1  0.795723  0.958933  0.375246  1
  V  V1  1  0.704105  0.042038  0.877962  1
  V  V2  1  0.204550  0.458261  0.124423  1
  V  V3  1  0.294842  0.539752  0.624742  1
  V  V4  1  0.958933  0.375246  0.795723  1
  V  V5  1  0.042038  0.877962  0.704105  1
  V  V6  1  0.458261  0.124423  0.204550  1
  V  V7  1  0.539752  0.624742  0.294842  1
  V  V8  1  0.375246  0.795723  0.958933  1
  V  V9  1  0.877962  0.704105  0.042038  1
  V  V10  1  0.124423  0.204550  0.458261  1
  V  V11  1  0.624742  0.294842  0.539752  1
  Ga  Ga12  1  0.567087  0.421095  0.938615  1
  Ga  Ga13  1  0.421095  0.938615  0.567087  1
  Ga  Ga14  1  0.938615  0.567087  0.421095  1
  Ga  Ga15  1  0.070826  0.070826  0.070826  1
  Co  Co16  1  0.177437  0.823506  0.321109  1
  Co  Co17  1  0.321109  0.177437  0.823506  1
  Co  Co18  1  0.823506  0.321109  0.177437  1
  Ir  Ir19  1  0.678209  0.678209  0.678209  1
  N  N20  1  0.874052  0.127491  0.625944  1
  N  N21  1  0.625944  0.874052  0.127491  1
  N  N22  1  0.127491  0.625944  0.874052  1
  N  N23  1  0.374051  0.374051  0.374051  1
