# generated using pymatgen
data_Hf4Tc(NiP)4
_symmetry_space_group_name_H-M   'P 1'
_cell_length_a   7.29234184
_cell_length_b   7.29234161
_cell_length_c   7.29234097
_cell_angle_alpha   93.62911019
_cell_angle_beta   93.62912131
_cell_angle_gamma   150.85672647
_symmetry_Int_Tables_number   1
_chemical_formula_structural   Hf4Tc(NiP)4
_chemical_formula_sum   'Hf4 Tc1 Ni4 P4'
_cell_volume   182.77906215
_cell_formula_units_Z   1
loop_
 _symmetry_equiv_pos_site_id
 _symmetry_equiv_pos_as_xyz
  1  'x, y, z'
loop_
 _atom_site_type_symbol
 _atom_site_label
 _atom_site_symmetry_multiplicity
 _atom_site_fract_x
 _atom_site_fract_y
 _atom_site_fract_z
 _atom_site_occupancy
  Hf  Hf0  1  0.803149  0.127490  0.930639  1
  Hf  Hf1  1  0.127490  0.196851  0.324341  1
  Hf  Hf2  1  0.872510  0.803149  0.675659  1
  Hf  Hf3  1  0.196851  0.872510  0.069361  1
  Tc  Tc4  1  0.500000  0.500000  0.000000  1
  Ni  Ni5  1  0.914511  0.389890  0.304401  1
  Ni  Ni6  1  0.085489  0.610110  0.695599  1
  Ni  Ni7  1  0.610110  0.914511  0.524619  1
  Ni  Ni8  1  0.389890  0.085489  0.475381  1
  P  P9  1  0.556475  0.243525  0.800001  1
  P  P10  1  0.243525  0.443525  0.687049  1
  P  P11  1  0.756475  0.556475  0.312951  1
  P  P12  1  0.443525  0.756475  0.199999  1
