# generated using pymatgen
data_BaP2PtO8
_symmetry_space_group_name_H-M   'P 1'
_cell_length_a   4.86846977
_cell_length_b   4.86846990
_cell_length_c   7.95523869
_cell_angle_alpha   86.32961210
_cell_angle_beta   86.32961037
_cell_angle_gamma   65.22497792
_symmetry_Int_Tables_number   1
_chemical_formula_structural   BaP2PtO8
_chemical_formula_sum   'Ba1 P2 Pt1 O8'
_cell_volume   170.70536657
_cell_formula_units_Z   1
loop_
 _symmetry_equiv_pos_site_id
 _symmetry_equiv_pos_as_xyz
  1  'x, y, z'
loop_
 _atom_site_type_symbol
 _atom_site_label
 _atom_site_symmetry_multiplicity
 _atom_site_fract_x
 _atom_site_fract_y
 _atom_site_fract_z
 _atom_site_occupancy
  Ba  Ba0  1  0.000000  0.000000  0.000000  1
  P  P1  1  0.367814  0.367814  0.301109  1
  P  P2  1  0.632186  0.632186  0.698891  1
  Pt  Pt3  1  0.000000  0.000000  0.500000  1
  O  O4  1  0.724422  0.237686  0.310905  1
  O  O5  1  0.237686  0.724422  0.310905  1
  O  O6  1  0.275578  0.762314  0.689095  1
  O  O7  1  0.762314  0.275578  0.689095  1
  O  O8  1  0.243621  0.243621  0.455427  1
  O  O9  1  0.756379  0.756379  0.544573  1
  O  O10  1  0.310421  0.310421  0.122927  1
  O  O11  1  0.689579  0.689579  0.877073  1
