# generated using pymatgen
data_Ba3CuSb2H
_symmetry_space_group_name_H-M   'P 1'
_cell_length_a   4.79920500
_cell_length_b   13.44271500
_cell_length_c   14.02248800
_cell_angle_alpha   90.00000000
_cell_angle_beta   90.00000000
_cell_angle_gamma   90.00000000
_symmetry_Int_Tables_number   1
_chemical_formula_structural   Ba3CuSb2H
_chemical_formula_sum   'Ba12 Cu4 Sb8 H4'
_cell_volume   904.65162917
_cell_formula_units_Z   4
loop_
 _symmetry_equiv_pos_site_id
 _symmetry_equiv_pos_as_xyz
  1  'x, y, z'
loop_
 _atom_site_type_symbol
 _atom_site_label
 _atom_site_symmetry_multiplicity
 _atom_site_fract_x
 _atom_site_fract_y
 _atom_site_fract_z
 _atom_site_occupancy
  Ba  Ba0  1  0.250000  0.071376  0.627733  1
  Ba  Ba1  1  0.250000  0.571376  0.872267  1
  Ba  Ba2  1  0.750000  0.928624  0.372267  1
  Ba  Ba3  1  0.750000  0.428624  0.127733  1
  Ba  Ba4  1  0.250000  0.206916  0.297192  1
  Ba  Ba5  1  0.250000  0.706916  0.202808  1
  Ba  Ba6  1  0.750000  0.793084  0.702808  1
  Ba  Ba7  1  0.750000  0.293084  0.797192  1
  Ba  Ba8  1  0.250000  0.374629  0.559149  1
  Ba  Ba9  1  0.250000  0.874629  0.940851  1
  Ba  Ba10  1  0.750000  0.625371  0.440851  1
  Ba  Ba11  1  0.750000  0.125371  0.059149  1
  Cu  Cu12  1  0.250000  0.130543  0.868477  1
  Cu  Cu13  1  0.250000  0.630543  0.631523  1
  Cu  Cu14  1  0.750000  0.869457  0.131523  1
  Cu  Cu15  1  0.750000  0.369457  0.368477  1
  Sb  Sb16  1  0.250000  0.303441  0.983247  1
  Sb  Sb17  1  0.250000  0.803441  0.516753  1
  Sb  Sb18  1  0.750000  0.696559  0.016753  1
  Sb  Sb19  1  0.750000  0.196559  0.483247  1
  Sb  Sb20  1  0.250000  0.464309  0.322319  1
  Sb  Sb21  1  0.250000  0.964309  0.177681  1
  Sb  Sb22  1  0.750000  0.535691  0.677681  1
  Sb  Sb23  1  0.750000  0.035691  0.822319  1
  H  H24  1  0.250000  0.248118  0.719184  1
  H  H25  1  0.250000  0.748118  0.780816  1
  H  H26  1  0.750000  0.751882  0.280816  1
  H  H27  1  0.750000  0.251882  0.219184  1
