# generated using pymatgen
data_ErTm(LuBi)3
_symmetry_space_group_name_H-M   'P 1'
_cell_length_a   8.15967000
_cell_length_b   9.40288100
_cell_length_c   11.84027600
_cell_angle_alpha   90.00000000
_cell_angle_beta   90.00000000
_cell_angle_gamma   90.00000000
_symmetry_Int_Tables_number   1
_chemical_formula_structural   ErTm(LuBi)3
_chemical_formula_sum   'Er4 Tm4 Lu12 Bi12'
_cell_volume   908.43814309
_cell_formula_units_Z   4
loop_
 _symmetry_equiv_pos_site_id
 _symmetry_equiv_pos_as_xyz
  1  'x, y, z'
loop_
 _atom_site_type_symbol
 _atom_site_label
 _atom_site_symmetry_multiplicity
 _atom_site_fract_x
 _atom_site_fract_y
 _atom_site_fract_z
 _atom_site_occupancy
  Er  Er0  1  0.313016  0.250000  0.217208  1
  Er  Er1  1  0.813016  0.250000  0.282792  1
  Er  Er2  1  0.686984  0.750000  0.782792  1
  Er  Er3  1  0.186984  0.750000  0.717208  1
  Tm  Tm4  1  0.352391  0.750000  0.217750  1
  Tm  Tm5  1  0.852391  0.750000  0.282250  1
  Tm  Tm6  1  0.647609  0.250000  0.782250  1
  Tm  Tm7  1  0.147609  0.250000  0.717750  1
  Lu  Lu8  1  0.691987  0.566980  0.059082  1
  Lu  Lu9  1  0.191987  0.933020  0.440918  1
  Lu  Lu10  1  0.308013  0.066980  0.940918  1
  Lu  Lu11  1  0.808013  0.433020  0.559082  1
  Lu  Lu12  1  0.308013  0.433020  0.940918  1
  Lu  Lu13  1  0.808013  0.066980  0.559082  1
  Lu  Lu14  1  0.691987  0.933020  0.059082  1
  Lu  Lu15  1  0.191987  0.566980  0.440918  1
  Lu  Lu16  1  0.477774  0.250000  0.489230  1
  Lu  Lu17  1  0.977774  0.250000  0.010770  1
  Lu  Lu18  1  0.522226  0.750000  0.510770  1
  Lu  Lu19  1  0.022226  0.750000  0.989230  1
  Bi  Bi20  1  0.402682  0.750000  0.957826  1
  Bi  Bi21  1  0.902682  0.750000  0.542174  1
  Bi  Bi22  1  0.597318  0.250000  0.042174  1
  Bi  Bi23  1  0.097318  0.250000  0.457826  1
  Bi  Bi24  1  0.565438  0.995433  0.325402  1
  Bi  Bi25  1  0.065438  0.504567  0.174598  1
  Bi  Bi26  1  0.434562  0.495433  0.674598  1
  Bi  Bi27  1  0.934562  0.004567  0.825402  1
  Bi  Bi28  1  0.434562  0.004567  0.674598  1
  Bi  Bi29  1  0.934562  0.495433  0.825402  1
  Bi  Bi30  1  0.565438  0.504567  0.325402  1
  Bi  Bi31  1  0.065438  0.995433  0.174598  1
