# generated using pymatgen
data_Ta2Nb3Si(B2Ru5)2
_symmetry_space_group_name_H-M   'P 1'
_cell_length_a   2.99597300
_cell_length_b   9.37947895
_cell_length_c   9.38422495
_cell_angle_alpha   90.09083071
_cell_angle_beta   90.00000000
_cell_angle_gamma   90.00000000
_symmetry_Int_Tables_number   1
_chemical_formula_structural   Ta2Nb3Si(B2Ru5)2
_chemical_formula_sum   'Ta2 Nb3 Si1 B4 Ru10'
_cell_volume   263.70263655
_cell_formula_units_Z   1
loop_
 _symmetry_equiv_pos_site_id
 _symmetry_equiv_pos_as_xyz
  1  'x, y, z'
loop_
 _atom_site_type_symbol
 _atom_site_label
 _atom_site_symmetry_multiplicity
 _atom_site_fract_x
 _atom_site_fract_y
 _atom_site_fract_z
 _atom_site_occupancy
  Ta  Ta0  1  0.000000  0.178841  0.674995  1
  Ta  Ta1  1  0.000000  0.999935  0.000025  1
  Nb  Nb2  1  0.000000  0.674977  0.821022  1
  Nb  Nb3  1  0.000000  0.324915  0.178862  1
  Nb  Nb4  1  0.000000  0.821472  0.325355  1
  Si  Si5  1  0.000000  0.500161  0.499877  1
  B  B6  1  0.000000  0.870351  0.616287  1
  B  B7  1  0.000000  0.129665  0.383782  1
  B  B8  1  0.000000  0.616177  0.129673  1
  B  B9  1  0.000000  0.383885  0.870315  1
  Ru  Ru10  1  0.500000  0.710077  0.566535  1
  Ru  Ru11  1  0.500000  0.289851  0.434206  1
  Ru  Ru12  1  0.500000  0.779621  0.073087  1
  Ru  Ru13  1  0.500000  0.219916  0.925759  1
  Ru  Ru14  1  0.500000  0.566497  0.290149  1
  Ru  Ru15  1  0.500000  0.432603  0.709637  1
  Ru  Ru16  1  0.500000  0.072863  0.220410  1
  Ru  Ru17  1  0.500000  0.927826  0.779637  1
  Ru  Ru18  1  0.500000  0.000534  0.500490  1
  Ru  Ru19  1  0.500000  0.499832  0.999894  1
