# generated using pymatgen
data_YbSm4Y3(B6Os)4
_symmetry_space_group_name_H-M   'P 1'
_cell_length_a   3.68790200
_cell_length_b   9.20621895
_cell_length_c   11.60766300
_cell_angle_alpha   90.02512099
_cell_angle_beta   90.00000000
_cell_angle_gamma   90.00000000
_symmetry_Int_Tables_number   1
_chemical_formula_structural   YbSm4Y3(B6Os)4
_chemical_formula_sum   'Yb1 Sm4 Y3 B24 Os4'
_cell_volume   394.09907944
_cell_formula_units_Z   1
loop_
 _symmetry_equiv_pos_site_id
 _symmetry_equiv_pos_as_xyz
  1  'x, y, z'
loop_
 _atom_site_type_symbol
 _atom_site_label
 _atom_site_symmetry_multiplicity
 _atom_site_fract_x
 _atom_site_fract_y
 _atom_site_fract_z
 _atom_site_occupancy
  Yb  Yb0  1  0.000000  0.556582  0.871539  1
  Sm  Sm1  1  0.000000  0.323188  0.414833  1
  Sm  Sm2  1  0.000000  0.676238  0.588281  1
  Sm  Sm3  1  0.000000  0.822097  0.084162  1
  Sm  Sm4  1  0.000000  0.178002  0.912787  1
  Y  Y5  1  0.000000  0.943563  0.372492  1
  Y  Y6  1  0.000000  0.056145  0.627946  1
  Y  Y7  1  0.000000  0.444408  0.126035  1
  B  B8  1  0.500000  0.554603  0.431584  1
  B  B9  1  0.500000  0.445306  0.569459  1
  B  B10  1  0.500000  0.055156  0.068278  1
  B  B11  1  0.500000  0.944784  0.931116  1
  B  B12  1  0.500000  0.748024  0.418724  1
  B  B13  1  0.500000  0.251986  0.581798  1
  B  B14  1  0.500000  0.248796  0.080868  1
  B  B15  1  0.500000  0.750692  0.917970  1
  B  B16  1  0.500000  0.789941  0.266852  1
  B  B17  1  0.500000  0.210704  0.732977  1
  B  B18  1  0.500000  0.290674  0.232507  1
  B  B19  1  0.500000  0.708794  0.768035  1
  B  B20  1  0.500000  0.631372  0.185181  1
  B  B21  1  0.500000  0.370202  0.814258  1
  B  B22  1  0.500000  0.131526  0.313895  1
  B  B23  1  0.500000  0.868204  0.686914  1
  B  B24  1  0.500000  0.984693  0.213107  1
  B  B25  1  0.500000  0.015222  0.787054  1
  B  B26  1  0.500000  0.484683  0.286307  1
  B  B27  1  0.500000  0.515438  0.714444  1
  B  B28  1  0.500000  0.604658  0.028684  1
  B  B29  1  0.500000  0.395660  0.970670  1
  B  B30  1  0.500000  0.106561  0.470576  1
  B  B31  1  0.500000  0.893070  0.529646  1
  Os  Os32  1  0.000000  0.637909  0.321086  1
  Os  Os33  1  0.000000  0.361528  0.679687  1
  Os  Os34  1  0.000000  0.138503  0.179800  1
  Os  Os35  1  0.000000  0.861095  0.820448  1
