# generated using pymatgen
data_Hf3Zr6Ta3ReO3
_symmetry_space_group_name_H-M   'P 1'
_cell_length_a   8.71765473
_cell_length_b   8.72779210
_cell_length_c   8.54219517
_cell_angle_alpha   89.90669726
_cell_angle_beta   89.97298002
_cell_angle_gamma   119.15129375
_symmetry_Int_Tables_number   1
_chemical_formula_structural   Hf3Zr6Ta3ReO3
_chemical_formula_sum   'Hf6 Zr12 Ta6 Re2 O6'
_cell_volume   567.61533307
_cell_formula_units_Z   2
loop_
 _symmetry_equiv_pos_site_id
 _symmetry_equiv_pos_as_xyz
  1  'x, y, z'
loop_
 _atom_site_type_symbol
 _atom_site_label
 _atom_site_symmetry_multiplicity
 _atom_site_fract_x
 _atom_site_fract_y
 _atom_site_fract_z
 _atom_site_occupancy
  Hf  Hf0  1  0.451939  0.907700  0.249973  1
  Hf  Hf1  1  0.548548  0.091521  0.749876  1
  Hf  Hf2  1  0.093229  0.547798  0.250158  1
  Hf  Hf3  1  0.909030  0.451785  0.750042  1
  Hf  Hf4  1  0.451616  0.547274  0.250134  1
  Hf  Hf5  1  0.204627  0.409151  0.560402  1
  Zr  Zr6  1  0.548005  0.451560  0.750018  1
  Zr  Zr7  1  0.794149  0.587882  0.436968  1
  Zr  Zr8  1  0.586761  0.793180  0.561950  1
  Zr  Zr9  1  0.794027  0.587918  0.063347  1
  Zr  Zr10  1  0.411692  0.205912  0.436833  1
  Zr  Zr11  1  0.206787  0.412881  0.936953  1
  Zr  Zr12  1  0.205954  0.794118  0.562110  1
  Zr  Zr13  1  0.411572  0.205901  0.062944  1
  Zr  Zr14  1  0.794176  0.205896  0.437991  1
  Zr  Zr15  1  0.588119  0.794112  0.938314  1
  Zr  Zr16  1  0.794363  0.206015  0.061784  1
  Zr  Zr17  1  0.205569  0.794545  0.938464  1
  Ta  Ta18  1  0.113255  0.222905  0.250082  1
  Ta  Ta19  1  0.887189  0.778507  0.749817  1
  Ta  Ta20  1  0.777396  0.886687  0.250195  1
  Ta  Ta21  1  0.222357  0.113935  0.749811  1
  Ta  Ta22  1  0.999975  0.000203  0.000046  1
  Ta  Ta23  1  0.000203  0.000801  0.499878  1
  Re  Re24  1  0.111837  0.887921  0.250052  1
  Re  Re25  1  0.888825  0.113614  0.749387  1
  O  O26  1  0.499887  0.999997  0.999865  1
  O  O27  1  0.000189  0.500415  0.000242  1
  O  O28  1  0.499788  0.999921  0.499865  1
  O  O29  1  0.499951  0.500731  0.003440  1
  O  O30  1  0.003455  0.499500  0.501232  1
  O  O31  1  0.495529  0.499716  0.497826  1
