# generated using pymatgen
data_TmLu7(ZrGa5)4
_symmetry_space_group_name_H-M   'P 1'
_cell_length_a   5.85636510
_cell_length_b   9.37266500
_cell_length_c   11.34200519
_cell_angle_alpha   89.99759325
_cell_angle_beta   89.97901474
_cell_angle_gamma   89.99799321
_symmetry_Int_Tables_number   1
_chemical_formula_structural   TmLu7(ZrGa5)4
_chemical_formula_sum   'Tm1 Lu7 Zr4 Ga20'
_cell_volume   622.55976656
_cell_formula_units_Z   1
loop_
 _symmetry_equiv_pos_site_id
 _symmetry_equiv_pos_as_xyz
  1  'x, y, z'
loop_
 _atom_site_type_symbol
 _atom_site_label
 _atom_site_symmetry_multiplicity
 _atom_site_fract_x
 _atom_site_fract_y
 _atom_site_fract_z
 _atom_site_occupancy
  Tm  Tm0  1  0.885897  0.500815  0.352637  1
  Lu  Lu1  1  0.613986  0.999154  0.852661  1
  Lu  Lu2  1  0.114011  0.000809  0.647362  1
  Lu  Lu3  1  0.385979  0.499161  0.147231  1
  Lu  Lu4  1  0.114054  0.499171  0.647477  1
  Lu  Lu5  1  0.386041  0.000833  0.147344  1
  Lu  Lu6  1  0.885985  0.999211  0.352660  1
  Lu  Lu7  1  0.613946  0.500829  0.852656  1
  Zr  Zr8  1  0.858088  0.750024  0.072757  1
  Zr  Zr9  1  0.641848  0.750089  0.572883  1
  Zr  Zr10  1  0.141901  0.249981  0.927153  1
  Zr  Zr11  1  0.358326  0.249955  0.427244  1
  Ga  Ga12  1  0.874862  0.053188  0.090326  1
  Ga  Ga13  1  0.625058  0.446783  0.590395  1
  Ga  Ga14  1  0.125086  0.553192  0.909695  1
  Ga  Ga15  1  0.374907  0.946842  0.409664  1
  Ga  Ga16  1  0.125114  0.946809  0.909673  1
  Ga  Ga17  1  0.375050  0.553273  0.409765  1
  Ga  Ga18  1  0.874889  0.446771  0.090141  1
  Ga  Ga19  1  0.625130  0.053181  0.590309  1
  Ga  Ga20  1  0.152873  0.750177  0.258081  1
  Ga  Ga21  1  0.347256  0.750008  0.758134  1
  Ga  Ga22  1  0.847264  0.250002  0.741885  1
  Ga  Ga23  1  0.652568  0.249802  0.241733  1
  Ga  Ga24  1  0.395457  0.749984  0.999728  1
  Ga  Ga25  1  0.104631  0.750057  0.499764  1
  Ga  Ga26  1  0.604519  0.249968  0.000254  1
  Ga  Ga27  1  0.895516  0.249707  0.500500  1
  Ga  Ga28  1  0.614564  0.750265  0.294443  1
  Ga  Ga29  1  0.885150  0.750001  0.794492  1
  Ga  Ga30  1  0.385142  0.250017  0.705488  1
  Ga  Ga31  1  0.114899  0.249942  0.205466  1
