# generated using pymatgen
data_LiTm16Co4Hg3
_symmetry_space_group_name_H-M   'P 1'
_cell_length_a   9.31835973
_cell_length_b   9.31836088
_cell_length_c   9.31836102
_cell_angle_alpha   59.90303094
_cell_angle_beta   59.90302928
_cell_angle_gamma   59.90303717
_symmetry_Int_Tables_number   1
_chemical_formula_structural   LiTm16Co4Hg3
_chemical_formula_sum   'Li1 Tm16 Co4 Hg3'
_cell_volume   570.88299180
_cell_formula_units_Z   1
loop_
 _symmetry_equiv_pos_site_id
 _symmetry_equiv_pos_as_xyz
  1  'x, y, z'
loop_
 _atom_site_type_symbol
 _atom_site_label
 _atom_site_symmetry_multiplicity
 _atom_site_fract_x
 _atom_site_fract_y
 _atom_site_fract_z
 _atom_site_occupancy
  Li  Li0  1  0.568550  0.568550  0.568550  1
  Tm  Tm1  1  0.349646  0.349646  0.349646  1
  Tm  Tm2  1  0.345491  0.345491  0.961443  1
  Tm  Tm3  1  0.345491  0.961443  0.345491  1
  Tm  Tm4  1  0.961443  0.345491  0.345491  1
  Tm  Tm5  1  0.811112  0.189640  0.189640  1
  Tm  Tm6  1  0.186677  0.813473  0.813473  1
  Tm  Tm7  1  0.189640  0.811112  0.189640  1
  Tm  Tm8  1  0.813473  0.186677  0.813473  1
  Tm  Tm9  1  0.189640  0.189640  0.811112  1
  Tm  Tm10  1  0.813473  0.813473  0.186677  1
  Tm  Tm11  1  0.939068  0.561320  0.561320  1
  Tm  Tm12  1  0.562635  0.937516  0.937516  1
  Tm  Tm13  1  0.561320  0.939068  0.561320  1
  Tm  Tm14  1  0.937516  0.562635  0.937516  1
  Tm  Tm15  1  0.561320  0.561320  0.939068  1
  Tm  Tm16  1  0.937516  0.937516  0.562635  1
  Co  Co17  1  0.141154  0.141154  0.141154  1
  Co  Co18  1  0.143028  0.143028  0.576467  1
  Co  Co19  1  0.143028  0.576467  0.143028  1
  Co  Co20  1  0.576467  0.143028  0.143028  1
  Hg  Hg21  1  0.586684  0.586684  0.248949  1
  Hg  Hg22  1  0.586684  0.248949  0.586684  1
  Hg  Hg23  1  0.248949  0.586684  0.586684  1
