# generated using pymatgen
data_Pr10Ga2Br15
_symmetry_space_group_name_H-M   'P 1'
_cell_length_a   9.66287313
_cell_length_b   10.36538579
_cell_length_c   11.40457823
_cell_angle_alpha   90.34912633
_cell_angle_beta   115.00886979
_cell_angle_gamma   111.02619907
_symmetry_Int_Tables_number   1
_chemical_formula_structural   Pr10Ga2Br15
_chemical_formula_sum   'Pr10 Ga2 Br15'
_cell_volume   949.29636859
_cell_formula_units_Z   1
loop_
 _symmetry_equiv_pos_site_id
 _symmetry_equiv_pos_as_xyz
  1  'x, y, z'
loop_
 _atom_site_type_symbol
 _atom_site_label
 _atom_site_symmetry_multiplicity
 _atom_site_fract_x
 _atom_site_fract_y
 _atom_site_fract_z
 _atom_site_occupancy
  Pr  Pr0  1  0.813847  0.427539  0.283167  1
  Pr  Pr1  1  0.186153  0.572461  0.716833  1
  Pr  Pr2  1  0.684738  0.737829  0.818710  1
  Pr  Pr3  1  0.315262  0.262171  0.181290  1
  Pr  Pr4  1  0.529398  0.687196  0.108261  1
  Pr  Pr5  1  0.470602  0.312804  0.891739  1
  Pr  Pr6  1  0.592154  0.034065  0.341282  1
  Pr  Pr7  1  0.407846  0.965935  0.658718  1
  Pr  Pr8  1  0.751261  0.085696  0.054453  1
  Pr  Pr9  1  0.248739  0.914304  0.945547  1
  Ga  Ga10  1  0.468619  0.823505  0.881171  1
  Ga  Ga11  1  0.531381  0.176495  0.118829  1
  Br  Br12  1  0.000000  0.000000  0.000000  1
  Br  Br13  1  0.637507  0.883337  0.587272  1
  Br  Br14  1  0.362493  0.116663  0.412728  1
  Br  Br15  1  0.885689  0.297627  0.524360  1
  Br  Br16  1  0.114311  0.702373  0.475640  1
  Br  Br17  1  0.298283  0.762801  0.183367  1
  Br  Br18  1  0.701717  0.237199  0.816633  1
  Br  Br19  1  0.061682  0.352167  0.231348  1
  Br  Br20  1  0.169454  0.059959  0.703560  1
  Br  Br21  1  0.830546  0.940041  0.296440  1
  Br  Br22  1  0.228412  0.407836  0.943717  1
  Br  Br23  1  0.771588  0.592164  0.056283  1
  Br  Br24  1  0.404636  0.466124  0.648898  1
  Br  Br25  1  0.595364  0.533876  0.351102  1
  Br  Br26  1  0.938318  0.647833  0.768652  1
