# generated using pymatgen
data_Y3(Al3Co)4
_symmetry_space_group_name_H-M   'P 1'
_cell_length_a   8.66976100
_cell_length_b   8.66976052
_cell_length_c   9.32982700
_cell_angle_alpha   90.00000000
_cell_angle_beta   90.00000000
_cell_angle_gamma   119.99999803
_symmetry_Int_Tables_number   1
_chemical_formula_structural   Y3(Al3Co)4
_chemical_formula_sum   'Y6 Al24 Co8'
_cell_volume   607.32122268
_cell_formula_units_Z   2
loop_
 _symmetry_equiv_pos_site_id
 _symmetry_equiv_pos_as_xyz
  1  'x, y, z'
loop_
 _atom_site_type_symbol
 _atom_site_label
 _atom_site_symmetry_multiplicity
 _atom_site_fract_x
 _atom_site_fract_y
 _atom_site_fract_z
 _atom_site_occupancy
  Y  Y0  1  0.193821  0.387642  0.250000  1
  Y  Y1  1  0.806179  0.612358  0.750000  1
  Y  Y2  1  0.612358  0.806179  0.250000  1
  Y  Y3  1  0.387642  0.193821  0.750000  1
  Y  Y4  1  0.193821  0.806179  0.250000  1
  Y  Y5  1  0.806179  0.193821  0.750000  1
  Al  Al6  1  0.333333  0.666667  0.020283  1
  Al  Al7  1  0.666667  0.333333  0.979717  1
  Al  Al8  1  0.666667  0.333333  0.520283  1
  Al  Al9  1  0.333333  0.666667  0.479717  1
  Al  Al10  1  0.163192  0.326384  0.574513  1
  Al  Al11  1  0.836808  0.673616  0.425487  1
  Al  Al12  1  0.673616  0.836808  0.574513  1
  Al  Al13  1  0.836808  0.673616  0.074513  1
  Al  Al14  1  0.326384  0.163192  0.425487  1
  Al  Al15  1  0.163192  0.326384  0.925487  1
  Al  Al16  1  0.163192  0.836808  0.574513  1
  Al  Al17  1  0.326384  0.163192  0.074513  1
  Al  Al18  1  0.836808  0.163192  0.425487  1
  Al  Al19  1  0.673616  0.836808  0.925487  1
  Al  Al20  1  0.836808  0.163192  0.074513  1
  Al  Al21  1  0.163192  0.836808  0.925487  1
  Al  Al22  1  0.559962  0.119924  0.250000  1
  Al  Al23  1  0.440038  0.880076  0.750000  1
  Al  Al24  1  0.880076  0.440038  0.250000  1
  Al  Al25  1  0.119924  0.559962  0.750000  1
  Al  Al26  1  0.559962  0.440038  0.250000  1
  Al  Al27  1  0.440038  0.559962  0.750000  1
  Al  Al28  1  0.000000  0.000000  0.250000  1
  Al  Al29  1  0.000000  0.000000  0.750000  1
  Co  Co30  1  0.500000  0.000000  0.000000  1
  Co  Co31  1  0.000000  0.500000  0.000000  1
  Co  Co32  1  0.500000  0.000000  0.500000  1
  Co  Co33  1  0.500000  0.500000  0.000000  1
  Co  Co34  1  0.000000  0.500000  0.500000  1
  Co  Co35  1  0.500000  0.500000  0.500000  1
  Co  Co36  1  0.000000  0.000000  0.000000  1
  Co  Co37  1  0.000000  0.000000  0.500000  1
