# generated using pymatgen
data_Tb4Al18ZnIr4Ru
_symmetry_space_group_name_H-M   'P 1'
_cell_length_a   7.59843688
_cell_length_b   7.59843722
_cell_length_c   9.50016039
_cell_angle_alpha   90.03602646
_cell_angle_beta   90.03603373
_cell_angle_gamma   119.51274641
_symmetry_Int_Tables_number   1
_chemical_formula_structural   Tb4Al18ZnIr4Ru
_chemical_formula_sum   'Tb4 Al18 Zn1 Ir4 Ru1'
_cell_volume   477.33275578
_cell_formula_units_Z   1
loop_
 _symmetry_equiv_pos_site_id
 _symmetry_equiv_pos_as_xyz
  1  'x, y, z'
loop_
 _atom_site_type_symbol
 _atom_site_label
 _atom_site_symmetry_multiplicity
 _atom_site_fract_x
 _atom_site_fract_y
 _atom_site_fract_z
 _atom_site_occupancy
  Tb  Tb0  1  0.995862  0.674637  0.249454  1
  Tb  Tb1  1  0.004579  0.325563  0.750364  1
  Tb  Tb2  1  0.674437  0.995421  0.249636  1
  Tb  Tb3  1  0.325363  0.004138  0.750546  1
  Al  Al4  1  0.135212  0.135581  0.256179  1
  Al  Al5  1  0.864419  0.864788  0.743821  1
  Al  Al6  1  0.999885  0.344630  0.078176  1
  Al  Al7  1  0.995498  0.652934  0.921895  1
  Al  Al8  1  0.000157  0.664924  0.572612  1
  Al  Al9  1  0.335076  0.999843  0.427388  1
  Al  Al10  1  0.999614  0.335683  0.427388  1
  Al  Al11  1  0.664317  0.000386  0.572612  1
  Al  Al12  1  0.655370  0.000115  0.921824  1
  Al  Al13  1  0.347066  0.004502  0.078105  1
  Al  Al14  1  0.333334  0.333484  0.551015  1
  Al  Al15  1  0.666516  0.666666  0.448985  1
  Al  Al16  1  0.657500  0.654728  0.057432  1
  Al  Al17  1  0.345272  0.342500  0.942568  1
  Al  Al18  1  0.337965  0.549556  0.250963  1
  Al  Al19  1  0.661468  0.448514  0.750683  1
  Al  Al20  1  0.551486  0.338532  0.249317  1
  Al  Al21  1  0.450444  0.662035  0.749037  1
  Zn  Zn22  1  0.999961  0.000039  0.000000  1
  Ir  Ir23  1  0.328279  0.671721  0.000000  1
  Ir  Ir24  1  0.328238  0.671762  0.500000  1
  Ir  Ir25  1  0.671302  0.328698  0.500000  1
  Ir  Ir26  1  0.999719  0.000281  0.500000  1
  Ru  Ru27  1  0.671662  0.328338  0.000000  1
