# generated using pymatgen
data_Er(NbSe2)3
_symmetry_space_group_name_H-M   'P 1'
_cell_length_a   6.10737500
_cell_length_b   6.10737447
_cell_length_c   14.33071400
_cell_angle_alpha   90.00000000
_cell_angle_beta   90.00000000
_cell_angle_gamma   120.00000829
_symmetry_Int_Tables_number   1
_chemical_formula_structural   Er(NbSe2)3
_chemical_formula_sum   'Er2 Nb6 Se12'
_cell_volume   462.92172266
_cell_formula_units_Z   2
loop_
 _symmetry_equiv_pos_site_id
 _symmetry_equiv_pos_as_xyz
  1  'x, y, z'
loop_
 _atom_site_type_symbol
 _atom_site_label
 _atom_site_symmetry_multiplicity
 _atom_site_fract_x
 _atom_site_fract_y
 _atom_site_fract_z
 _atom_site_occupancy
  Er  Er0  1  0.000000  0.000000  0.000000  1
  Er  Er1  1  0.000000  0.000000  0.500000  1
  Nb  Nb2  1  0.333333  0.666667  0.250000  1
  Nb  Nb3  1  0.000000  0.000000  0.250000  1
  Nb  Nb4  1  0.000000  0.000000  0.750000  1
  Nb  Nb5  1  0.333333  0.666667  0.750000  1
  Nb  Nb6  1  0.666667  0.333333  0.750000  1
  Nb  Nb7  1  0.666667  0.333333  0.250000  1
  Se  Se8  1  0.000000  0.661048  0.633147  1
  Se  Se9  1  0.000000  0.661048  0.866853  1
  Se  Se10  1  0.000000  0.338952  0.133147  1
  Se  Se11  1  0.000000  0.338952  0.366853  1
  Se  Se12  1  0.338952  0.338952  0.633147  1
  Se  Se13  1  0.338952  0.338952  0.866853  1
  Se  Se14  1  0.661048  0.661048  0.133147  1
  Se  Se15  1  0.661048  0.661048  0.366853  1
  Se  Se16  1  0.338952  0.000000  0.133147  1
  Se  Se17  1  0.338952  0.000000  0.366853  1
  Se  Se18  1  0.661048  0.000000  0.633147  1
  Se  Se19  1  0.661048  0.000000  0.866853  1
