# generated using pymatgen
data_Nd20Sn7GeIr4
_symmetry_space_group_name_H-M   'P 1'
_cell_length_a   8.20921266
_cell_length_b   9.19429297
_cell_length_c   12.69014448
_cell_angle_alpha   89.98394773
_cell_angle_beta   89.76882009
_cell_angle_gamma   89.88236560
_symmetry_Int_Tables_number   1
_chemical_formula_structural   Nd20Sn7GeIr4
_chemical_formula_sum   'Nd20 Sn7 Ge1 Ir4'
_cell_volume   957.81568369
_cell_formula_units_Z   1
loop_
 _symmetry_equiv_pos_site_id
 _symmetry_equiv_pos_as_xyz
  1  'x, y, z'
loop_
 _atom_site_type_symbol
 _atom_site_label
 _atom_site_symmetry_multiplicity
 _atom_site_fract_x
 _atom_site_fract_y
 _atom_site_fract_z
 _atom_site_occupancy
  Nd  Nd0  1  0.674236  0.462162  0.925369  1
  Nd  Nd1  1  0.175070  0.962454  0.573596  1
  Nd  Nd2  1  0.678262  0.034886  0.928170  1
  Nd  Nd3  1  0.825491  0.463652  0.420342  1
  Nd  Nd4  1  0.947300  0.741620  0.003521  1
  Nd  Nd5  1  0.444156  0.248984  0.500763  1
  Nd  Nd6  1  0.045760  0.257133  0.005762  1
  Nd  Nd7  1  0.552440  0.750978  0.497969  1
  Nd  Nd8  1  0.320385  0.537503  0.074351  1
  Nd  Nd9  1  0.822143  0.035179  0.424483  1
  Nd  Nd10  1  0.323097  0.966794  0.073952  1
  Nd  Nd11  1  0.176384  0.537013  0.573922  1
  Nd  Nd12  1  0.367779  0.751046  0.806189  1
  Nd  Nd13  1  0.868726  0.249477  0.694107  1
  Nd  Nd14  1  0.640328  0.256258  0.193809  1
  Nd  Nd15  1  0.129396  0.744490  0.302634  1
  Nd  Nd16  1  0.836088  0.750584  0.714673  1
  Nd  Nd17  1  0.334576  0.248784  0.788276  1
  Nd  Nd18  1  0.160592  0.255316  0.283321  1
  Nd  Nd19  1  0.668588  0.742730  0.212946  1
  Sn  Sn20  1  0.564085  0.494427  0.671086  1
  Sn  Sn21  1  0.936423  0.004570  0.171084  1
  Sn  Sn22  1  0.437387  0.995085  0.326518  1
  Sn  Sn23  1  0.064232  0.505586  0.828461  1
  Sn  Sn24  1  0.436082  0.506019  0.328732  1
  Sn  Sn25  1  0.063305  0.994801  0.831713  1
  Sn  Sn26  1  0.564910  0.006238  0.671591  1
  Ge  Ge27  1  0.944610  0.497500  0.172984  1
  Ir  Ir28  1  0.576337  0.748396  0.992712  1
  Ir  Ir29  1  0.075711  0.249926  0.505951  1
  Ir  Ir30  1  0.423433  0.251954  0.009960  1
  Ir  Ir31  1  0.922689  0.748457  0.491053  1
