# generated using pymatgen
data_SrYb3(YCd2)4
_symmetry_space_group_name_H-M   'P 1'
_cell_length_a   7.65460709
_cell_length_b   7.68139400
_cell_length_c   7.62991900
_cell_angle_alpha   90.00000000
_cell_angle_beta   89.99115257
_cell_angle_gamma   90.00000000
_symmetry_Int_Tables_number   1
_chemical_formula_structural   SrYb3(YCd2)4
_chemical_formula_sum   'Sr1 Yb3 Y4 Cd8'
_cell_volume   448.62437627
_cell_formula_units_Z   1
loop_
 _symmetry_equiv_pos_site_id
 _symmetry_equiv_pos_as_xyz
  1  'x, y, z'
loop_
 _atom_site_type_symbol
 _atom_site_label
 _atom_site_symmetry_multiplicity
 _atom_site_fract_x
 _atom_site_fract_y
 _atom_site_fract_z
 _atom_site_occupancy
  Sr  Sr0  1  0.250527  0.750000  0.000031  1
  Yb  Yb1  1  0.749293  0.250000  0.999981  1
  Yb  Yb2  1  0.249410  0.750000  0.500018  1
  Yb  Yb3  1  0.750674  0.250000  0.500007  1
  Y  Y4  1  0.250135  0.250000  0.999974  1
  Y  Y5  1  0.749993  0.750000  0.000002  1
  Y  Y6  1  0.750296  0.750000  0.499989  1
  Y  Y7  1  0.249637  0.250000  0.499995  1
  Cd  Cd8  1  0.993380  0.493355  0.254845  1
  Cd  Cd9  1  0.993380  0.006647  0.254845  1
  Cd  Cd10  1  0.506594  0.006560  0.256853  1
  Cd  Cd11  1  0.506594  0.493440  0.256853  1
  Cd  Cd12  1  0.506607  0.493429  0.743182  1
  Cd  Cd13  1  0.506607  0.006573  0.743182  1
  Cd  Cd14  1  0.993436  0.006609  0.745121  1
  Cd  Cd15  1  0.993436  0.493391  0.745121  1
