# generated using pymatgen
data_Dy16Ho4Ir11Rh
_symmetry_space_group_name_H-M   'P 1'
_cell_length_a   10.88910100
_cell_length_b   10.88910100
_cell_length_c   6.37302900
_cell_angle_alpha   90.00000000
_cell_angle_beta   90.00000000
_cell_angle_gamma   90.00000000
_symmetry_Int_Tables_number   1
_chemical_formula_structural   Dy16Ho4Ir11Rh
_chemical_formula_sum   'Dy16 Ho4 Ir11 Rh1'
_cell_volume   755.66611231
_cell_formula_units_Z   1
loop_
 _symmetry_equiv_pos_site_id
 _symmetry_equiv_pos_as_xyz
  1  'x, y, z'
loop_
 _atom_site_type_symbol
 _atom_site_label
 _atom_site_symmetry_multiplicity
 _atom_site_fract_x
 _atom_site_fract_y
 _atom_site_fract_z
 _atom_site_occupancy
  Dy  Dy0  1  0.290817  0.088032  0.378857  1
  Dy  Dy1  1  0.290684  0.911858  0.877599  1
  Dy  Dy2  1  0.709316  0.088142  0.877599  1
  Dy  Dy3  1  0.709183  0.911968  0.378857  1
  Dy  Dy4  1  0.588142  0.790684  0.877599  1
  Dy  Dy5  1  0.588032  0.209183  0.378857  1
  Dy  Dy6  1  0.411968  0.790817  0.378857  1
  Dy  Dy7  1  0.411858  0.209316  0.877599  1
  Dy  Dy8  1  0.208953  0.411976  0.621938  1
  Dy  Dy9  1  0.208985  0.588107  0.121933  1
  Dy  Dy10  1  0.791015  0.411893  0.121933  1
  Dy  Dy11  1  0.791047  0.588024  0.621938  1
  Dy  Dy12  1  0.911893  0.708985  0.121933  1
  Dy  Dy13  1  0.911976  0.291047  0.621938  1
  Dy  Dy14  1  0.088024  0.708953  0.621938  1
  Dy  Dy15  1  0.088107  0.291015  0.121933  1
  Ho  Ho16  1  0.000000  0.000000  0.500014  1
  Ho  Ho17  1  0.000000  0.000000  0.000062  1
  Ho  Ho18  1  0.500000  0.500000  0.000062  1
  Ho  Ho19  1  0.500000  0.500000  0.500014  1
  Ir  Ir20  1  0.846682  0.152869  0.249806  1
  Ir  Ir21  1  0.846767  0.847076  0.749873  1
  Ir  Ir22  1  0.153233  0.152924  0.749873  1
  Ir  Ir23  1  0.153318  0.847131  0.249806  1
  Ir  Ir24  1  0.652924  0.346767  0.749873  1
  Ir  Ir25  1  0.652869  0.653318  0.249806  1
  Ir  Ir26  1  0.347131  0.346682  0.249806  1
  Ir  Ir27  1  0.347076  0.653233  0.749873  1
  Ir  Ir28  1  0.500000  0.000000  0.622257  1
  Ir  Ir29  1  0.000000  0.500000  0.877793  1
  Ir  Ir30  1  0.000000  0.500000  0.377767  1
  Rh  Rh31  1  0.500000  0.000000  0.122009  1
