# generated using pymatgen
data_Nd4B20PtRh
_symmetry_space_group_name_H-M   'P 1'
_cell_length_a   4.22436300
_cell_length_b   5.75179132
_cell_length_c   11.48076646
_cell_angle_alpha   89.80551576
_cell_angle_beta   90.00000000
_cell_angle_gamma   90.00000000
_symmetry_Int_Tables_number   1
_chemical_formula_structural   Nd4B20PtRh
_chemical_formula_sum   'Nd4 B20 Pt1 Rh1'
_cell_volume   278.95408914
_cell_formula_units_Z   1
loop_
 _symmetry_equiv_pos_site_id
 _symmetry_equiv_pos_as_xyz
  1  'x, y, z'
loop_
 _atom_site_type_symbol
 _atom_site_label
 _atom_site_symmetry_multiplicity
 _atom_site_fract_x
 _atom_site_fract_y
 _atom_site_fract_z
 _atom_site_occupancy
  Nd  Nd0  1  0.500000  0.297551  0.866059  1
  Nd  Nd1  1  0.500000  0.702449  0.133941  1
  Nd  Nd2  1  0.500000  0.804176  0.639777  1
  Nd  Nd3  1  0.500000  0.195824  0.360223  1
  B  B4  1  0.000000  0.116206  0.544153  1
  B  B5  1  0.000000  0.883794  0.455847  1
  B  B6  1  0.000000  0.618538  0.956541  1
  B  B7  1  0.000000  0.381462  0.043459  1
  B  B8  1  0.000000  0.137392  0.697394  1
  B  B9  1  0.000000  0.862608  0.302606  1
  B  B10  1  0.300393  0.217971  0.118032  1
  B  B11  1  0.300393  0.782029  0.881968  1
  B  B12  1  0.698578  0.719405  0.379734  1
  B  B13  1  0.698578  0.280595  0.620266  1
  B  B14  1  0.699607  0.782029  0.881968  1
  B  B15  1  0.699607  0.217971  0.118032  1
  B  B16  1  0.301422  0.280595  0.620266  1
  B  B17  1  0.301422  0.719405  0.379734  1
  B  B18  1  0.000000  0.055856  0.192345  1
  B  B19  1  0.000000  0.944144  0.807655  1
  B  B20  1  0.000000  0.556609  0.305707  1
  B  B21  1  0.000000  0.443391  0.694293  1
  B  B22  1  0.000000  0.361586  0.197096  1
  B  B23  1  0.000000  0.638414  0.802904  1
  Pt  Pt24  1  0.000000  0.500000  0.500000  1
  Rh  Rh25  1  0.000000  0.000000  0.000000  1
