# generated using pymatgen
data_ErFeH5
_symmetry_space_group_name_H-M   'P 1'
_cell_length_a   4.19035000
_cell_length_b   4.52269800
_cell_length_c   11.11062300
_cell_angle_alpha   90.00000000
_cell_angle_beta   90.00000000
_cell_angle_gamma   90.00000000
_symmetry_Int_Tables_number   1
_chemical_formula_structural   ErFeH5
_chemical_formula_sum   'Er4 Fe4 H20'
_cell_volume   210.56505574
_cell_formula_units_Z   4
loop_
 _symmetry_equiv_pos_site_id
 _symmetry_equiv_pos_as_xyz
  1  'x, y, z'
loop_
 _atom_site_type_symbol
 _atom_site_label
 _atom_site_symmetry_multiplicity
 _atom_site_fract_x
 _atom_site_fract_y
 _atom_site_fract_z
 _atom_site_occupancy
  Er  Er0  1  0.275416  0.163522  0.649512  1
  Er  Er1  1  0.775416  0.336478  0.350488  1
  Er  Er2  1  0.224584  0.836478  0.149512  1
  Er  Er3  1  0.724584  0.663522  0.850488  1
  Fe  Fe4  1  0.319356  0.163670  0.912170  1
  Fe  Fe5  1  0.819356  0.336330  0.087830  1
  Fe  Fe6  1  0.180644  0.836330  0.412170  1
  Fe  Fe7  1  0.680644  0.663670  0.587830  1
  H  H8  1  0.534100  0.403378  0.516472  1
  H  H9  1  0.034100  0.096622  0.483528  1
  H  H10  1  0.965900  0.596622  0.016472  1
  H  H11  1  0.465900  0.903378  0.983528  1
  H  H12  1  0.167328  0.932295  0.823452  1
  H  H13  1  0.667328  0.567705  0.176548  1
  H  H14  1  0.332672  0.067705  0.323452  1
  H  H15  1  0.832672  0.432295  0.676548  1
  H  H16  1  0.207226  0.438179  0.830870  1
  H  H17  1  0.707226  0.061821  0.169130  1
  H  H18  1  0.292774  0.561821  0.330870  1
  H  H19  1  0.792774  0.938179  0.669130  1
  H  H20  1  0.615750  0.158253  0.827589  1
  H  H21  1  0.115750  0.341747  0.172411  1
  H  H22  1  0.884250  0.841747  0.327589  1
  H  H23  1  0.384250  0.658253  0.672411  1
  H  H24  1  0.990990  0.093746  0.995515  1
  H  H25  1  0.490990  0.406254  0.004485  1
  H  H26  1  0.509010  0.906254  0.495515  1
  H  H27  1  0.009010  0.593746  0.504485  1
