# generated using pymatgen
data_Tb11In9(CoNi)2
_symmetry_space_group_name_H-M   'P 1'
_cell_length_a   3.65511200
_cell_length_b   13.09249482
_cell_length_c   13.09249495
_cell_angle_alpha   112.23424215
_cell_angle_beta   90.00000000
_cell_angle_gamma   90.00000000
_symmetry_Int_Tables_number   1
_chemical_formula_structural   Tb11In9(CoNi)2
_chemical_formula_sum   'Tb11 In9 Co2 Ni2'
_cell_volume   579.94898161
_cell_formula_units_Z   1
loop_
 _symmetry_equiv_pos_site_id
 _symmetry_equiv_pos_as_xyz
  1  'x, y, z'
loop_
 _atom_site_type_symbol
 _atom_site_label
 _atom_site_symmetry_multiplicity
 _atom_site_fract_x
 _atom_site_fract_y
 _atom_site_fract_z
 _atom_site_occupancy
  Tb  Tb0  1  0.000000  0.000204  0.000204  1
  Tb  Tb1  1  0.000000  0.417288  0.083080  1
  Tb  Tb2  1  0.000000  0.839429  0.160436  1
  Tb  Tb3  1  0.000000  0.313888  0.313888  1
  Tb  Tb4  1  0.000000  0.621763  0.371898  1
  Tb  Tb5  1  0.000000  0.083080  0.417288  1
  Tb  Tb6  1  0.000000  0.919812  0.583207  1
  Tb  Tb7  1  0.000000  0.371898  0.621763  1
  Tb  Tb8  1  0.000000  0.686813  0.686813  1
  Tb  Tb9  1  0.000000  0.160436  0.839429  1
  Tb  Tb10  1  0.000000  0.583207  0.919812  1
  In  In11  1  0.500000  0.220200  0.078946  1
  In  In12  1  0.500000  0.631571  0.159720  1
  In  In13  1  0.500000  0.078946  0.220200  1
  In  In14  1  0.500000  0.841279  0.367977  1
  In  In15  1  0.500000  0.499756  0.499756  1
  In  In16  1  0.500000  0.159720  0.631571  1
  In  In17  1  0.500000  0.921935  0.780730  1
  In  In18  1  0.500000  0.367977  0.841279  1
  In  In19  1  0.500000  0.780730  0.921935  1
  Co  Co20  1  0.500000  0.448597  0.246543  1
  Co  Co21  1  0.500000  0.246543  0.448597  1
  Ni  Ni22  1  0.500000  0.753004  0.551924  1
  Ni  Ni23  1  0.500000  0.551924  0.753004  1
