# generated using pymatgen
data_Er8Re3Tc9Ge16
_symmetry_space_group_name_H-M   'P 1'
_cell_length_a   6.92358854
_cell_length_b   6.92358838
_cell_length_c   12.91648410
_cell_angle_alpha   89.99866461
_cell_angle_beta   90.00133560
_cell_angle_gamma   90.05451474
_symmetry_Int_Tables_number   1
_chemical_formula_structural   Er8Re3Tc9Ge16
_chemical_formula_sum   'Er8 Re3 Tc9 Ge16'
_cell_volume   619.16529739
_cell_formula_units_Z   1
loop_
 _symmetry_equiv_pos_site_id
 _symmetry_equiv_pos_as_xyz
  1  'x, y, z'
loop_
 _atom_site_type_symbol
 _atom_site_label
 _atom_site_symmetry_multiplicity
 _atom_site_fract_x
 _atom_site_fract_y
 _atom_site_fract_z
 _atom_site_occupancy
  Er  Er0  1  0.340370  0.989866  0.471557  1
  Er  Er1  1  0.511434  0.839109  0.721580  1
  Er  Er2  1  0.488569  0.159853  0.220948  1
  Er  Er3  1  0.839109  0.511434  0.278420  1
  Er  Er4  1  0.159853  0.488569  0.779052  1
  Er  Er5  1  0.658823  0.009763  0.971547  1
  Er  Er6  1  0.989866  0.340370  0.528443  1
  Er  Er7  1  0.009763  0.658823  0.028453  1
  Re  Re8  1  0.160344  0.838853  0.250452  1
  Re  Re9  1  0.838853  0.160344  0.749548  1
  Re  Re10  1  0.661752  0.661752  0.500000  1
  Tc  Tc11  1  0.337405  0.337405  0.000000  1
  Tc  Tc12  1  0.192341  0.977897  0.869075  1
  Tc  Tc13  1  0.518024  0.690730  0.120457  1
  Tc  Tc14  1  0.482073  0.310676  0.620361  1
  Tc  Tc15  1  0.690730  0.518024  0.879543  1
  Tc  Tc16  1  0.310676  0.482073  0.379639  1
  Tc  Tc17  1  0.810548  0.019983  0.370460  1
  Tc  Tc18  1  0.977897  0.192341  0.130925  1
  Tc  Tc19  1  0.019983  0.810548  0.629540  1
  Ge  Ge20  1  0.192064  0.112823  0.679664  1
  Ge  Ge21  1  0.388409  0.689050  0.930316  1
  Ge  Ge22  1  0.612706  0.309612  0.429781  1
  Ge  Ge23  1  0.689050  0.388409  0.069684  1
  Ge  Ge24  1  0.309612  0.612706  0.570219  1
  Ge  Ge25  1  0.808596  0.888015  0.179517  1
  Ge  Ge26  1  0.112823  0.192064  0.320336  1
  Ge  Ge27  1  0.888015  0.808596  0.820483  1
  Ge  Ge28  1  0.270331  0.983851  0.063592  1
  Ge  Ge29  1  0.517323  0.775605  0.314311  1
  Ge  Ge30  1  0.483579  0.225341  0.814034  1
  Ge  Ge31  1  0.775605  0.517323  0.685689  1
  Ge  Ge32  1  0.225341  0.483579  0.185966  1
  Ge  Ge33  1  0.726416  0.017866  0.564551  1
  Ge  Ge34  1  0.983851  0.270331  0.936408  1
  Ge  Ge35  1  0.017866  0.726416  0.435449  1
