# generated using pymatgen
data_TbY(Er2Rh9)2
_symmetry_space_group_name_H-M   'P 1'
_cell_length_a   5.24668800
_cell_length_b   5.24668915
_cell_length_c   17.54030400
_cell_angle_alpha   90.00000000
_cell_angle_beta   90.00000000
_cell_angle_gamma   119.99998013
_symmetry_Int_Tables_number   1
_chemical_formula_structural   TbY(Er2Rh9)2
_chemical_formula_sum   'Tb1 Y1 Er4 Rh18'
_cell_volume   418.15607278
_cell_formula_units_Z   1
loop_
 _symmetry_equiv_pos_site_id
 _symmetry_equiv_pos_as_xyz
  1  'x, y, z'
loop_
 _atom_site_type_symbol
 _atom_site_label
 _atom_site_symmetry_multiplicity
 _atom_site_fract_x
 _atom_site_fract_y
 _atom_site_fract_z
 _atom_site_occupancy
  Tb  Tb0  1  0.333333  0.666667  0.750000  1
  Y  Y1  1  0.666667  0.333333  0.250000  1
  Er  Er2  1  0.333333  0.666667  0.958149  1
  Er  Er3  1  0.666667  0.333333  0.041653  1
  Er  Er4  1  0.666667  0.333333  0.458347  1
  Er  Er5  1  0.333333  0.666667  0.541851  1
  Rh  Rh6  1  0.167423  0.832577  0.374982  1
  Rh  Rh7  1  0.167423  0.334846  0.374982  1
  Rh  Rh8  1  0.665154  0.832577  0.374982  1
  Rh  Rh9  1  0.832561  0.167439  0.625137  1
  Rh  Rh10  1  0.832561  0.665122  0.625137  1
  Rh  Rh11  1  0.334878  0.167439  0.625137  1
  Rh  Rh12  1  0.832561  0.167439  0.874863  1
  Rh  Rh13  1  0.832561  0.665122  0.874863  1
  Rh  Rh14  1  0.334878  0.167439  0.874863  1
  Rh  Rh15  1  0.167423  0.832577  0.125018  1
  Rh  Rh16  1  0.167423  0.334846  0.125018  1
  Rh  Rh17  1  0.665154  0.832577  0.125018  1
  Rh  Rh18  1  0.333333  0.666667  0.250000  1
  Rh  Rh19  1  0.666667  0.333333  0.750000  1
  Rh  Rh20  1  0.000000  0.000000  0.250000  1
  Rh  Rh21  1  0.000000  0.000000  0.750000  1
  Rh  Rh22  1  0.000000  0.000000  0.500096  1
  Rh  Rh23  1  0.000000  0.000000  0.999904  1
