# generated using pymatgen
data_Pa8Mn3CoO24
_symmetry_space_group_name_H-M   'P 1'
_cell_length_a   5.39572100
_cell_length_b   5.37106450
_cell_length_c   15.96134437
_cell_angle_alpha   90.05463926
_cell_angle_beta   90.00000000
_cell_angle_gamma   90.00000000
_symmetry_Int_Tables_number   1
_chemical_formula_structural   Pa8Mn3CoO24
_chemical_formula_sum   'Pa8 Mn3 Co1 O24'
_cell_volume   462.57176812
_cell_formula_units_Z   1
loop_
 _symmetry_equiv_pos_site_id
 _symmetry_equiv_pos_as_xyz
  1  'x, y, z'
loop_
 _atom_site_type_symbol
 _atom_site_label
 _atom_site_symmetry_multiplicity
 _atom_site_fract_x
 _atom_site_fract_y
 _atom_site_fract_z
 _atom_site_occupancy
  Pa  Pa0  1  0.255770  0.459009  0.657526  1
  Pa  Pa1  1  0.244822  0.957771  0.840089  1
  Pa  Pa2  1  0.244822  0.042229  0.159911  1
  Pa  Pa3  1  0.255770  0.540991  0.342474  1
  Pa  Pa4  1  0.746059  0.042006  0.342517  1
  Pa  Pa5  1  0.754202  0.542657  0.159901  1
  Pa  Pa6  1  0.754202  0.457343  0.840099  1
  Pa  Pa7  1  0.746059  0.957994  0.657483  1
  Mn  Mn8  1  0.291145  0.500000  0.000000  1
  Mn  Mn9  1  0.208495  0.000000  0.500000  1
  Mn  Mn10  1  0.706143  0.000000  0.000000  1
  Co  Co11  1  0.797764  0.500000  0.500000  1
  O  O12  1  0.050116  0.652730  0.907347  1
  O  O13  1  0.446563  0.150743  0.592360  1
  O  O14  1  0.446563  0.849257  0.407640  1
  O  O15  1  0.050116  0.347270  0.092653  1
  O  O16  1  0.947607  0.847464  0.092993  1
  O  O17  1  0.556809  0.350281  0.411051  1
  O  O18  1  0.556809  0.649719  0.588949  1
  O  O19  1  0.947607  0.152536  0.907007  1
  O  O20  1  0.023568  0.784515  0.252294  1
  O  O21  1  0.477182  0.284270  0.251330  1
  O  O22  1  0.477182  0.715730  0.748670  1
  O  O23  1  0.023568  0.215485  0.747706  1
  O  O24  1  0.976930  0.716086  0.748699  1
  O  O25  1  0.523604  0.215329  0.750123  1
  O  O26  1  0.523604  0.784671  0.249877  1
  O  O27  1  0.976930  0.283914  0.251301  1
  O  O28  1  0.045265  0.739786  0.586948  1
  O  O29  1  0.454592  0.235866  0.912431  1
  O  O30  1  0.454592  0.764134  0.087569  1
  O  O31  1  0.045265  0.260214  0.413052  1
  O  O32  1  0.952291  0.755589  0.415492  1
  O  O33  1  0.542846  0.264024  0.088107  1
  O  O34  1  0.542846  0.735976  0.911893  1
  O  O35  1  0.952291  0.244411  0.584508  1
