# generated using pymatgen
data_Ta8Tc3B8Mo
_symmetry_space_group_name_H-M   'P 1'
_cell_length_a   6.04800400
_cell_length_b   6.04800400
_cell_length_c   6.60839000
_cell_angle_alpha   90.00000000
_cell_angle_beta   90.00000000
_cell_angle_gamma   90.00000000
_symmetry_Int_Tables_number   1
_chemical_formula_structural   Ta8Tc3B8Mo
_chemical_formula_sum   'Ta8 Tc3 B8 Mo1'
_cell_volume   241.72401811
_cell_formula_units_Z   1
loop_
 _symmetry_equiv_pos_site_id
 _symmetry_equiv_pos_as_xyz
  1  'x, y, z'
loop_
 _atom_site_type_symbol
 _atom_site_label
 _atom_site_symmetry_multiplicity
 _atom_site_fract_x
 _atom_site_fract_y
 _atom_site_fract_z
 _atom_site_occupancy
  Ta  Ta0  1  0.676302  0.823727  0.499218  1
  Ta  Ta1  1  0.323698  0.176273  0.499218  1
  Ta  Ta2  1  0.824019  0.323429  0.000819  1
  Ta  Ta3  1  0.175981  0.676571  0.000819  1
  Ta  Ta4  1  0.823727  0.323698  0.499218  1
  Ta  Ta5  1  0.176273  0.676302  0.499218  1
  Ta  Ta6  1  0.323429  0.175981  0.000819  1
  Ta  Ta7  1  0.676571  0.824019  0.000819  1
  Tc  Tc8  1  0.500000  0.500000  0.250201  1
  Tc  Tc9  1  0.000000  0.000000  0.749514  1
  Tc  Tc10  1  0.500000  0.500000  0.750129  1
  B  B11  1  0.389695  0.888428  0.250014  1
  B  B12  1  0.610305  0.111572  0.250014  1
  B  B13  1  0.110988  0.388261  0.749843  1
  B  B14  1  0.889012  0.611739  0.749843  1
  B  B15  1  0.888428  0.610305  0.250014  1
  B  B16  1  0.111572  0.389695  0.250014  1
  B  B17  1  0.388261  0.889012  0.749843  1
  B  B18  1  0.611739  0.110988  0.749843  1
  Mo  Mo19  1  0.000000  0.000000  0.250583  1
