# generated using pymatgen
data_Dy17Er3(Bi2Pt)4
_symmetry_space_group_name_H-M   'P 1'
_cell_length_a   8.07137821
_cell_length_b   9.04437325
_cell_length_c   12.43362653
_cell_angle_alpha   89.97586089
_cell_angle_beta   90.02324808
_cell_angle_gamma   89.98869481
_symmetry_Int_Tables_number   1
_chemical_formula_structural   Dy17Er3(Bi2Pt)4
_chemical_formula_sum   'Dy17 Er3 Bi8 Pt4'
_cell_volume   907.66149049
_cell_formula_units_Z   1
loop_
 _symmetry_equiv_pos_site_id
 _symmetry_equiv_pos_as_xyz
  1  'x, y, z'
loop_
 _atom_site_type_symbol
 _atom_site_label
 _atom_site_symmetry_multiplicity
 _atom_site_fract_x
 _atom_site_fract_y
 _atom_site_fract_z
 _atom_site_occupancy
  Dy  Dy0  1  0.838656  0.750203  0.790351  1
  Dy  Dy1  1  0.161497  0.249919  0.209616  1
  Dy  Dy2  1  0.338709  0.249828  0.709573  1
  Dy  Dy3  1  0.661234  0.750173  0.290507  1
  Dy  Dy4  1  0.371335  0.750250  0.697314  1
  Dy  Dy5  1  0.628641  0.249783  0.302803  1
  Dy  Dy6  1  0.871372  0.249878  0.802587  1
  Dy  Dy7  1  0.128866  0.750220  0.197383  1
  Dy  Dy8  1  0.949838  0.750284  0.499992  1
  Dy  Dy9  1  0.050190  0.249731  0.500013  1
  Dy  Dy10  1  0.449677  0.249848  0.999974  1
  Dy  Dy11  1  0.549857  0.750127  0.999958  1
  Dy  Dy12  1  0.320652  0.545936  0.433217  1
  Dy  Dy13  1  0.820853  0.045850  0.066703  1
  Dy  Dy14  1  0.679350  0.454050  0.566783  1
  Dy  Dy15  1  0.820589  0.454140  0.066783  1
  Dy  Dy16  1  0.179341  0.546000  0.933187  1
  Er  Er17  1  0.678152  0.045951  0.566490  1
  Er  Er18  1  0.321821  0.954086  0.433522  1
  Er  Er19  1  0.178413  0.954048  0.933320  1
  Bi  Bi20  1  0.568892  0.491193  0.827329  1
  Bi  Bi21  1  0.431143  0.508841  0.172685  1
  Bi  Bi22  1  0.068880  0.508830  0.672639  1
  Bi  Bi23  1  0.431148  0.991118  0.172781  1
  Bi  Bi24  1  0.931140  0.491180  0.327323  1
  Bi  Bi25  1  0.568659  0.008831  0.827317  1
  Bi  Bi26  1  0.931524  0.008814  0.327457  1
  Bi  Bi27  1  0.068573  0.991147  0.672681  1
  Pt  Pt28  1  0.574601  0.751043  0.511392  1
  Pt  Pt29  1  0.425393  0.248948  0.488618  1
  Pt  Pt30  1  0.075191  0.249353  0.988405  1
  Pt  Pt31  1  0.925811  0.750395  0.011295  1
