# generated using pymatgen
data_Zr16CrNi4Os3
_symmetry_space_group_name_H-M   'P 1'
_cell_length_a   8.70345548
_cell_length_b   8.70345459
_cell_length_c   8.74761274
_cell_angle_alpha   60.16684764
_cell_angle_beta   60.16685235
_cell_angle_gamma   60.00000287
_symmetry_Int_Tables_number   1
_chemical_formula_structural   Zr16CrNi4Os3
_chemical_formula_sum   'Zr16 Cr1 Ni4 Os3'
_cell_volume   469.73033988
_cell_formula_units_Z   1
loop_
 _symmetry_equiv_pos_site_id
 _symmetry_equiv_pos_as_xyz
  1  'x, y, z'
loop_
 _atom_site_type_symbol
 _atom_site_label
 _atom_site_symmetry_multiplicity
 _atom_site_fract_x
 _atom_site_fract_y
 _atom_site_fract_z
 _atom_site_occupancy
  Zr  Zr0  1  0.187095  0.604569  0.603769  1
  Zr  Zr1  1  0.604569  0.187095  0.603769  1
  Zr  Zr2  1  0.604569  0.604569  0.603769  1
  Zr  Zr3  1  0.604615  0.604615  0.186158  1
  Zr  Zr4  1  0.455440  0.455440  0.044430  1
  Zr  Zr5  1  0.044374  0.044374  0.455700  1
  Zr  Zr6  1  0.455440  0.044691  0.044430  1
  Zr  Zr7  1  0.044374  0.455554  0.455700  1
  Zr  Zr8  1  0.044691  0.455440  0.044430  1
  Zr  Zr9  1  0.455554  0.044374  0.455700  1
  Zr  Zr10  1  0.815666  0.815666  0.188606  1
  Zr  Zr11  1  0.183957  0.183957  0.817118  1
  Zr  Zr12  1  0.815666  0.180062  0.188606  1
  Zr  Zr13  1  0.183957  0.814967  0.817118  1
  Zr  Zr14  1  0.180062  0.815666  0.188606  1
  Zr  Zr15  1  0.814967  0.183957  0.817118  1
  Cr  Cr16  1  0.831547  0.831547  0.505359  1
  Ni  Ni17  1  0.826305  0.392108  0.389478  1
  Ni  Ni18  1  0.392108  0.826305  0.389478  1
  Ni  Ni19  1  0.392108  0.392108  0.389478  1
  Ni  Ni20  1  0.390995  0.390995  0.827014  1
  Os  Os21  1  0.505675  0.833134  0.828057  1
  Os  Os22  1  0.833134  0.505675  0.828057  1
  Os  Os23  1  0.833134  0.833134  0.828057  1
