# generated using pymatgen
data_Li2Zr6Co16SiP11
_symmetry_space_group_name_H-M   'P 1'
_cell_length_a   11.92703017
_cell_length_b   12.00162112
_cell_length_c   3.64571700
_cell_angle_alpha   90.00000000
_cell_angle_beta   90.00000000
_cell_angle_gamma   120.13251322
_symmetry_Int_Tables_number   1
_chemical_formula_structural   Li2Zr6Co16SiP11
_chemical_formula_sum   'Li2 Zr6 Co16 Si1 P11'
_cell_volume   451.34055177
_cell_formula_units_Z   1
loop_
 _symmetry_equiv_pos_site_id
 _symmetry_equiv_pos_as_xyz
  1  'x, y, z'
loop_
 _atom_site_type_symbol
 _atom_site_label
 _atom_site_symmetry_multiplicity
 _atom_site_fract_x
 _atom_site_fract_y
 _atom_site_fract_z
 _atom_site_occupancy
  Li  Li0  1  0.438806  0.437159  0.000000  1
  Li  Li1  1  0.557651  0.999654  0.000000  1
  Zr  Zr2  1  0.001060  0.557407  0.000000  1
  Zr  Zr3  1  0.667133  0.332717  0.000000  1
  Zr  Zr4  1  0.334223  0.664599  0.000000  1
  Zr  Zr5  1  0.814163  0.812903  0.500000  1
  Zr  Zr6  1  0.187203  0.998610  0.500000  1
  Zr  Zr7  1  0.999544  0.180880  0.500000  1
  Co  Co8  1  0.199204  0.374634  0.000000  1
  Co  Co9  1  0.182675  0.811056  0.000000  1
  Co  Co10  1  0.821183  0.628715  0.000000  1
  Co  Co11  1  0.799494  0.175816  0.000000  1
  Co  Co12  1  0.375853  0.197384  0.000000  1
  Co  Co13  1  0.127280  0.478382  0.500000  1
  Co  Co14  1  0.358711  0.875389  0.500000  1
  Co  Co15  1  0.514118  0.645710  0.500000  1
  Co  Co16  1  0.640703  0.513346  0.500000  1
  Co  Co17  1  0.873268  0.351473  0.500000  1
  Co  Co18  1  0.482116  0.128024  0.500000  1
  Co  Co19  1  0.000485  0.004083  0.000000  1
  Co  Co20  1  0.716568  0.000973  0.500000  1
  Co  Co21  1  0.002219  0.725076  0.500000  1
  Co  Co22  1  0.623137  0.825819  0.000000  1
  Co  Co23  1  0.283714  0.282909  0.500000  1
  Si  Si24  1  0.632161  0.637550  0.000000  1
  P  P25  1  0.366347  0.004938  0.000000  1
  P  P26  1  0.999489  0.344821  0.000000  1
  P  P27  1  0.482748  0.312882  0.500000  1
  P  P28  1  0.684599  0.168142  0.500000  1
  P  P29  1  0.824490  0.517955  0.500000  1
  P  P30  1  0.517275  0.830886  0.500000  1
  P  P31  1  0.177275  0.693856  0.500000  1
  P  P32  1  0.819855  0.998549  0.000000  1
  P  P33  1  0.999917  0.827359  0.000000  1
  P  P34  1  0.315286  0.482171  0.500000  1
  P  P35  1  0.180047  0.178171  0.000000  1
