# generated using pymatgen
data_TbDy2Mn(Co5B2)2
_symmetry_space_group_name_H-M   'P 1'
_cell_length_a   5.04874002
_cell_length_b   5.04998621
_cell_length_c   9.74652700
_cell_angle_alpha   90.00313801
_cell_angle_beta   89.99779199
_cell_angle_gamma   120.00998133
_symmetry_Int_Tables_number   1
_chemical_formula_structural   TbDy2Mn(Co5B2)2
_chemical_formula_sum   'Tb1 Dy2 Mn1 Co10 B4'
_cell_volume   215.18402738
_cell_formula_units_Z   1
loop_
 _symmetry_equiv_pos_site_id
 _symmetry_equiv_pos_as_xyz
  1  'x, y, z'
loop_
 _atom_site_type_symbol
 _atom_site_label
 _atom_site_symmetry_multiplicity
 _atom_site_fract_x
 _atom_site_fract_y
 _atom_site_fract_z
 _atom_site_occupancy
  Tb  Tb0  1  0.999952  0.000014  0.000058  1
  Dy  Dy1  1  0.000004  0.999993  0.342158  1
  Dy  Dy2  1  0.000009  0.999996  0.657755  1
  Mn  Mn3  1  0.333262  0.666679  0.999953  1
  Co  Co4  1  0.666620  0.333330  0.000014  1
  Co  Co5  1  0.499697  0.999383  0.499995  1
  Co  Co6  1  0.499695  0.500305  0.499982  1
  Co  Co7  1  0.000613  0.500300  0.499991  1
  Co  Co8  1  0.501208  0.002394  0.204752  1
  Co  Co9  1  0.501204  0.498789  0.204687  1
  Co  Co10  1  0.997606  0.498788  0.204738  1
  Co  Co11  1  0.501202  0.002406  0.795331  1
  Co  Co12  1  0.501193  0.498820  0.795321  1
  Co  Co13  1  0.997616  0.498816  0.795314  1
  B  B14  1  0.333288  0.666649  0.349676  1
  B  B15  1  0.666717  0.333350  0.351033  1
  B  B16  1  0.666689  0.333361  0.648950  1
  B  B17  1  0.333327  0.666625  0.650293  1
