# generated using pymatgen
data_Zr4In2CoCu2Pd
_symmetry_space_group_name_H-M   'P 1'
_cell_length_a   7.33250699
_cell_length_b   7.34924941
_cell_length_c   3.42496700
_cell_angle_alpha   90.00000000
_cell_angle_beta   90.00000000
_cell_angle_gamma   89.53369895
_symmetry_Int_Tables_number   1
_chemical_formula_structural   Zr4In2CoCu2Pd
_chemical_formula_sum   'Zr4 In2 Co1 Cu2 Pd1'
_cell_volume   184.55995699
_cell_formula_units_Z   1
loop_
 _symmetry_equiv_pos_site_id
 _symmetry_equiv_pos_as_xyz
  1  'x, y, z'
loop_
 _atom_site_type_symbol
 _atom_site_label
 _atom_site_symmetry_multiplicity
 _atom_site_fract_x
 _atom_site_fract_y
 _atom_site_fract_z
 _atom_site_occupancy
  Zr  Zr0  1  0.186595  0.314154  0.000000  1
  Zr  Zr1  1  0.831653  0.665303  0.000000  1
  Zr  Zr2  1  0.649571  0.173127  0.000000  1
  Zr  Zr3  1  0.327378  0.852368  0.000000  1
  In  In4  1  0.992303  0.003024  0.500000  1
  In  In5  1  0.503794  0.505267  0.500000  1
  Co  Co6  1  0.380917  0.122485  0.500000  1
  Cu  Cu7  1  0.625641  0.874553  0.500000  1
  Cu  Cu8  1  0.875861  0.367110  0.500000  1
  Pd  Pd9  1  0.126288  0.622608  0.500000  1
