# generated using pymatgen
data_Ac2AlRuI
_symmetry_space_group_name_H-M   'P 1'
_cell_length_a   4.40826300
_cell_length_b   4.40826261
_cell_length_c   18.95289800
_cell_angle_alpha   90.00000000
_cell_angle_beta   90.00000000
_cell_angle_gamma   120.00001047
_symmetry_Int_Tables_number   1
_chemical_formula_structural   Ac2AlRuI
_chemical_formula_sum   'Ac4 Al2 Ru2 I2'
_cell_volume   318.96363071
_cell_formula_units_Z   2
loop_
 _symmetry_equiv_pos_site_id
 _symmetry_equiv_pos_as_xyz
  1  'x, y, z'
loop_
 _atom_site_type_symbol
 _atom_site_label
 _atom_site_symmetry_multiplicity
 _atom_site_fract_x
 _atom_site_fract_y
 _atom_site_fract_z
 _atom_site_occupancy
  Ac  Ac0  1  0.000000  0.000000  0.393723  1
  Ac  Ac1  1  0.000000  0.000000  0.893723  1
  Ac  Ac2  1  0.000000  0.000000  0.608917  1
  Ac  Ac3  1  0.000000  0.000000  0.108917  1
  Al  Al4  1  0.333333  0.666667  0.501670  1
  Al  Al5  1  0.666667  0.333333  0.001670  1
  Ru  Ru6  1  0.666667  0.333333  0.497951  1
  Ru  Ru7  1  0.333333  0.666667  0.997951  1
  I  I8  1  0.333333  0.666667  0.247740  1
  I  I9  1  0.666667  0.333333  0.747740  1
