# generated using pymatgen
data_LiLaS2
_symmetry_space_group_name_H-M   'P 1'
_cell_length_a   6.96206644
_cell_length_b   7.40102300
_cell_length_c   6.87348909
_cell_angle_alpha   90.00000000
_cell_angle_beta   102.96226105
_cell_angle_gamma   90.00000000
_symmetry_Int_Tables_number   1
_chemical_formula_structural   LiLaS2
_chemical_formula_sum   'Li4 La4 S8'
_cell_volume   345.14138700
_cell_formula_units_Z   4
loop_
 _symmetry_equiv_pos_site_id
 _symmetry_equiv_pos_as_xyz
  1  'x, y, z'
loop_
 _atom_site_type_symbol
 _atom_site_label
 _atom_site_symmetry_multiplicity
 _atom_site_fract_x
 _atom_site_fract_y
 _atom_site_fract_z
 _atom_site_occupancy
  Li  Li0  1  0.124938  0.647235  0.099712  1
  Li  Li1  1  0.875062  0.147236  0.400287  1
  Li  Li2  1  0.124938  0.852765  0.599712  1
  Li  Li3  1  0.875062  0.352766  0.900288  1
  La  La4  1  0.302654  0.061819  0.190614  1
  La  La5  1  0.697346  0.561819  0.309387  1
  La  La6  1  0.302653  0.438183  0.690613  1
  La  La7  1  0.697346  0.938182  0.809387  1
  S  S8  1  0.577429  0.263431  0.012635  1
  S  S9  1  0.422571  0.763430  0.487365  1
  S  S10  1  0.577429  0.236569  0.512635  1
  S  S11  1  0.422571  0.736571  0.987367  1
  S  S12  1  0.931018  0.875656  0.225520  1
  S  S13  1  0.068982  0.375654  0.274479  1
  S  S14  1  0.931018  0.624346  0.725520  1
  S  S15  1  0.068982  0.124345  0.774480  1
