# generated using pymatgen
data_Y4Al18Co5Cu
_symmetry_space_group_name_H-M   'P 1'
_cell_length_a   7.40525800
_cell_length_b   7.40525817
_cell_length_c   9.31317533
_cell_angle_alpha   89.98421263
_cell_angle_beta   89.98421104
_cell_angle_gamma   119.33493278
_symmetry_Int_Tables_number   1
_chemical_formula_structural   Y4Al18Co5Cu
_chemical_formula_sum   'Y4 Al18 Co5 Cu1'
_cell_volume   445.22587837
_cell_formula_units_Z   1
loop_
 _symmetry_equiv_pos_site_id
 _symmetry_equiv_pos_as_xyz
  1  'x, y, z'
loop_
 _atom_site_type_symbol
 _atom_site_label
 _atom_site_symmetry_multiplicity
 _atom_site_fract_x
 _atom_site_fract_y
 _atom_site_fract_z
 _atom_site_occupancy
  Y  Y0  1  0.994293  0.674696  0.250453  1
  Y  Y1  1  0.005707  0.325304  0.749547  1
  Y  Y2  1  0.674696  0.994293  0.250453  1
  Y  Y3  1  0.325304  0.005707  0.749547  1
  Al  Al4  1  0.130473  0.130473  0.257027  1
  Al  Al5  1  0.869527  0.869527  0.742973  1
  Al  Al6  1  0.332106  0.332106  0.542078  1
  Al  Al7  1  0.661465  0.661465  0.046127  1
  Al  Al8  1  0.338535  0.338535  0.953873  1
  Al  Al9  1  0.667894  0.667894  0.457922  1
  Al  Al10  1  0.339488  0.555362  0.251237  1
  Al  Al11  1  0.660512  0.444638  0.748763  1
  Al  Al12  1  0.555362  0.339488  0.251237  1
  Al  Al13  1  0.444638  0.660512  0.748763  1
  Al  Al14  1  0.999558  0.342468  0.074189  1
  Al  Al15  1  0.003137  0.664654  0.569683  1
  Al  Al16  1  0.335346  0.996863  0.430317  1
  Al  Al17  1  0.657532  0.000442  0.925811  1
  Al  Al18  1  0.000442  0.657532  0.925811  1
  Al  Al19  1  0.996863  0.335346  0.430317  1
  Al  Al20  1  0.664654  0.003137  0.569683  1
  Al  Al21  1  0.342468  0.999558  0.074189  1
  Co  Co22  1  0.000000  0.000000  0.500000  1
  Co  Co23  1  0.670879  0.329121  0.000000  1
  Co  Co24  1  0.329158  0.670842  0.500000  1
  Co  Co25  1  0.329121  0.670879  0.000000  1
  Co  Co26  1  0.670842  0.329158  0.500000  1
  Cu  Cu27  1  0.000000  0.000000  0.000000  1
