# generated using pymatgen
data_GeSb2SeO10
_symmetry_space_group_name_H-M   'P 1'
_cell_length_a   5.01532800
_cell_length_b   9.02637639
_cell_length_c   9.36948587
_cell_angle_alpha   87.98753304
_cell_angle_beta   90.00000000
_cell_angle_gamma   90.00000000
_symmetry_Int_Tables_number   1
_chemical_formula_structural   GeSb2SeO10
_chemical_formula_sum   'Ge2 Sb4 Se2 O20'
_cell_volume   423.89724076
_cell_formula_units_Z   2
loop_
 _symmetry_equiv_pos_site_id
 _symmetry_equiv_pos_as_xyz
  1  'x, y, z'
loop_
 _atom_site_type_symbol
 _atom_site_label
 _atom_site_symmetry_multiplicity
 _atom_site_fract_x
 _atom_site_fract_y
 _atom_site_fract_z
 _atom_site_occupancy
  Ge  Ge0  1  0.887785  0.030251  0.709634  1
  Ge  Ge1  1  0.387785  0.469749  0.290366  1
  Sb  Sb2  1  0.620723  0.341468  0.596877  1
  Sb  Sb3  1  0.120723  0.158532  0.403123  1
  Sb  Sb4  1  0.880867  0.650046  0.106616  1
  Sb  Sb5  1  0.380867  0.849954  0.893384  1
  Se  Se6  1  0.609900  0.974792  0.213882  1
  Se  Se7  1  0.109900  0.525208  0.786118  1
  O  O8  1  0.329503  0.388593  0.758850  1
  O  O9  1  0.230205  0.695768  0.744306  1
  O  O10  1  0.828924  0.522047  0.687289  1
  O  O11  1  0.940060  0.006029  0.521863  1
  O  O12  1  0.413196  0.170991  0.539558  1
  O  O13  1  0.913196  0.329009  0.460442  1
  O  O14  1  0.440060  0.493971  0.478137  1
  O  O15  1  0.328924  0.977953  0.312711  1
  O  O16  1  0.730205  0.804232  0.255694  1
  O  O17  1  0.829503  0.111407  0.241150  1
  O  O18  1  0.176932  0.618236  0.240230  1
  O  O19  1  0.283855  0.285169  0.251831  1
  O  O20  1  0.693820  0.482210  0.196182  1
  O  O21  1  0.539347  0.003985  0.038988  1
  O  O22  1  0.064885  0.820180  0.016510  1
  O  O23  1  0.564885  0.679820  0.983490  1
  O  O24  1  0.039347  0.496015  0.961012  1
  O  O25  1  0.193820  0.017790  0.803818  1
  O  O26  1  0.783855  0.214831  0.748169  1
  O  O27  1  0.676932  0.881764  0.759770  1
