# generated using pymatgen
data_DyHo3TmIr3
_symmetry_space_group_name_H-M   'P 1'
_cell_length_a   10.84141700
_cell_length_b   10.84063400
_cell_length_c   6.33991300
_cell_angle_alpha   90.00000000
_cell_angle_beta   90.00000000
_cell_angle_gamma   90.00000000
_symmetry_Int_Tables_number   1
_chemical_formula_structural   DyHo3TmIr3
_chemical_formula_sum   'Dy4 Ho12 Tm4 Ir12'
_cell_volume   745.11624098
_cell_formula_units_Z   4
loop_
 _symmetry_equiv_pos_site_id
 _symmetry_equiv_pos_as_xyz
  1  'x, y, z'
loop_
 _atom_site_type_symbol
 _atom_site_label
 _atom_site_symmetry_multiplicity
 _atom_site_fract_x
 _atom_site_fract_y
 _atom_site_fract_z
 _atom_site_occupancy
  Dy  Dy0  1  0.290806  0.087653  0.377174  1
  Dy  Dy1  1  0.290806  0.912347  0.877174  1
  Dy  Dy2  1  0.709194  0.087653  0.877174  1
  Dy  Dy3  1  0.709194  0.912347  0.377174  1
  Ho  Ho4  1  0.587610  0.790807  0.877221  1
  Ho  Ho5  1  0.587610  0.209193  0.377221  1
  Ho  Ho6  1  0.412390  0.790807  0.377221  1
  Ho  Ho7  1  0.412390  0.209193  0.877221  1
  Ho  Ho8  1  0.209129  0.412408  0.622774  1
  Ho  Ho9  1  0.209129  0.587592  0.122774  1
  Ho  Ho10  1  0.790871  0.412408  0.122774  1
  Ho  Ho11  1  0.790871  0.587592  0.622774  1
  Ho  Ho12  1  0.912422  0.709114  0.122740  1
  Ho  Ho13  1  0.912422  0.290886  0.622740  1
  Ho  Ho14  1  0.087578  0.709114  0.622740  1
  Ho  Ho15  1  0.087578  0.290886  0.122740  1
  Tm  Tm16  1  0.000000  0.000000  0.500030  1
  Tm  Tm17  1  0.000000  0.000000  0.000030  1
  Tm  Tm18  1  0.500000  0.500000  0.000025  1
  Tm  Tm19  1  0.500000  0.500000  0.500025  1
  Ir  Ir20  1  0.847406  0.152706  0.250077  1
  Ir  Ir21  1  0.847406  0.847294  0.750077  1
  Ir  Ir22  1  0.152594  0.152706  0.750077  1
  Ir  Ir23  1  0.152594  0.847294  0.250077  1
  Ir  Ir24  1  0.652624  0.347408  0.749969  1
  Ir  Ir25  1  0.652624  0.652592  0.249969  1
  Ir  Ir26  1  0.347376  0.347408  0.249969  1
  Ir  Ir27  1  0.347376  0.652592  0.749969  1
  Ir  Ir28  1  0.500000  0.000000  0.122071  1
  Ir  Ir29  1  0.500000  0.000000  0.622071  1
  Ir  Ir30  1  0.000000  0.500000  0.877965  1
  Ir  Ir31  1  0.000000  0.500000  0.377965  1
