# generated using pymatgen
data_Ho2TiAl3
_symmetry_space_group_name_H-M   'P 1'
_cell_length_a   5.63982549
_cell_length_b   5.63982532
_cell_length_c   5.56061513
_cell_angle_alpha   59.52764149
_cell_angle_beta   59.52764169
_cell_angle_gamma   60.00000039
_symmetry_Int_Tables_number   1
_chemical_formula_structural   Ho2TiAl3
_chemical_formula_sum   'Ho2 Ti1 Al3'
_cell_volume   124.16558752
_cell_formula_units_Z   1
loop_
 _symmetry_equiv_pos_site_id
 _symmetry_equiv_pos_as_xyz
  1  'x, y, z'
loop_
 _atom_site_type_symbol
 _atom_site_label
 _atom_site_symmetry_multiplicity
 _atom_site_fract_x
 _atom_site_fract_y
 _atom_site_fract_z
 _atom_site_occupancy
  Ho  Ho0  1  0.252982  0.252982  0.241055  1
  Ho  Ho1  1  0.997018  0.997018  0.008945  1
  Ti  Ti2  1  0.625000  0.625000  0.125000  1
  Al  Al3  1  0.625000  0.125000  0.625000  1
  Al  Al4  1  0.125000  0.625000  0.625000  1
  Al  Al5  1  0.625000  0.625000  0.625000  1
