# generated using pymatgen
data_HfFe2MoP2
_symmetry_space_group_name_H-M   'P 1'
_cell_length_a   3.70724600
_cell_length_b   6.06678421
_cell_length_c   6.88979151
_cell_angle_alpha   90.72153219
_cell_angle_beta   90.00000000
_cell_angle_gamma   90.00000000
_symmetry_Int_Tables_number   1
_chemical_formula_structural   HfFe2MoP2
_chemical_formula_sum   'Hf2 Fe4 Mo2 P4'
_cell_volume   154.94643746
_cell_formula_units_Z   2
loop_
 _symmetry_equiv_pos_site_id
 _symmetry_equiv_pos_as_xyz
  1  'x, y, z'
loop_
 _atom_site_type_symbol
 _atom_site_label
 _atom_site_symmetry_multiplicity
 _atom_site_fract_x
 _atom_site_fract_y
 _atom_site_fract_z
 _atom_site_occupancy
  Hf  Hf0  1  0.250000  0.022427  0.812556  1
  Hf  Hf1  1  0.750000  0.977573  0.187444  1
  Fe  Fe2  1  0.750000  0.855294  0.563817  1
  Fe  Fe3  1  0.250000  0.144706  0.436183  1
  Fe  Fe4  1  0.750000  0.356403  0.943263  1
  Fe  Fe5  1  0.250000  0.643597  0.056737  1
  Mo  Mo6  1  0.250000  0.521055  0.671340  1
  Mo  Mo7  1  0.750000  0.478945  0.328660  1
  P  P8  1  0.250000  0.287501  0.124608  1
  P  P9  1  0.750000  0.712499  0.875392  1
  P  P10  1  0.250000  0.766027  0.389873  1
  P  P11  1  0.750000  0.233973  0.610127  1
