# generated using pymatgen
data_Ho12Th8Si15Ag
_symmetry_space_group_name_H-M   'P 1'
_cell_length_a   7.81155800
_cell_length_b   7.75121929
_cell_length_c   14.34661900
_cell_angle_alpha   90.17104006
_cell_angle_beta   90.08199513
_cell_angle_gamma   90.11885992
_symmetry_Int_Tables_number   1
_chemical_formula_structural   Ho12Th8Si15Ag
_chemical_formula_sum   'Ho12 Th8 Si15 Ag1'
_cell_volume   868.66821726
_cell_formula_units_Z   1
loop_
 _symmetry_equiv_pos_site_id
 _symmetry_equiv_pos_as_xyz
  1  'x, y, z'
loop_
 _atom_site_type_symbol
 _atom_site_label
 _atom_site_symmetry_multiplicity
 _atom_site_fract_x
 _atom_site_fract_y
 _atom_site_fract_z
 _atom_site_occupancy
  Ho  Ho0  1  0.676392  0.326570  0.749270  1
  Ho  Ho1  1  0.324797  0.673030  0.250921  1
  Ho  Ho2  1  0.824341  0.824511  0.500597  1
  Ho  Ho3  1  0.181315  0.176795  0.999463  1
  Ho  Ho4  1  0.502423  0.346586  0.127930  1
  Ho  Ho5  1  0.496057  0.651142  0.627171  1
  Ho  Ho6  1  0.844544  0.997224  0.875972  1
  Ho  Ho7  1  0.151799  0.003241  0.379400  1
  Ho  Ho8  1  0.651652  0.494552  0.372100  1
  Ho  Ho9  1  0.345977  0.506844  0.870271  1
  Ho  Ho10  1  0.001083  0.844635  0.125013  1
  Ho  Ho11  1  0.003874  0.151807  0.621902  1
  Th  Th12  1  0.500408  0.145791  0.538065  1
  Th  Th13  1  0.495219  0.846496  0.036289  1
  Th  Th14  1  0.645024  0.998104  0.291559  1
  Th  Th15  1  0.350959  0.998353  0.785575  1
  Th  Th16  1  0.858009  0.510304  0.960385  1
  Th  Th17  1  0.147170  0.497220  0.462080  1
  Th  Th18  1  0.000393  0.648341  0.712101  1
  Th  Th19  1  0.004553  0.358483  0.216142  1
  Si  Si20  1  0.205411  0.857259  0.569780  1
  Si  Si21  1  0.639044  0.706442  0.818759  1
  Si  Si22  1  0.360078  0.291580  0.320203  1
  Si  Si23  1  0.859379  0.205014  0.431031  1
  Si  Si24  1  0.141066  0.799991  0.930026  1
  Si  Si25  1  0.704403  0.640976  0.180206  1
  Si  Si26  1  0.294634  0.358601  0.679092  1
  Si  Si27  1  0.544256  0.206913  0.933392  1
  Si  Si28  1  0.450983  0.790961  0.437619  1
  Si  Si29  1  0.706387  0.950686  0.686854  1
  Si  Si30  1  0.294657  0.048216  0.188199  1
  Si  Si31  1  0.794039  0.451176  0.562703  1
  Si  Si32  1  0.208878  0.549328  0.063711  1
  Si  Si33  1  0.950091  0.706740  0.314897  1
  Si  Si34  1  0.047621  0.294513  0.812742  1
  Ag  Ag35  1  0.793083  0.141572  0.068576  1
