# generated using pymatgen
data_DyY3B16Mo3W
_symmetry_space_group_name_H-M   'P 1'
_cell_length_a   3.62807400
_cell_length_b   6.03944219
_cell_length_c   11.67162906
_cell_angle_alpha   90.00828171
_cell_angle_beta   90.00000000
_cell_angle_gamma   90.00000000
_symmetry_Int_Tables_number   1
_chemical_formula_structural   DyY3B16Mo3W
_chemical_formula_sum   'Dy1 Y3 B16 Mo3 W1'
_cell_volume   255.74340137
_cell_formula_units_Z   1
loop_
 _symmetry_equiv_pos_site_id
 _symmetry_equiv_pos_as_xyz
  1  'x, y, z'
loop_
 _atom_site_type_symbol
 _atom_site_label
 _atom_site_symmetry_multiplicity
 _atom_site_fract_x
 _atom_site_fract_y
 _atom_site_fract_z
 _atom_site_occupancy
  Dy  Dy0  1  0.000000  0.373125  0.649932  1
  Y  Y1  1  0.000000  0.127017  0.149590  1
  Y  Y2  1  0.000000  0.872949  0.850086  1
  Y  Y3  1  0.000000  0.627206  0.350212  1
  B  B4  1  0.500000  0.476804  0.193342  1
  B  B5  1  0.500000  0.523313  0.806459  1
  B  B6  1  0.500000  0.976128  0.306489  1
  B  B7  1  0.500000  0.023326  0.693306  1
  B  B8  1  0.500000  0.287559  0.313524  1
  B  B9  1  0.500000  0.712952  0.685988  1
  B  B10  1  0.500000  0.786784  0.185984  1
  B  B11  1  0.500000  0.213220  0.813759  1
  B  B12  1  0.500000  0.366802  0.468420  1
  B  B13  1  0.500000  0.633746  0.532204  1
  B  B14  1  0.500000  0.866549  0.031877  1
  B  B15  1  0.500000  0.133381  0.968091  1
  B  B16  1  0.500000  0.386300  0.047434  1
  B  B17  1  0.500000  0.613736  0.952539  1
  B  B18  1  0.500000  0.885940  0.452856  1
  B  B19  1  0.500000  0.113557  0.547737  1
  Mo  Mo20  1  0.000000  0.869452  0.584199  1
  Mo  Mo21  1  0.000000  0.629715  0.083630  1
  Mo  Mo22  1  0.000000  0.370252  0.916351  1
  W  W23  1  0.000000  0.130187  0.415992  1
