# generated using pymatgen
data_Tm3Th(CdCu2)2
_symmetry_space_group_name_H-M   'P 1'
_cell_length_a   3.66456200
_cell_length_b   7.56293606
_cell_length_c   7.56293606
_cell_angle_alpha   91.00880001
_cell_angle_beta   90.00000000
_cell_angle_gamma   90.00000000
_symmetry_Int_Tables_number   1
_chemical_formula_structural   Tm3Th(CdCu2)2
_chemical_formula_sum   'Tm3 Th1 Cd2 Cu4'
_cell_volume   209.57313600
_cell_formula_units_Z   1
loop_
 _symmetry_equiv_pos_site_id
 _symmetry_equiv_pos_as_xyz
  1  'x, y, z'
loop_
 _atom_site_type_symbol
 _atom_site_label
 _atom_site_symmetry_multiplicity
 _atom_site_fract_x
 _atom_site_fract_y
 _atom_site_fract_z
 _atom_site_occupancy
  Tm  Tm0  1  0.500000  0.823879  0.323879  1
  Tm  Tm1  1  0.500000  0.329665  0.176100  1
  Tm  Tm2  1  0.500000  0.676100  0.829665  1
  Th  Th3  1  0.500000  0.172586  0.672586  1
  Cd  Cd4  1  0.000000  0.996017  0.006702  1
  Cd  Cd5  1  0.000000  0.506702  0.496017  1
  Cu  Cu6  1  0.000000  0.619790  0.119790  1
  Cu  Cu7  1  0.000000  0.383835  0.883835  1
  Cu  Cu8  1  0.000000  0.873356  0.618069  1
  Cu  Cu9  1  0.000000  0.118069  0.373356  1
