# generated using pymatgen
data_Na4HoAuO6
_symmetry_space_group_name_H-M   'P 1'
_cell_length_a   5.70762853
_cell_length_b   5.70786285
_cell_length_c   5.86491190
_cell_angle_alpha   99.36814697
_cell_angle_beta   99.36966514
_cell_angle_gamma   119.98031179
_symmetry_Int_Tables_number   1
_chemical_formula_structural   Na4HoAuO6
_chemical_formula_sum   'Na4 Ho1 Au1 O6'
_cell_volume   156.49152364
_cell_formula_units_Z   1
loop_
 _symmetry_equiv_pos_site_id
 _symmetry_equiv_pos_as_xyz
  1  'x, y, z'
loop_
 _atom_site_type_symbol
 _atom_site_label
 _atom_site_symmetry_multiplicity
 _atom_site_fract_x
 _atom_site_fract_y
 _atom_site_fract_z
 _atom_site_occupancy
  Na  Na0  1  0.500933  0.499042  0.000036  1
  Na  Na1  1  0.984870  0.015333  0.499980  1
  Na  Na2  1  0.665661  0.334078  0.499926  1
  Na  Na3  1  0.343200  0.656758  0.500064  1
  Ho  Ho4  1  0.167068  0.832930  0.000010  1
  Au  Au5  1  0.833806  0.166322  0.999965  1
  O  O6  1  0.595502  0.945263  0.211947  1
  O  O7  1  0.923425  0.545813  0.217742  1
  O  O8  1  0.198308  0.221680  0.217918  1
  O  O9  1  0.778333  0.801705  0.782075  1
  O  O10  1  0.454170  0.076587  0.782250  1
  O  O11  1  0.054727  0.404488  0.788089  1
