# generated using pymatgen
data_YTh3(MgRh2)4
_symmetry_space_group_name_H-M   'P 1'
_cell_length_a   6.39599119
_cell_length_b   6.39598521
_cell_length_c   7.32175100
_cell_angle_alpha   90.00046895
_cell_angle_beta   89.99888236
_cell_angle_gamma   90.00102124
_symmetry_Int_Tables_number   1
_chemical_formula_structural   YTh3(MgRh2)4
_chemical_formula_sum   'Y1 Th3 Mg4 Rh8'
_cell_volume   299.52305911
_cell_formula_units_Z   1
loop_
 _symmetry_equiv_pos_site_id
 _symmetry_equiv_pos_as_xyz
  1  'x, y, z'
loop_
 _atom_site_type_symbol
 _atom_site_label
 _atom_site_symmetry_multiplicity
 _atom_site_fract_x
 _atom_site_fract_y
 _atom_site_fract_z
 _atom_site_occupancy
  Y  Y0  1  0.250012  0.749994  0.500001  1
  Th  Th1  1  0.750026  0.250004  0.000001  1
  Th  Th2  1  0.249972  0.749995  0.000000  1
  Th  Th3  1  0.749992  0.250000  0.499998  1
  Mg  Mg4  1  0.250005  0.249999  0.000114  1
  Mg  Mg5  1  0.750021  0.749999  0.499880  1
  Mg  Mg6  1  0.249981  0.250002  0.500111  1
  Mg  Mg7  1  0.749989  0.749997  0.999887  1
  Rh  Rh8  1  0.501147  0.001164  0.249665  1
  Rh  Rh9  1  0.501133  0.498849  0.249668  1
  Rh  Rh10  1  0.998851  0.001144  0.249685  1
  Rh  Rh11  1  0.998847  0.498851  0.249683  1
  Rh  Rh12  1  0.998857  0.001142  0.750311  1
  Rh  Rh13  1  0.998844  0.498844  0.750315  1
  Rh  Rh14  1  0.501174  0.001154  0.750341  1
  Rh  Rh15  1  0.501155  0.498862  0.750340  1
