# generated using pymatgen
data_Y4Er12MgHg3Rh4
_symmetry_space_group_name_H-M   'P 1'
_cell_length_a   9.60260467
_cell_length_b   9.56846003
_cell_length_c   9.56845959
_cell_angle_alpha   59.75546509
_cell_angle_beta   59.80063532
_cell_angle_gamma   59.80063873
_symmetry_Int_Tables_number   1
_chemical_formula_structural   Y4Er12MgHg3Rh4
_chemical_formula_sum   'Y4 Er12 Mg1 Hg3 Rh4'
_cell_volume   618.64093589
_cell_formula_units_Z   1
loop_
 _symmetry_equiv_pos_site_id
 _symmetry_equiv_pos_as_xyz
  1  'x, y, z'
loop_
 _atom_site_type_symbol
 _atom_site_label
 _atom_site_symmetry_multiplicity
 _atom_site_fract_x
 _atom_site_fract_y
 _atom_site_fract_z
 _atom_site_occupancy
  Y  Y0  1  0.812239  0.188107  0.813933  1
  Y  Y1  1  0.185675  0.813037  0.188201  1
  Y  Y2  1  0.812239  0.813933  0.188107  1
  Y  Y3  1  0.185675  0.188201  0.813037  1
  Er  Er4  1  0.599491  0.597825  0.597825  1
  Er  Er5  1  0.602034  0.598427  0.202728  1
  Er  Er6  1  0.602034  0.202728  0.598427  1
  Er  Er7  1  0.191309  0.603673  0.603673  1
  Er  Er8  1  0.058831  0.439752  0.439752  1
  Er  Er9  1  0.435182  0.063205  0.063205  1
  Er  Er10  1  0.436258  0.061665  0.437857  1
  Er  Er11  1  0.059815  0.438991  0.060465  1
  Er  Er12  1  0.436258  0.437857  0.061665  1
  Er  Er13  1  0.059815  0.060465  0.438991  1
  Er  Er14  1  0.187285  0.812078  0.812078  1
  Er  Er15  1  0.810954  0.187956  0.187956  1
  Mg  Mg16  1  0.533671  0.821736  0.821736  1
  Hg  Hg17  1  0.832405  0.835439  0.835439  1
  Hg  Hg18  1  0.831872  0.837200  0.494409  1
  Hg  Hg19  1  0.831872  0.494409  0.837200  1
  Rh  Rh20  1  0.390643  0.393863  0.393863  1
  Rh  Rh21  1  0.390745  0.395340  0.821436  1
  Rh  Rh22  1  0.390745  0.821436  0.395340  1
  Rh  Rh23  1  0.822956  0.392678  0.392678  1
