# generated using pymatgen
data_Tb12IrPdPt2
_symmetry_space_group_name_H-M   'P 1'
_cell_length_a   6.48279135
_cell_length_b   7.11422824
_cell_length_c   9.62825800
_cell_angle_alpha   90.00000000
_cell_angle_beta   90.00000000
_cell_angle_gamma   90.09428180
_symmetry_Int_Tables_number   1
_chemical_formula_structural   Tb12IrPdPt2
_chemical_formula_sum   'Tb12 Ir1 Pd1 Pt2'
_cell_volume   444.05520960
_cell_formula_units_Z   1
loop_
 _symmetry_equiv_pos_site_id
 _symmetry_equiv_pos_as_xyz
  1  'x, y, z'
loop_
 _atom_site_type_symbol
 _atom_site_label
 _atom_site_symmetry_multiplicity
 _atom_site_fract_x
 _atom_site_fract_y
 _atom_site_fract_z
 _atom_site_occupancy
  Tb  Tb0  1  0.325572  0.680544  0.059124  1
  Tb  Tb1  1  0.174208  0.179251  0.438703  1
  Tb  Tb2  1  0.672559  0.324585  0.562699  1
  Tb  Tb3  1  0.822006  0.816902  0.937708  1
  Tb  Tb4  1  0.672559  0.324585  0.937301  1
  Tb  Tb5  1  0.822006  0.816902  0.562292  1
  Tb  Tb6  1  0.325572  0.680544  0.440876  1
  Tb  Tb7  1  0.174208  0.179251  0.061297  1
  Tb  Tb8  1  0.865775  0.528038  0.250000  1
  Tb  Tb9  1  0.635045  0.029345  0.250000  1
  Tb  Tb10  1  0.139298  0.474545  0.750000  1
  Tb  Tb11  1  0.371133  0.964748  0.750000  1
  Ir  Ir12  1  0.554469  0.614927  0.750000  1
  Pd  Pd13  1  0.946888  0.112399  0.750000  1
  Pt  Pt14  1  0.056412  0.886006  0.250000  1
  Pt  Pt15  1  0.442291  0.387430  0.250000  1
