# generated using pymatgen
data_Sc12IrOsPtBr16
_symmetry_space_group_name_H-M   'P 1'
_cell_length_a   8.94114396
_cell_length_b   11.38209545
_cell_length_c   11.99013274
_cell_angle_alpha   117.53204831
_cell_angle_beta   101.49299253
_cell_angle_gamma   101.00613880
_symmetry_Int_Tables_number   1
_chemical_formula_structural   Sc12IrOsPtBr16
_chemical_formula_sum   'Sc12 Ir1 Os1 Pt1 Br16'
_cell_volume   1002.52678965
_cell_formula_units_Z   1
loop_
 _symmetry_equiv_pos_site_id
 _symmetry_equiv_pos_as_xyz
  1  'x, y, z'
loop_
 _atom_site_type_symbol
 _atom_site_label
 _atom_site_symmetry_multiplicity
 _atom_site_fract_x
 _atom_site_fract_y
 _atom_site_fract_z
 _atom_site_occupancy
  Sc  Sc0  1  0.086384  0.259461  0.353708  1
  Sc  Sc1  1  0.912816  0.741280  0.648363  1
  Sc  Sc2  1  0.773388  0.537240  0.321484  1
  Sc  Sc3  1  0.224613  0.460867  0.676668  1
  Sc  Sc4  1  0.283520  0.741335  0.646901  1
  Sc  Sc5  1  0.714324  0.257832  0.350998  1
  Sc  Sc6  1  0.145310  0.538773  0.324470  1
  Sc  Sc7  1  0.854364  0.463104  0.677310  1
  Sc  Sc8  1  0.403643  0.356358  0.270848  1
  Sc  Sc9  1  0.595064  0.643564  0.729018  1
  Sc  Sc10  1  0.456455  0.300945  0.520830  1
  Sc  Sc11  1  0.542687  0.699065  0.479167  1
  Ir  Ir12  1  0.660641  0.499886  0.500420  1
  Os  Os13  1  0.337729  0.500047  0.499474  1
  Pt  Pt14  1  0.998969  0.500052  0.500092  1
  Br  Br15  1  0.394503  0.738883  0.879504  1
  Br  Br16  1  0.605347  0.260428  0.119158  1
  Br  Br17  1  0.187204  0.962134  0.782333  1
  Br  Br18  1  0.811179  0.037731  0.217769  1
  Br  Br19  1  0.343314  0.097841  0.251655  1
  Br  Br20  1  0.663209  0.902264  0.748419  1
  Br  Br21  1  0.556318  0.439479  0.796755  1
  Br  Br22  1  0.449284  0.560492  0.203265  1
  Br  Br23  1  0.307648  0.825831  0.463358  1
  Br  Br24  1  0.692935  0.175783  0.536674  1
  Br  Br25  1  0.165756  0.171952  0.531834  1
  Br  Br26  1  0.834013  0.826481  0.468153  1
  Br  Br27  1  0.925913  0.574269  0.162894  1
  Br  Br28  1  0.072795  0.425767  0.837093  1
  Br  Br29  1  0.922648  0.737736  0.880834  1
  Br  Br30  1  0.078033  0.263116  0.120549  1
