# generated using pymatgen
data_Nd3CuHg3Rh2
_symmetry_space_group_name_H-M   'P 1'
_cell_length_a   7.75288900
_cell_length_b   7.75288940
_cell_length_c   3.88516800
_cell_angle_alpha   90.00000000
_cell_angle_beta   90.00000000
_cell_angle_gamma   120.00000256
_symmetry_Int_Tables_number   1
_chemical_formula_structural   Nd3CuHg3Rh2
_chemical_formula_sum   'Nd3 Cu1 Hg3 Rh2'
_cell_volume   202.24024288
_cell_formula_units_Z   1
loop_
 _symmetry_equiv_pos_site_id
 _symmetry_equiv_pos_as_xyz
  1  'x, y, z'
loop_
 _atom_site_type_symbol
 _atom_site_label
 _atom_site_symmetry_multiplicity
 _atom_site_fract_x
 _atom_site_fract_y
 _atom_site_fract_z
 _atom_site_occupancy
  Nd  Nd0  1  0.412646  0.412646  0.500000  1
  Nd  Nd1  1  0.587354  0.000000  0.500000  1
  Nd  Nd2  1  0.000000  0.587354  0.500000  1
  Cu  Cu3  1  0.000000  0.000000  0.500000  1
  Hg  Hg4  1  0.747381  0.747381  0.000000  1
  Hg  Hg5  1  0.252619  0.000000  0.000000  1
  Hg  Hg6  1  0.000000  0.252619  0.000000  1
  Rh  Rh7  1  0.666667  0.333333  0.000000  1
  Rh  Rh8  1  0.333333  0.666667  0.000000  1
