# generated using pymatgen
data_LaAlGaAu2
_symmetry_space_group_name_H-M   'P 1'
_cell_length_a   4.56121900
_cell_length_b   4.56121900
_cell_length_c   10.26167300
_cell_angle_alpha   90.00000000
_cell_angle_beta   90.00000000
_cell_angle_gamma   90.00000000
_symmetry_Int_Tables_number   1
_chemical_formula_structural   LaAlGaAu2
_chemical_formula_sum   'La2 Al2 Ga2 Au4'
_cell_volume   213.49122083
_cell_formula_units_Z   2
loop_
 _symmetry_equiv_pos_site_id
 _symmetry_equiv_pos_as_xyz
  1  'x, y, z'
loop_
 _atom_site_type_symbol
 _atom_site_label
 _atom_site_symmetry_multiplicity
 _atom_site_fract_x
 _atom_site_fract_y
 _atom_site_fract_z
 _atom_site_occupancy
  La  La0  1  0.000000  0.500000  0.253578  1
  La  La1  1  0.500000  0.000000  0.746422  1
  Al  Al2  1  0.000000  0.500000  0.876347  1
  Al  Al3  1  0.500000  0.000000  0.123653  1
  Ga  Ga4  1  0.000000  0.000000  0.500000  1
  Ga  Ga5  1  0.500000  0.500000  0.500000  1
  Au  Au6  1  0.000000  0.000000  0.000000  1
  Au  Au7  1  0.500000  0.500000  0.000000  1
  Au  Au8  1  0.000000  0.500000  0.631395  1
  Au  Au9  1  0.500000  0.000000  0.368605  1
