# generated using pymatgen
data_TbTm2Sc3Bi2Ir
_symmetry_space_group_name_H-M   'P 1'
_cell_length_a   7.99460600
_cell_length_b   7.96621388
_cell_length_c   4.17659200
_cell_angle_alpha   90.00000000
_cell_angle_beta   90.00000000
_cell_angle_gamma   120.11796857
_symmetry_Int_Tables_number   1
_chemical_formula_structural   TbTm2Sc3Bi2Ir
_chemical_formula_sum   'Tb1 Tm2 Sc3 Bi2 Ir1'
_cell_volume   230.08283749
_cell_formula_units_Z   1
loop_
 _symmetry_equiv_pos_site_id
 _symmetry_equiv_pos_as_xyz
  1  'x, y, z'
loop_
 _atom_site_type_symbol
 _atom_site_label
 _atom_site_symmetry_multiplicity
 _atom_site_fract_x
 _atom_site_fract_y
 _atom_site_fract_z
 _atom_site_occupancy
  Tb  Tb0  1  0.615001  0.000000  0.000000  1
  Tm  Tm1  1  0.999622  0.617407  0.000000  1
  Tm  Tm2  1  0.382215  0.382593  0.000000  1
  Sc  Sc3  1  0.226890  0.000000  0.500000  1
  Sc  Sc4  1  0.000706  0.227382  0.500000  1
  Sc  Sc5  1  0.773324  0.772618  0.500000  1
  Bi  Bi6  1  0.331454  0.664891  0.500000  1
  Bi  Bi7  1  0.666564  0.335109  0.500000  1
  Ir  Ir8  1  0.004223  0.000000  0.000000  1
