# generated using pymatgen
data_Tb3Sm5(Sc3Ga4)4
_symmetry_space_group_name_H-M   'P 1'
_cell_length_a   7.34387524
_cell_length_b   7.59167012
_cell_length_c   14.58162767
_cell_angle_alpha   89.98038760
_cell_angle_beta   90.02873330
_cell_angle_gamma   90.00578751
_symmetry_Int_Tables_number   1
_chemical_formula_structural   Tb3Sm5(Sc3Ga4)4
_chemical_formula_sum   'Tb3 Sm5 Sc12 Ga16'
_cell_volume   812.95880906
_cell_formula_units_Z   1
loop_
 _symmetry_equiv_pos_site_id
 _symmetry_equiv_pos_as_xyz
  1  'x, y, z'
loop_
 _atom_site_type_symbol
 _atom_site_label
 _atom_site_symmetry_multiplicity
 _atom_site_fract_x
 _atom_site_fract_y
 _atom_site_fract_z
 _atom_site_occupancy
  Tb  Tb0  1  0.011835  0.177580  0.404162  1
  Tb  Tb1  1  0.511848  0.322571  0.404349  1
  Tb  Tb2  1  0.488138  0.677188  0.595638  1
  Sm  Sm3  1  0.011867  0.176909  0.095546  1
  Sm  Sm4  1  0.988188  0.823091  0.904439  1
  Sm  Sm5  1  0.488115  0.676955  0.904492  1
  Sm  Sm6  1  0.988201  0.823107  0.595402  1
  Sm  Sm7  1  0.511878  0.323075  0.095543  1
  Sc  Sc8  1  0.161943  0.501861  0.749863  1
  Sc  Sc9  1  0.838179  0.497797  0.250298  1
  Sc  Sc10  1  0.338312  0.002132  0.250269  1
  Sc  Sc11  1  0.661525  0.998052  0.749864  1
  Sc  Sc12  1  0.330431  0.174481  0.624286  1
  Sc  Sc13  1  0.669852  0.825715  0.375671  1
  Sc  Sc14  1  0.170108  0.674220  0.375573  1
  Sc  Sc15  1  0.669754  0.825721  0.124680  1
  Sc  Sc16  1  0.829892  0.325724  0.624227  1
  Sc  Sc17  1  0.330306  0.174277  0.875411  1
  Sc  Sc18  1  0.830197  0.325672  0.875457  1
  Sc  Sc19  1  0.169706  0.674408  0.124656  1
  Ga  Ga20  1  0.031870  0.119299  0.749980  1
  Ga  Ga21  1  0.968157  0.881062  0.250189  1
  Ga  Ga22  1  0.468185  0.618994  0.250207  1
  Ga  Ga23  1  0.531785  0.380981  0.749789  1
  Ga  Ga24  1  0.285342  0.874563  0.749709  1
  Ga  Ga25  1  0.715136  0.125540  0.250516  1
  Ga  Ga26  1  0.215138  0.374403  0.250579  1
  Ga  Ga27  1  0.784445  0.625225  0.749660  1
  Ga  Ga28  1  0.160089  0.464242  0.539954  1
  Ga  Ga29  1  0.839928  0.534519  0.459681  1
  Ga  Ga30  1  0.340530  0.965084  0.459808  1
  Ga  Ga31  1  0.840833  0.535760  0.040133  1
  Ga  Ga32  1  0.659032  0.035460  0.539938  1
  Ga  Ga33  1  0.159183  0.464421  0.959959  1
  Ga  Ga34  1  0.659173  0.035671  0.959937  1
  Ga  Ga35  1  0.340901  0.964241  0.040134  1
