# generated using pymatgen
data_Pr16Cd3Hg(IrPd)2
_symmetry_space_group_name_H-M   'P 1'
_cell_length_a   10.06874555
_cell_length_b   10.06874502
_cell_length_c   10.04794976
_cell_angle_alpha   59.98754280
_cell_angle_beta   59.98754544
_cell_angle_gamma   60.32869323
_symmetry_Int_Tables_number   1
_chemical_formula_structural   Pr16Cd3Hg(IrPd)2
_chemical_formula_sum   'Pr16 Cd3 Hg1 Ir2 Pd2'
_cell_volume   721.93516271
_cell_formula_units_Z   1
loop_
 _symmetry_equiv_pos_site_id
 _symmetry_equiv_pos_as_xyz
  1  'x, y, z'
loop_
 _atom_site_type_symbol
 _atom_site_label
 _atom_site_symmetry_multiplicity
 _atom_site_fract_x
 _atom_site_fract_y
 _atom_site_fract_z
 _atom_site_occupancy
  Pr  Pr0  1  0.350129  0.350129  0.345268  1
  Pr  Pr1  1  0.350811  0.350811  0.953034  1
  Pr  Pr2  1  0.357718  0.942710  0.350074  1
  Pr  Pr3  1  0.942710  0.357718  0.350074  1
  Pr  Pr4  1  0.805338  0.190739  0.189811  1
  Pr  Pr5  1  0.191197  0.804584  0.813392  1
  Pr  Pr6  1  0.190739  0.805338  0.189811  1
  Pr  Pr7  1  0.804584  0.191197  0.813392  1
  Pr  Pr8  1  0.191265  0.191265  0.808809  1
  Pr  Pr9  1  0.810138  0.810138  0.189603  1
  Pr  Pr10  1  0.939126  0.564404  0.560339  1
  Pr  Pr11  1  0.564501  0.939315  0.935108  1
  Pr  Pr12  1  0.564404  0.939126  0.560339  1
  Pr  Pr13  1  0.939315  0.564501  0.935108  1
  Pr  Pr14  1  0.562538  0.562538  0.936623  1
  Pr  Pr15  1  0.938164  0.938164  0.561654  1
  Cd  Cd16  1  0.579893  0.579893  0.258566  1
  Cd  Cd17  1  0.578449  0.259994  0.580325  1
  Cd  Cd18  1  0.259994  0.578449  0.580325  1
  Hg  Hg19  1  0.583540  0.583540  0.583617  1
  Ir  Ir20  1  0.140836  0.571496  0.143800  1
  Ir  Ir21  1  0.571496  0.140836  0.143800  1
  Pd  Pd22  1  0.141692  0.141692  0.147130  1
  Pd  Pd23  1  0.141423  0.141423  0.569997  1
