# generated using pymatgen
data_Tb2Er6Co(Si4Pd)3
_symmetry_space_group_name_H-M   'P 1'
_cell_length_a   8.13257900
_cell_length_b   8.13257887
_cell_length_c   7.86236100
_cell_angle_alpha   90.00000000
_cell_angle_beta   90.00000000
_cell_angle_gamma   120.00001272
_symmetry_Int_Tables_number   1
_chemical_formula_structural   Tb2Er6Co(Si4Pd)3
_chemical_formula_sum   'Tb2 Er6 Co1 Si12 Pd3'
_cell_volume   450.33959329
_cell_formula_units_Z   1
loop_
 _symmetry_equiv_pos_site_id
 _symmetry_equiv_pos_as_xyz
  1  'x, y, z'
loop_
 _atom_site_type_symbol
 _atom_site_label
 _atom_site_symmetry_multiplicity
 _atom_site_fract_x
 _atom_site_fract_y
 _atom_site_fract_z
 _atom_site_occupancy
  Tb  Tb0  1  0.000000  0.000000  0.249729  1
  Tb  Tb1  1  0.000000  0.000000  0.751654  1
  Er  Er2  1  0.507343  0.014683  0.245654  1
  Er  Er3  1  0.487804  0.975609  0.752231  1
  Er  Er4  1  0.985317  0.492657  0.245654  1
  Er  Er5  1  0.024391  0.512196  0.752231  1
  Er  Er6  1  0.507343  0.492657  0.245654  1
  Er  Er7  1  0.487804  0.512196  0.752231  1
  Co  Co8  1  0.333333  0.666667  0.037694  1
  Si  Si9  1  0.173323  0.346645  0.003581  1
  Si  Si10  1  0.835649  0.671298  0.998199  1
  Si  Si11  1  0.653355  0.826677  0.003581  1
  Si  Si12  1  0.833866  0.667733  0.499931  1
  Si  Si13  1  0.328702  0.164351  0.998199  1
  Si  Si14  1  0.165385  0.330770  0.500954  1
  Si  Si15  1  0.173323  0.826677  0.003581  1
  Si  Si16  1  0.332267  0.166134  0.499931  1
  Si  Si17  1  0.835649  0.164351  0.998199  1
  Si  Si18  1  0.669230  0.834615  0.500954  1
  Si  Si19  1  0.833866  0.166134  0.499931  1
  Si  Si20  1  0.165385  0.834615  0.500954  1
  Pd  Pd21  1  0.666667  0.333333  0.965240  1
  Pd  Pd22  1  0.666667  0.333333  0.536617  1
  Pd  Pd23  1  0.333333  0.666667  0.457417  1
