# generated using pymatgen
data_Ac6Ga7Ge5
_symmetry_space_group_name_H-M   'P 1'
_cell_length_a   4.53493520
_cell_length_b   4.56198218
_cell_length_c   22.66497200
_cell_angle_alpha   84.22399811
_cell_angle_beta   84.25836002
_cell_angle_gamma   90.00000147
_symmetry_Int_Tables_number   1
_chemical_formula_structural   Ac6Ga7Ge5
_chemical_formula_sum   'Ac6 Ga7 Ge5'
_cell_volume   464.15449135
_cell_formula_units_Z   1
loop_
 _symmetry_equiv_pos_site_id
 _symmetry_equiv_pos_as_xyz
  1  'x, y, z'
loop_
 _atom_site_type_symbol
 _atom_site_label
 _atom_site_symmetry_multiplicity
 _atom_site_fract_x
 _atom_site_fract_y
 _atom_site_fract_z
 _atom_site_occupancy
  Ac  Ac0  1  0.958749  0.707821  0.084758  1
  Ac  Ac1  1  0.292134  0.039240  0.417169  1
  Ac  Ac2  1  0.625661  0.374756  0.750362  1
  Ac  Ac3  1  0.373826  0.625296  0.250891  1
  Ac  Ac4  1  0.707561  0.959729  0.582238  1
  Ac  Ac5  1  0.040285  0.293478  0.917511  1
  Ga  Ga6  1  0.160017  0.905447  0.692185  1
  Ga  Ga7  1  0.430924  0.165385  0.139460  1
  Ga  Ga8  1  0.764903  0.503871  0.471254  1
  Ga  Ga9  1  0.098031  0.839708  0.803662  1
  Ga  Ga10  1  0.834967  0.097424  0.306232  1
  Ga  Ga11  1  0.173629  0.430636  0.638846  1
  Ga  Ga12  1  0.505156  0.763330  0.973824  1
  Ge  Ge13  1  0.904515  0.164313  0.194591  1
  Ge  Ge14  1  0.238518  0.493037  0.527051  1
  Ge  Ge15  1  0.570616  0.827149  0.862185  1
  Ge  Ge16  1  0.493170  0.237815  0.027641  1
  Ge  Ge17  1  0.827339  0.571567  0.360137  1
