# generated using pymatgen
data_Sr(LiIn2)4
_symmetry_space_group_name_H-M   'P 1'
_cell_length_a   7.74337235
_cell_length_b   7.74337180
_cell_length_c   7.74337242
_cell_angle_alpha   98.54207578
_cell_angle_beta   98.54207220
_cell_angle_gamma   134.66246144
_symmetry_Int_Tables_number   1
_chemical_formula_structural   Sr(LiIn2)4
_chemical_formula_sum   'Sr1 Li4 In8'
_cell_volume   304.72080850
_cell_formula_units_Z   1
loop_
 _symmetry_equiv_pos_site_id
 _symmetry_equiv_pos_as_xyz
  1  'x, y, z'
loop_
 _atom_site_type_symbol
 _atom_site_label
 _atom_site_symmetry_multiplicity
 _atom_site_fract_x
 _atom_site_fract_y
 _atom_site_fract_z
 _atom_site_occupancy
  Sr  Sr0  1  0.000000  0.000000  0.000000  1
  Li  Li1  1  0.000000  0.000000  0.500000  1
  Li  Li2  1  0.500000  0.500000  0.500000  1
  Li  Li3  1  0.500000  0.000000  0.000000  1
  Li  Li4  1  0.000000  0.500000  0.000000  1
  In  In5  1  0.000000  0.344032  0.344032  1
  In  In6  1  0.000000  0.655968  0.655968  1
  In  In7  1  0.655968  0.000000  0.655968  1
  In  In8  1  0.344032  0.000000  0.344032  1
  In  In9  1  0.500000  0.278465  0.778465  1
  In  In10  1  0.500000  0.721535  0.221535  1
  In  In11  1  0.721535  0.500000  0.221535  1
  In  In12  1  0.278465  0.500000  0.778465  1
