# generated using pymatgen
data_Ho8CdHg3Au8
_symmetry_space_group_name_H-M   'P 1'
_cell_length_a   7.97516100
_cell_length_b   7.97516100
_cell_length_c   7.34758000
_cell_angle_alpha   90.00000000
_cell_angle_beta   90.00000000
_cell_angle_gamma   90.00000000
_symmetry_Int_Tables_number   1
_chemical_formula_structural   Ho8CdHg3Au8
_chemical_formula_sum   'Ho8 Cd1 Hg3 Au8'
_cell_volume   467.32954865
_cell_formula_units_Z   1
loop_
 _symmetry_equiv_pos_site_id
 _symmetry_equiv_pos_as_xyz
  1  'x, y, z'
loop_
 _atom_site_type_symbol
 _atom_site_label
 _atom_site_symmetry_multiplicity
 _atom_site_fract_x
 _atom_site_fract_y
 _atom_site_fract_z
 _atom_site_occupancy
  Ho  Ho0  1  0.837839  0.158933  0.500229  1
  Ho  Ho1  1  0.162161  0.841067  0.500229  1
  Ho  Ho2  1  0.341067  0.337839  0.999771  1
  Ho  Ho3  1  0.658933  0.662161  0.999771  1
  Ho  Ho4  1  0.680964  0.685675  0.500441  1
  Ho  Ho5  1  0.319036  0.314325  0.500441  1
  Ho  Ho6  1  0.185675  0.819036  0.999559  1
  Ho  Ho7  1  0.814325  0.180964  0.999559  1
  Cd  Cd8  1  0.000000  0.500000  0.250000  1
  Hg  Hg9  1  0.500000  0.000000  0.250000  1
  Hg  Hg10  1  0.000000  0.500000  0.750000  1
  Hg  Hg11  1  0.500000  0.000000  0.750000  1
  Au  Au12  1  0.631315  0.376258  0.273265  1
  Au  Au13  1  0.368685  0.623742  0.273265  1
  Au  Au14  1  0.126794  0.128100  0.773535  1
  Au  Au15  1  0.873206  0.871900  0.773535  1
  Au  Au16  1  0.371900  0.626794  0.726465  1
  Au  Au17  1  0.628100  0.373206  0.726465  1
  Au  Au18  1  0.876258  0.868685  0.226735  1
  Au  Au19  1  0.123742  0.131315  0.226735  1
