# generated using pymatgen
data_Pa4BeB14
_symmetry_space_group_name_H-M   'P 1'
_cell_length_a   7.23440200
_cell_length_b   7.23440200
_cell_length_c   7.48959200
_cell_angle_alpha   90.00000000
_cell_angle_beta   90.00000000
_cell_angle_gamma   90.00000000
_symmetry_Int_Tables_number   1
_chemical_formula_structural   Pa4BeB14
_chemical_formula_sum   'Pa8 Be2 B28'
_cell_volume   391.97957319
_cell_formula_units_Z   2
loop_
 _symmetry_equiv_pos_site_id
 _symmetry_equiv_pos_as_xyz
  1  'x, y, z'
loop_
 _atom_site_type_symbol
 _atom_site_label
 _atom_site_symmetry_multiplicity
 _atom_site_fract_x
 _atom_site_fract_y
 _atom_site_fract_z
 _atom_site_occupancy
  Pa  Pa0  1  0.197173  0.325192  0.000000  1
  Pa  Pa1  1  0.674808  0.197173  0.000000  1
  Pa  Pa2  1  0.325192  0.802827  0.000000  1
  Pa  Pa3  1  0.697173  0.174808  0.500000  1
  Pa  Pa4  1  0.302827  0.825192  0.500000  1
  Pa  Pa5  1  0.802827  0.674808  0.000000  1
  Pa  Pa6  1  0.825192  0.697173  0.500000  1
  Pa  Pa7  1  0.174808  0.302827  0.500000  1
  Be  Be8  1  0.000000  0.000000  0.000000  1
  Be  Be9  1  0.500000  0.500000  0.500000  1
  B  B10  1  0.174549  0.040272  0.228845  1
  B  B11  1  0.959728  0.174549  0.228845  1
  B  B12  1  0.040272  0.825451  0.228845  1
  B  B13  1  0.674549  0.459728  0.271155  1
  B  B14  1  0.325451  0.540272  0.271155  1
  B  B15  1  0.825451  0.959728  0.228845  1
  B  B16  1  0.540272  0.674549  0.271155  1
  B  B17  1  0.459728  0.325451  0.271155  1
  B  B18  1  0.825451  0.959728  0.771155  1
  B  B19  1  0.040272  0.825451  0.771155  1
  B  B20  1  0.959728  0.174549  0.771155  1
  B  B21  1  0.325451  0.540272  0.728845  1
  B  B22  1  0.674549  0.459728  0.728845  1
  B  B23  1  0.174549  0.040272  0.771155  1
  B  B24  1  0.459728  0.325451  0.728845  1
  B  B25  1  0.540272  0.674549  0.728845  1
  B  B26  1  0.090247  0.590247  0.250000  1
  B  B27  1  0.409753  0.090247  0.250000  1
  B  B28  1  0.590247  0.909753  0.250000  1
  B  B29  1  0.909753  0.409753  0.250000  1
  B  B30  1  0.909753  0.409753  0.750000  1
  B  B31  1  0.590247  0.909753  0.750000  1
  B  B32  1  0.409753  0.090247  0.750000  1
  B  B33  1  0.090247  0.590247  0.750000  1
  B  B34  1  0.000000  0.000000  0.389452  1
  B  B35  1  0.500000  0.500000  0.110548  1
  B  B36  1  0.000000  0.000000  0.610548  1
  B  B37  1  0.500000  0.500000  0.889452  1
