# generated using pymatgen
data_Gd2Si5Os3
_symmetry_space_group_name_H-M   'P 1'
_cell_length_a   8.14326763
_cell_length_b   8.14326671
_cell_length_c   5.80190186
_cell_angle_alpha   70.46223124
_cell_angle_beta   70.46224289
_cell_angle_gamma   93.88762807
_symmetry_Int_Tables_number   1
_chemical_formula_structural   Gd2Si5Os3
_chemical_formula_sum   'Gd4 Si10 Os6'
_cell_volume   334.64740962
_cell_formula_units_Z   2
loop_
 _symmetry_equiv_pos_site_id
 _symmetry_equiv_pos_as_xyz
  1  'x, y, z'
loop_
 _atom_site_type_symbol
 _atom_site_label
 _atom_site_symmetry_multiplicity
 _atom_site_fract_x
 _atom_site_fract_y
 _atom_site_fract_z
 _atom_site_occupancy
  Gd  Gd0  1  0.868631  0.602101  0.753352  1
  Gd  Gd1  1  0.397899  0.131369  0.746648  1
  Gd  Gd2  1  0.131369  0.397899  0.246648  1
  Gd  Gd3  1  0.602101  0.868631  0.253352  1
  Si  Si4  1  0.066903  0.261380  0.834323  1
  Si  Si5  1  0.738620  0.933097  0.665677  1
  Si  Si6  1  0.933097  0.738620  0.165677  1
  Si  Si7  1  0.261380  0.066903  0.334323  1
  Si  Si8  1  0.206724  0.793276  0.750000  1
  Si  Si9  1  0.793276  0.206724  0.250000  1
  Si  Si10  1  0.512383  0.487617  0.750000  1
  Si  Si11  1  0.487617  0.512383  0.250000  1
  Si  Si12  1  0.774429  0.225571  0.750000  1
  Si  Si13  1  0.225571  0.774429  0.250000  1
  Os  Os14  1  0.256141  0.543711  0.631492  1
  Os  Os15  1  0.456289  0.743859  0.868508  1
  Os  Os16  1  0.743859  0.456289  0.368508  1
  Os  Os17  1  0.543711  0.256141  0.131492  1
  Os  Os18  1  0.002211  0.997789  0.750000  1
  Os  Os19  1  0.997789  0.002211  0.250000  1
