# generated using pymatgen
data_Rb8ZnHg3H16
_symmetry_space_group_name_H-M   'P 1'
_cell_length_a   6.24463200
_cell_length_b   8.47640740
_cell_length_c   11.02092512
_cell_angle_alpha   90.08625568
_cell_angle_beta   90.00000000
_cell_angle_gamma   90.00000000
_symmetry_Int_Tables_number   1
_chemical_formula_structural   Rb8ZnHg3H16
_chemical_formula_sum   'Rb8 Zn1 Hg3 H16'
_cell_volume   583.35944239
_cell_formula_units_Z   1
loop_
 _symmetry_equiv_pos_site_id
 _symmetry_equiv_pos_as_xyz
  1  'x, y, z'
loop_
 _atom_site_type_symbol
 _atom_site_label
 _atom_site_symmetry_multiplicity
 _atom_site_fract_x
 _atom_site_fract_y
 _atom_site_fract_z
 _atom_site_occupancy
  Rb  Rb0  1  0.250000  0.663040  0.088404  1
  Rb  Rb1  1  0.250000  0.161984  0.408514  1
  Rb  Rb2  1  0.750000  0.343652  0.908374  1
  Rb  Rb3  1  0.750000  0.836829  0.596305  1
  Rb  Rb4  1  0.250000  0.982057  0.815590  1
  Rb  Rb5  1  0.250000  0.487987  0.687815  1
  Rb  Rb6  1  0.750000  0.011204  0.182028  1
  Rb  Rb7  1  0.750000  0.515163  0.313444  1
  Zn  Zn8  1  0.750000  0.759941  0.917425  1
  Hg  Hg9  1  0.250000  0.738515  0.416674  1
  Hg  Hg10  1  0.250000  0.238850  0.082901  1
  Hg  Hg11  1  0.750000  0.261168  0.583041  1
  H  H12  1  0.012693  0.817639  0.343595  1
  H  H13  1  0.487368  0.317547  0.156217  1
  H  H14  1  0.512607  0.182430  0.656603  1
  H  H15  1  0.968864  0.688219  0.848980  1
  H  H16  1  0.987393  0.182430  0.656603  1
  H  H17  1  0.531136  0.688219  0.848980  1
  H  H18  1  0.487307  0.817639  0.343595  1
  H  H19  1  0.012632  0.317547  0.156217  1
  H  H20  1  0.250000  0.526153  0.408796  1
  H  H21  1  0.250000  0.026191  0.091057  1
  H  H22  1  0.750000  0.473838  0.591454  1
  H  H23  1  0.750000  0.955732  0.909543  1
  H  H24  1  0.250000  0.308783  0.925693  1
  H  H25  1  0.250000  0.808610  0.574281  1
  H  H26  1  0.750000  0.697161  0.062066  1
  H  H27  1  0.750000  0.191473  0.425805  1
