# generated using pymatgen
data_Lu10Zn3NiSb2
_symmetry_space_group_name_H-M   'P 1'
_cell_length_a   8.32402041
_cell_length_b   8.32402164
_cell_length_c   8.39486093
_cell_angle_alpha   124.15412435
_cell_angle_beta   124.15413539
_cell_angle_gamma   82.39182349
_symmetry_Int_Tables_number   1
_chemical_formula_structural   Lu10Zn3NiSb2
_chemical_formula_sum   'Lu10 Zn3 Ni1 Sb2'
_cell_volume   383.88100324
_cell_formula_units_Z   1
loop_
 _symmetry_equiv_pos_site_id
 _symmetry_equiv_pos_as_xyz
  1  'x, y, z'
loop_
 _atom_site_type_symbol
 _atom_site_label
 _atom_site_symmetry_multiplicity
 _atom_site_fract_x
 _atom_site_fract_y
 _atom_site_fract_z
 _atom_site_occupancy
  Lu  Lu0  1  0.003797  0.000917  0.004714  1
  Lu  Lu1  1  0.499083  0.496203  0.995286  1
  Lu  Lu2  1  0.785213  0.297484  0.798719  1
  Lu  Lu3  1  0.202516  0.714787  0.201281  1
  Lu  Lu4  1  0.486494  0.998765  0.201281  1
  Lu  Lu5  1  0.306268  0.471131  0.500000  1
  Lu  Lu6  1  0.028869  0.193732  0.500000  1
  Lu  Lu7  1  0.501235  0.013506  0.798719  1
  Lu  Lu8  1  0.703738  0.513329  0.500000  1
  Lu  Lu9  1  0.986671  0.796262  0.500000  1
  Zn  Zn10  1  0.138286  0.636475  0.774762  1
  Zn  Zn11  1  0.863525  0.361714  0.225238  1
  Zn  Zn12  1  0.634341  0.865659  0.500000  1
  Ni  Ni13  1  0.368607  0.131393  0.500000  1
  Sb  Sb14  1  0.245678  0.254322  0.000000  1
  Sb  Sb15  1  0.745678  0.754322  0.000000  1
