# generated using pymatgen
data_CeNd2(InPd)3
_symmetry_space_group_name_H-M   'P 1'
_cell_length_a   7.73295292
_cell_length_b   7.77814206
_cell_length_c   4.06918200
_cell_angle_alpha   90.00000000
_cell_angle_beta   90.00000000
_cell_angle_gamma   120.18271993
_symmetry_Int_Tables_number   1
_chemical_formula_structural   CeNd2(InPd)3
_chemical_formula_sum   'Ce1 Nd2 In3 Pd3'
_cell_volume   211.57113154
_cell_formula_units_Z   1
loop_
 _symmetry_equiv_pos_site_id
 _symmetry_equiv_pos_as_xyz
  1  'x, y, z'
loop_
 _atom_site_type_symbol
 _atom_site_label
 _atom_site_symmetry_multiplicity
 _atom_site_fract_x
 _atom_site_fract_y
 _atom_site_fract_z
 _atom_site_occupancy
  Ce  Ce0  1  0.000168  0.588045  0.000000  1
  Nd  Nd1  1  0.408935  0.410940  0.000000  1
  Nd  Nd2  1  0.590889  0.001834  0.000000  1
  In  In3  1  0.745346  0.746898  0.500000  1
  In  In4  1  0.254249  0.001528  0.500000  1
  In  In5  1  0.000064  0.249469  0.500000  1
  Pd  Pd6  1  0.000160  0.995955  0.000000  1
  Pd  Pd7  1  0.677023  0.341149  0.500000  1
  Pd  Pd8  1  0.323167  0.664181  0.500000  1
