# generated using pymatgen
data_ZnInP7Ru12
_symmetry_space_group_name_H-M   'P 1'
_cell_length_a   9.54821700
_cell_length_b   9.54821583
_cell_length_c   3.77800900
_cell_angle_alpha   90.00000000
_cell_angle_beta   90.00000000
_cell_angle_gamma   119.99999365
_symmetry_Int_Tables_number   1
_chemical_formula_structural   ZnInP7Ru12
_chemical_formula_sum   'Zn1 In1 P7 Ru12'
_cell_volume   298.28963012
_cell_formula_units_Z   1
loop_
 _symmetry_equiv_pos_site_id
 _symmetry_equiv_pos_as_xyz
  1  'x, y, z'
loop_
 _atom_site_type_symbol
 _atom_site_label
 _atom_site_symmetry_multiplicity
 _atom_site_fract_x
 _atom_site_fract_y
 _atom_site_fract_z
 _atom_site_occupancy
  Zn  Zn0  1  0.333333  0.666667  0.000000  1
  In  In1  1  0.666667  0.333333  0.500000  1
  P  P2  1  0.613120  0.693925  0.500000  1
  P  P3  1  0.000000  0.000000  0.000000  1
  P  P4  1  0.306075  0.919195  0.500000  1
  P  P5  1  0.080805  0.386880  0.500000  1
  P  P6  1  0.919028  0.615082  0.000000  1
  P  P7  1  0.384918  0.303946  0.000000  1
  P  P8  1  0.696054  0.080972  0.000000  1
  Ru  Ru9  1  0.534309  0.898095  0.500000  1
  Ru  Ru10  1  0.363787  0.465691  0.500000  1
  Ru  Ru11  1  0.866250  0.118194  0.500000  1
  Ru  Ru12  1  0.251944  0.133750  0.500000  1
  Ru  Ru13  1  0.881806  0.748056  0.500000  1
  Ru  Ru14  1  0.731498  0.857361  0.000000  1
  Ru  Ru15  1  0.142639  0.874137  0.000000  1
  Ru  Ru16  1  0.125863  0.268502  0.000000  1
  Ru  Ru17  1  0.462949  0.097981  0.000000  1
  Ru  Ru18  1  0.902019  0.364969  0.000000  1
  Ru  Ru19  1  0.635031  0.537051  0.000000  1
  Ru  Ru20  1  0.101905  0.636213  0.500000  1
