# generated using pymatgen
data_PrLu8ThBi6
_symmetry_space_group_name_H-M   'P 1'
_cell_length_a   8.19988800
_cell_length_b   9.44775600
_cell_length_c   11.86648200
_cell_angle_alpha   90.00000000
_cell_angle_beta   90.00000000
_cell_angle_gamma   90.00000000
_symmetry_Int_Tables_number   1
_chemical_formula_structural   PrLu8ThBi6
_chemical_formula_sum   'Pr2 Lu16 Th2 Bi12'
_cell_volume   919.30278092
_cell_formula_units_Z   2
loop_
 _symmetry_equiv_pos_site_id
 _symmetry_equiv_pos_as_xyz
  1  'x, y, z'
loop_
 _atom_site_type_symbol
 _atom_site_label
 _atom_site_symmetry_multiplicity
 _atom_site_fract_x
 _atom_site_fract_y
 _atom_site_fract_z
 _atom_site_occupancy
  Pr  Pr0  1  0.683060  0.750000  0.781595  1
  Pr  Pr1  1  0.183060  0.750000  0.718405  1
  Lu  Lu2  1  0.351134  0.750000  0.219529  1
  Lu  Lu3  1  0.851134  0.750000  0.280471  1
  Lu  Lu4  1  0.647612  0.250000  0.778272  1
  Lu  Lu5  1  0.147612  0.250000  0.721728  1
  Lu  Lu6  1  0.688758  0.566481  0.062831  1
  Lu  Lu7  1  0.188758  0.933519  0.437169  1
  Lu  Lu8  1  0.310272  0.067595  0.940798  1
  Lu  Lu9  1  0.810272  0.432405  0.559202  1
  Lu  Lu10  1  0.310272  0.432405  0.940798  1
  Lu  Lu11  1  0.810272  0.067595  0.559202  1
  Lu  Lu12  1  0.688758  0.933519  0.062831  1
  Lu  Lu13  1  0.188758  0.566481  0.437169  1
  Lu  Lu14  1  0.482262  0.250000  0.487603  1
  Lu  Lu15  1  0.982262  0.250000  0.012397  1
  Lu  Lu16  1  0.518402  0.750000  0.511266  1
  Lu  Lu17  1  0.018402  0.750000  0.988734  1
  Th  Th18  1  0.318281  0.250000  0.219910  1
  Th  Th19  1  0.818281  0.250000  0.280090  1
  Bi  Bi20  1  0.398094  0.750000  0.964113  1
  Bi  Bi21  1  0.898094  0.750000  0.535887  1
  Bi  Bi22  1  0.602823  0.250000  0.034935  1
  Bi  Bi23  1  0.102823  0.250000  0.465065  1
  Bi  Bi24  1  0.564956  0.988078  0.327838  1
  Bi  Bi25  1  0.064956  0.511922  0.172162  1
  Bi  Bi26  1  0.435181  0.489823  0.671973  1
  Bi  Bi27  1  0.935181  0.010177  0.828027  1
  Bi  Bi28  1  0.435181  0.010177  0.671973  1
  Bi  Bi29  1  0.935181  0.489823  0.828027  1
  Bi  Bi30  1  0.564956  0.511922  0.327838  1
  Bi  Bi31  1  0.064956  0.988078  0.172162  1
