# generated using pymatgen
data_CdBi3RuRh3O14
_symmetry_space_group_name_H-M   'P 1'
_cell_length_a   7.39088018
_cell_length_b   7.22544335
_cell_length_c   7.36584300
_cell_angle_alpha   59.35511390
_cell_angle_beta   60.11200149
_cell_angle_gamma   59.46874720
_symmetry_Int_Tables_number   1
_chemical_formula_structural   CdBi3RuRh3O14
_chemical_formula_sum   'Cd1 Bi3 Ru1 Rh3 O14'
_cell_volume   275.87273816
_cell_formula_units_Z   1
loop_
 _symmetry_equiv_pos_site_id
 _symmetry_equiv_pos_as_xyz
  1  'x, y, z'
loop_
 _atom_site_type_symbol
 _atom_site_label
 _atom_site_symmetry_multiplicity
 _atom_site_fract_x
 _atom_site_fract_y
 _atom_site_fract_z
 _atom_site_occupancy
  Cd  Cd0  1  0.125000  0.625000  0.125000  1
  Bi  Bi1  1  0.125000  0.125000  0.125000  1
  Bi  Bi2  1  0.625000  0.125000  0.125000  1
  Bi  Bi3  1  0.125000  0.125000  0.625000  1
  Ru  Ru4  1  0.125000  0.625000  0.625000  1
  Rh  Rh5  1  0.625000  0.625000  0.625000  1
  Rh  Rh6  1  0.625000  0.625000  0.125000  1
  Rh  Rh7  1  0.625000  0.125000  0.625000  1
  O  O8  1  0.247456  0.256066  0.248239  1
  O  O9  1  0.296566  0.707030  0.302792  1
  O  O10  1  0.954784  0.956053  0.544582  1
  O  O11  1  0.538898  0.960717  0.543340  1
  O  O12  1  0.710709  0.705928  0.291682  1
  O  O13  1  0.953434  0.542970  0.556388  1
  O  O14  1  0.711102  0.289283  0.706660  1
  O  O15  1  0.295216  0.293947  0.705418  1
  O  O16  1  0.711102  0.289283  0.292955  1
  O  O17  1  0.296566  0.707030  0.693612  1
  O  O18  1  0.953434  0.542970  0.947208  1
  O  O19  1  0.539291  0.544072  0.958318  1
  O  O20  1  0.002544  0.993934  0.001761  1
  O  O21  1  0.538898  0.960717  0.957045  1
