# generated using pymatgen
data_U2Al20Re2RuRh
_symmetry_space_group_name_H-M   'P 1'
_cell_length_a   6.87944184
_cell_length_b   6.87317079
_cell_length_c   9.14899651
_cell_angle_alpha   89.65407353
_cell_angle_beta   90.68941679
_cell_angle_gamma   97.35862612
_symmetry_Int_Tables_number   1
_chemical_formula_structural   U2Al20Re2RuRh
_chemical_formula_sum   'U2 Al20 Re2 Ru1 Rh1'
_cell_volume   428.99891813
_cell_formula_units_Z   1
loop_
 _symmetry_equiv_pos_site_id
 _symmetry_equiv_pos_as_xyz
  1  'x, y, z'
loop_
 _atom_site_type_symbol
 _atom_site_label
 _atom_site_symmetry_multiplicity
 _atom_site_fract_x
 _atom_site_fract_y
 _atom_site_fract_z
 _atom_site_occupancy
  U  U0  1  0.876648  0.127260  0.742909  1
  U  U1  1  0.123352  0.872740  0.257091  1
  Al  Al2  1  0.777393  0.776006  0.000336  1
  Al  Al3  1  0.778542  0.778495  0.499823  1
  Al  Al4  1  0.222607  0.223994  0.999664  1
  Al  Al5  1  0.221458  0.221505  0.500177  1
  Al  Al6  1  0.623803  0.378699  0.948852  1
  Al  Al7  1  0.376197  0.621301  0.051148  1
  Al  Al8  1  0.623728  0.376784  0.546754  1
  Al  Al9  1  0.376272  0.623216  0.453246  1
  Al  Al10  1  0.843724  0.155420  0.397732  1
  Al  Al11  1  0.156276  0.844580  0.602268  1
  Al  Al12  1  0.845376  0.156145  0.100108  1
  Al  Al13  1  0.154624  0.843855  0.899892  1
  Al  Al14  1  0.410456  0.141806  0.750752  1
  Al  Al15  1  0.140258  0.409266  0.249072  1
  Al  Al16  1  0.589544  0.858194  0.249248  1
  Al  Al17  1  0.859742  0.590734  0.750928  1
  Al  Al18  1  0.521353  0.780357  0.749100  1
  Al  Al19  1  0.781091  0.519766  0.248307  1
  Al  Al20  1  0.478647  0.219643  0.250900  1
  Al  Al21  1  0.218909  0.480234  0.751693  1
  Re  Re22  1  0.500000  0.000000  0.500000  1
  Re  Re23  1  0.000000  0.500000  0.500000  1
  Ru  Ru24  1  0.000000  0.500000  0.000000  1
  Rh  Rh25  1  0.500000  0.000000  0.000000  1
