# generated using pymatgen
data_Na5InCl8
_symmetry_space_group_name_H-M   'P 1'
_cell_length_a   6.97372304
_cell_length_b   6.97372378
_cell_length_c   8.08512800
_cell_angle_alpha   90.00000000
_cell_angle_beta   90.00000000
_cell_angle_gamma   109.43042860
_symmetry_Int_Tables_number   1
_chemical_formula_structural   Na5InCl8
_chemical_formula_sum   'Na5 In1 Cl8'
_cell_volume   370.80814871
_cell_formula_units_Z   1
loop_
 _symmetry_equiv_pos_site_id
 _symmetry_equiv_pos_as_xyz
  1  'x, y, z'
loop_
 _atom_site_type_symbol
 _atom_site_label
 _atom_site_symmetry_multiplicity
 _atom_site_fract_x
 _atom_site_fract_y
 _atom_site_fract_z
 _atom_site_occupancy
  Na  Na0  1  0.500000  0.000000  0.237993  1
  Na  Na1  1  0.000000  0.500000  0.762007  1
  Na  Na2  1  0.500000  0.000000  0.762007  1
  Na  Na3  1  0.000000  0.500000  0.237993  1
  Na  Na4  1  0.500000  0.500000  0.000000  1
  In  In5  1  0.500000  0.500000  0.500000  1
  Cl  Cl6  1  0.276931  0.276931  0.275739  1
  Cl  Cl7  1  0.723069  0.723069  0.275739  1
  Cl  Cl8  1  0.272557  0.727443  0.500000  1
  Cl  Cl9  1  0.276931  0.276931  0.724261  1
  Cl  Cl10  1  0.723069  0.723069  0.724261  1
  Cl  Cl11  1  0.254662  0.745338  0.000000  1
  Cl  Cl12  1  0.727443  0.272557  0.500000  1
  Cl  Cl13  1  0.745338  0.254662  0.000000  1
