# generated using pymatgen
data_CeErTmNi9
_symmetry_space_group_name_H-M   'P 1'
_cell_length_a   4.96781071
_cell_length_b   4.96781168
_cell_length_c   8.64010154
_cell_angle_alpha   73.29251326
_cell_angle_beta   73.29250928
_cell_angle_gamma   60.00000354
_symmetry_Int_Tables_number   1
_chemical_formula_structural   CeErTmNi9
_chemical_formula_sum   'Ce1 Er1 Tm1 Ni9'
_cell_volume   174.19131489
_cell_formula_units_Z   1
loop_
 _symmetry_equiv_pos_site_id
 _symmetry_equiv_pos_as_xyz
  1  'x, y, z'
loop_
 _atom_site_type_symbol
 _atom_site_label
 _atom_site_symmetry_multiplicity
 _atom_site_fract_x
 _atom_site_fract_y
 _atom_site_fract_z
 _atom_site_occupancy
  Ce  Ce0  1  0.999939  0.999939  0.000184  1
  Er  Er1  1  0.140023  0.140023  0.579930  1
  Tm  Tm2  1  0.860060  0.860060  0.419820  1
  Ni  Ni3  1  0.081743  0.584587  0.749084  1
  Ni  Ni4  1  0.584587  0.584587  0.749084  1
  Ni  Ni5  1  0.584587  0.081743  0.749084  1
  Ni  Ni6  1  0.918121  0.415453  0.250973  1
  Ni  Ni7  1  0.415453  0.415453  0.250973  1
  Ni  Ni8  1  0.415453  0.918121  0.250973  1
  Ni  Ni9  1  0.333343  0.333343  0.999971  1
  Ni  Ni10  1  0.666659  0.666659  0.000022  1
  Ni  Ni11  1  0.500033  0.500033  0.499901  1
