# generated using pymatgen
data_MgZn2(MoO4)3
_symmetry_space_group_name_H-M   'P 1'
_cell_length_a   7.08256188
_cell_length_b   8.49507209
_cell_length_c   9.90492306
_cell_angle_alpha   97.08051526
_cell_angle_beta   106.78183415
_cell_angle_gamma   101.85581455
_symmetry_Int_Tables_number   1
_chemical_formula_structural   MgZn2(MoO4)3
_chemical_formula_sum   'Mg2 Zn4 Mo6 O24'
_cell_volume   547.69189881
_cell_formula_units_Z   2
loop_
 _symmetry_equiv_pos_site_id
 _symmetry_equiv_pos_as_xyz
  1  'x, y, z'
loop_
 _atom_site_type_symbol
 _atom_site_label
 _atom_site_symmetry_multiplicity
 _atom_site_fract_x
 _atom_site_fract_y
 _atom_site_fract_z
 _atom_site_occupancy
  Mg  Mg0  1  0.252413  0.695082  0.910053  1
  Mg  Mg1  1  0.747587  0.304918  0.089947  1
  Zn  Zn2  1  0.533654  0.698793  0.485409  1
  Zn  Zn3  1  0.466346  0.301207  0.514591  1
  Zn  Zn4  1  0.967944  0.884077  0.712574  1
  Zn  Zn5  1  0.032056  0.115923  0.287426  1
  Mo  Mo6  1  0.504458  0.986644  0.756517  1
  Mo  Mo7  1  0.495542  0.013356  0.243483  1
  Mo  Mo8  1  0.699341  0.602248  0.838871  1
  Mo  Mo9  1  0.300659  0.397752  0.161129  1
  Mo  Mo10  1  0.978701  0.707619  0.374164  1
  Mo  Mo11  1  0.021299  0.292381  0.625836  1
  O  O12  1  0.264554  0.866085  0.766229  1
  O  O13  1  0.735446  0.133915  0.233771  1
  O  O14  1  0.555364  0.709152  0.919541  1
  O  O15  1  0.444636  0.290848  0.080459  1
  O  O16  1  0.555144  0.517803  0.649950  1
  O  O17  1  0.444856  0.482197  0.350050  1
  O  O18  1  0.552736  0.870427  0.354077  1
  O  O19  1  0.447264  0.129573  0.645923  1
  O  O20  1  0.660599  0.097804  0.927612  1
  O  O21  1  0.339401  0.902196  0.072388  1
  O  O22  1  0.648020  0.859852  0.681100  1
  O  O23  1  0.351980  0.140148  0.318900  1
  O  O24  1  0.022137  0.121133  0.715870  1
  O  O25  1  0.977863  0.878867  0.284130  1
  O  O26  1  0.048498  0.268579  0.143773  1
  O  O27  1  0.951502  0.731421  0.856227  1
  O  O28  1  0.148122  0.477929  0.753222  1
  O  O29  1  0.851878  0.522071  0.246778  1
  O  O30  1  0.142968  0.268156  0.485555  1
  O  O31  1  0.857032  0.731844  0.514445  1
  O  O32  1  0.255402  0.559431  0.071051  1
  O  O33  1  0.744598  0.440569  0.928949  1
  O  O34  1  0.236044  0.707683  0.461076  1
  O  O35  1  0.763956  0.292317  0.538924  1
