# generated using pymatgen
data_Ho5Er3(LuPb3)2
_symmetry_space_group_name_H-M   'P 1'
_cell_length_a   6.53907300
_cell_length_b   8.98757083
_cell_length_c   8.98953400
_cell_angle_alpha   120.00872818
_cell_angle_beta   90.00117407
_cell_angle_gamma   89.99820233
_symmetry_Int_Tables_number   1
_chemical_formula_structural   Ho5Er3(LuPb3)2
_chemical_formula_sum   'Ho5 Er3 Lu2 Pb6'
_cell_volume   457.49686196
_cell_formula_units_Z   1
loop_
 _symmetry_equiv_pos_site_id
 _symmetry_equiv_pos_as_xyz
  1  'x, y, z'
loop_
 _atom_site_type_symbol
 _atom_site_label
 _atom_site_symmetry_multiplicity
 _atom_site_fract_x
 _atom_site_fract_y
 _atom_site_fract_z
 _atom_site_occupancy
  Ho  Ho0  1  0.750347  0.237189  0.999829  1
  Ho  Ho1  1  0.750354  0.762819  0.762631  1
  Ho  Ho2  1  0.750354  0.000025  0.237765  1
  Ho  Ho3  1  0.249675  0.762657  0.999982  1
  Ho  Ho4  1  0.249680  0.237317  0.237307  1
  Er  Er5  1  0.249681  0.000020  0.762732  1
  Er  Er6  1  0.499906  0.333379  0.666648  1
  Er  Er7  1  0.499942  0.666602  0.333236  1
  Lu  Lu8  1  0.000058  0.666614  0.333256  1
  Lu  Lu9  1  0.000077  0.333417  0.666662  1
  Pb  Pb10  1  0.751291  0.604617  0.999962  1
  Pb  Pb11  1  0.751245  0.395418  0.395360  1
  Pb  Pb12  1  0.751272  0.999968  0.604522  1
  Pb  Pb13  1  0.248737  0.394712  0.999572  1
  Pb  Pb14  1  0.248699  0.605236  0.604823  1
  Pb  Pb15  1  0.248685  0.000009  0.395711  1
