# generated using pymatgen
data_MgZr2(NpSb2)5
_symmetry_space_group_name_H-M   'P 1'
_cell_length_a   9.23514600
_cell_length_b   9.29645716
_cell_length_c   6.20311500
_cell_angle_alpha   90.00000000
_cell_angle_beta   90.00000000
_cell_angle_gamma   119.78206715
_symmetry_Int_Tables_number   1
_chemical_formula_structural   MgZr2(NpSb2)5
_chemical_formula_sum   'Mg1 Zr2 Np5 Sb10'
_cell_volume   462.22267432
_cell_formula_units_Z   1
loop_
 _symmetry_equiv_pos_site_id
 _symmetry_equiv_pos_as_xyz
  1  'x, y, z'
loop_
 _atom_site_type_symbol
 _atom_site_label
 _atom_site_symmetry_multiplicity
 _atom_site_fract_x
 _atom_site_fract_y
 _atom_site_fract_z
 _atom_site_occupancy
  Mg  Mg0  1  0.621277  0.000000  0.250000  1
  Zr  Zr1  1  0.001769  0.000000  0.002493  1
  Zr  Zr2  1  0.001769  0.000000  0.497507  1
  Np  Np3  1  0.394143  0.000000  0.750000  1
  Np  Np4  1  0.996770  0.614280  0.250000  1
  Np  Np5  1  0.995897  0.381172  0.750000  1
  Np  Np6  1  0.382490  0.385720  0.250000  1
  Np  Np7  1  0.614725  0.618828  0.750000  1
  Sb  Sb8  1  0.278314  0.000000  0.250000  1
  Sb  Sb9  1  0.733587  0.000000  0.750000  1
  Sb  Sb10  1  0.994875  0.269531  0.250000  1
  Sb  Sb11  1  0.001189  0.729180  0.750000  1
  Sb  Sb12  1  0.725344  0.730469  0.250000  1
  Sb  Sb13  1  0.272009  0.270820  0.750000  1
  Sb  Sb14  1  0.329096  0.665271  0.003066  1
  Sb  Sb15  1  0.663826  0.334729  0.003066  1
  Sb  Sb16  1  0.663826  0.334729  0.496934  1
  Sb  Sb17  1  0.329096  0.665271  0.496934  1
