# generated using pymatgen
data_Ce4Th4TiS17
_symmetry_space_group_name_H-M   'P 1'
_cell_length_a   8.04521064
_cell_length_b   8.04521073
_cell_length_c   10.69443332
_cell_angle_alpha   80.83970782
_cell_angle_beta   80.83970909
_cell_angle_gamma   65.27908766
_symmetry_Int_Tables_number   1
_chemical_formula_structural   Ce4Th4TiS17
_chemical_formula_sum   'Ce4 Th4 Ti1 S17'
_cell_volume   617.42674938
_cell_formula_units_Z   1
loop_
 _symmetry_equiv_pos_site_id
 _symmetry_equiv_pos_as_xyz
  1  'x, y, z'
loop_
 _atom_site_type_symbol
 _atom_site_label
 _atom_site_symmetry_multiplicity
 _atom_site_fract_x
 _atom_site_fract_y
 _atom_site_fract_z
 _atom_site_occupancy
  Ce  Ce0  1  0.813018  0.301162  0.297655  1
  Ce  Ce1  1  0.301162  0.813018  0.297655  1
  Ce  Ce2  1  0.186982  0.698838  0.702345  1
  Ce  Ce3  1  0.698838  0.186982  0.702345  1
  Th  Th4  1  0.206550  0.206550  0.542499  1
  Th  Th5  1  0.793450  0.793450  0.457501  1
  Th  Th6  1  0.681278  0.681278  0.977943  1
  Th  Th7  1  0.318722  0.318722  0.022057  1
  Ti  Ti8  1  0.000000  0.000000  0.000000  1
  S  S9  1  0.824719  0.428804  0.531401  1
  S  S10  1  0.428804  0.824719  0.531401  1
  S  S11  1  0.175281  0.571196  0.468599  1
  S  S12  1  0.571196  0.175281  0.468599  1
  S  S13  1  0.942111  0.319046  0.027961  1
  S  S14  1  0.319046  0.942111  0.027961  1
  S  S15  1  0.057889  0.680954  0.972039  1
  S  S16  1  0.680954  0.057889  0.972039  1
  S  S17  1  0.207428  0.207428  0.276688  1
  S  S18  1  0.792572  0.792572  0.723312  1
  S  S19  1  0.059532  0.059532  0.776408  1
  S  S20  1  0.940468  0.940468  0.223592  1
  S  S21  1  0.304449  0.304449  0.756727  1
  S  S22  1  0.695551  0.695551  0.243273  1
  S  S23  1  0.519582  0.519582  0.835590  1
  S  S24  1  0.480418  0.480418  0.164410  1
  S  S25  1  0.000000  0.000000  0.500000  1
