# generated using pymatgen
data_Pr20GaSi10Hg
_symmetry_space_group_name_H-M   'P 1'
_cell_length_a   7.82421400
_cell_length_b   7.82421400
_cell_length_c   14.71062700
_cell_angle_alpha   90.00000000
_cell_angle_beta   90.00000000
_cell_angle_gamma   90.00000000
_symmetry_Int_Tables_number   1
_chemical_formula_structural   Pr20GaSi10Hg
_chemical_formula_sum   'Pr20 Ga1 Si10 Hg1'
_cell_volume   900.55994049
_cell_formula_units_Z   1
loop_
 _symmetry_equiv_pos_site_id
 _symmetry_equiv_pos_as_xyz
  1  'x, y, z'
loop_
 _atom_site_type_symbol
 _atom_site_label
 _atom_site_symmetry_multiplicity
 _atom_site_fract_x
 _atom_site_fract_y
 _atom_site_fract_z
 _atom_site_occupancy
  Pr  Pr0  1  0.813023  0.826586  0.604044  1
  Pr  Pr1  1  0.180916  0.824130  0.113284  1
  Pr  Pr2  1  0.174024  0.813249  0.395898  1
  Pr  Pr3  1  0.000000  0.500000  0.724725  1
  Pr  Pr4  1  0.825976  0.186751  0.395898  1
  Pr  Pr5  1  0.686751  0.674024  0.395898  1
  Pr  Pr6  1  0.673414  0.313023  0.604044  1
  Pr  Pr7  1  0.326586  0.686977  0.604044  1
  Pr  Pr8  1  0.000000  0.500000  0.237548  1
  Pr  Pr9  1  0.675870  0.680916  0.113284  1
  Pr  Pr10  1  0.689758  0.334784  0.886039  1
  Pr  Pr11  1  0.834784  0.810242  0.886039  1
  Pr  Pr12  1  0.313249  0.325976  0.395898  1
  Pr  Pr13  1  0.186977  0.173414  0.604044  1
  Pr  Pr14  1  0.819084  0.175870  0.113284  1
  Pr  Pr15  1  0.310242  0.665216  0.886039  1
  Pr  Pr16  1  0.324130  0.319084  0.113284  1
  Pr  Pr17  1  0.500000  0.000000  0.271457  1
  Pr  Pr18  1  0.165216  0.189758  0.886039  1
  Pr  Pr19  1  0.500000  0.000000  0.769617  1
  Ga  Ga20  1  0.000000  0.500000  0.008937  1
  Si  Si21  1  0.612655  0.386342  0.255602  1
  Si  Si22  1  0.114438  0.887334  0.743544  1
  Si  Si23  1  0.387334  0.385562  0.743544  1
  Si  Si24  1  0.387345  0.613658  0.255602  1
  Si  Si25  1  0.886342  0.887345  0.255602  1
  Si  Si26  1  0.612666  0.614438  0.743544  1
  Si  Si27  1  0.000000  0.500000  0.507017  1
  Si  Si28  1  0.885562  0.112666  0.743544  1
  Si  Si29  1  0.500000  0.000000  0.491033  1
  Si  Si30  1  0.113658  0.112655  0.255602  1
  Hg  Hg31  1  0.500000  0.000000  0.996024  1
