# generated using pymatgen
data_Np4As6Ru7
_symmetry_space_group_name_H-M   'P 1'
_cell_length_a   7.25532285
_cell_length_b   7.23579947
_cell_length_c   7.23691969
_cell_angle_alpha   109.38296744
_cell_angle_beta   109.49783511
_cell_angle_gamma   109.48512082
_symmetry_Int_Tables_number   1
_chemical_formula_structural   Np4As6Ru7
_chemical_formula_sum   'Np4 As6 Ru7'
_cell_volume   292.63774246
_cell_formula_units_Z   1
loop_
 _symmetry_equiv_pos_site_id
 _symmetry_equiv_pos_as_xyz
  1  'x, y, z'
loop_
 _atom_site_type_symbol
 _atom_site_label
 _atom_site_symmetry_multiplicity
 _atom_site_fract_x
 _atom_site_fract_y
 _atom_site_fract_z
 _atom_site_occupancy
  Np  Np0  1  0.000004  0.000004  0.500003  1
  Np  Np1  1  0.499999  0.000000  0.999997  1
  Np  Np2  1  0.999996  0.499998  0.999997  1
  Np  Np3  1  0.500000  0.499998  0.500003  1
  As  As4  1  0.311144  0.000076  0.311062  1
  As  As5  1  0.999977  0.311041  0.311061  1
  As  As6  1  0.000024  0.688960  0.688939  1
  As  As7  1  0.311148  0.311048  0.000054  1
  As  As8  1  0.688851  0.688950  0.999944  1
  As  As9  1  0.688856  0.999926  0.688940  1
  Ru  Ru10  1  0.749943  0.499946  0.250053  1
  Ru  Ru11  1  0.500117  0.750053  0.250088  1
  Ru  Ru12  1  0.499883  0.249948  0.749911  1
  Ru  Ru13  1  0.749937  0.249983  0.499889  1
  Ru  Ru14  1  0.250064  0.750021  0.500115  1
  Ru  Ru15  1  0.250057  0.500051  0.749943  1
  Ru  Ru16  1  0.000000  0.000000  0.000000  1
