# generated using pymatgen
data_AcSmNpO6
_symmetry_space_group_name_H-M   'P 1'
_cell_length_a   5.75385200
_cell_length_b   8.05970140
_cell_length_c   12.10050400
_cell_angle_alpha   74.86671266
_cell_angle_beta   90.00000000
_cell_angle_gamma   90.00000000
_symmetry_Int_Tables_number   1
_chemical_formula_structural   AcSmNpO6
_chemical_formula_sum   'Ac4 Sm4 Np4 O24'
_cell_volume   541.69260602
_cell_formula_units_Z   4
loop_
 _symmetry_equiv_pos_site_id
 _symmetry_equiv_pos_as_xyz
  1  'x, y, z'
loop_
 _atom_site_type_symbol
 _atom_site_label
 _atom_site_symmetry_multiplicity
 _atom_site_fract_x
 _atom_site_fract_y
 _atom_site_fract_z
 _atom_site_occupancy
  Ac  Ac0  1  0.744284  0.000000  0.750000  1
  Ac  Ac1  1  0.255716  0.000000  0.250000  1
  Ac  Ac2  1  0.692389  0.500000  0.750000  1
  Ac  Ac3  1  0.307611  0.500000  0.250000  1
  Sm  Sm4  1  0.187970  0.792948  0.580070  1
  Sm  Sm5  1  0.812030  0.792948  0.080070  1
  Sm  Sm6  1  0.187970  0.207052  0.919930  1
  Sm  Sm7  1  0.812030  0.207052  0.419930  1
  Np  Np8  1  0.250968  0.720432  0.889848  1
  Np  Np9  1  0.749032  0.720432  0.389848  1
  Np  Np10  1  0.250968  0.279568  0.610152  1
  Np  Np11  1  0.749032  0.279568  0.110152  1
  O  O12  1  0.057979  0.937739  0.902889  1
  O  O13  1  0.541538  0.838747  0.938361  1
  O  O14  1  0.942021  0.937739  0.402889  1
  O  O15  1  0.437214  0.790120  0.732407  1
  O  O16  1  0.458462  0.838747  0.438361  1
  O  O17  1  0.979512  0.718647  0.768650  1
  O  O18  1  0.562786  0.790120  0.232407  1
  O  O19  1  0.879674  0.629945  0.551233  1
  O  O20  1  0.367932  0.485648  0.890321  1
  O  O21  1  0.020488  0.718647  0.268650  1
  O  O22  1  0.367932  0.514352  0.609679  1
  O  O23  1  0.879674  0.370055  0.948767  1
  O  O24  1  0.120326  0.629945  0.051233  1
  O  O25  1  0.632068  0.485648  0.390321  1
  O  O26  1  0.979512  0.281353  0.731350  1
  O  O27  1  0.632068  0.514352  0.109679  1
  O  O28  1  0.120326  0.370055  0.448767  1
  O  O29  1  0.437214  0.209880  0.767593  1
  O  O30  1  0.020488  0.281353  0.231350  1
  O  O31  1  0.541538  0.161253  0.561639  1
  O  O32  1  0.562786  0.209880  0.267593  1
  O  O33  1  0.057979  0.062261  0.597111  1
  O  O34  1  0.458462  0.161253  0.061639  1
  O  O35  1  0.942021  0.062261  0.097111  1
