# generated using pymatgen
data_Gd8Ag3BrO20
_symmetry_space_group_name_H-M   'P 1'
_cell_length_a   8.55890700
_cell_length_b   8.55890700
_cell_length_c   5.88186500
_cell_angle_alpha   90.00000000
_cell_angle_beta   90.00000000
_cell_angle_gamma   90.00000000
_symmetry_Int_Tables_number   1
_chemical_formula_structural   Gd8Ag3BrO20
_chemical_formula_sum   'Gd8 Ag3 Br1 O20'
_cell_volume   430.87536789
_cell_formula_units_Z   1
loop_
 _symmetry_equiv_pos_site_id
 _symmetry_equiv_pos_as_xyz
  1  'x, y, z'
loop_
 _atom_site_type_symbol
 _atom_site_label
 _atom_site_symmetry_multiplicity
 _atom_site_fract_x
 _atom_site_fract_y
 _atom_site_fract_z
 _atom_site_occupancy
  Gd  Gd0  1  0.346120  0.357671  0.241827  1
  Gd  Gd1  1  0.857671  0.153880  0.241827  1
  Gd  Gd2  1  0.142329  0.846120  0.241827  1
  Gd  Gd3  1  0.653880  0.642329  0.241827  1
  Gd  Gd4  1  0.851961  0.849136  0.756607  1
  Gd  Gd5  1  0.349136  0.648039  0.756607  1
  Gd  Gd6  1  0.650864  0.351961  0.756607  1
  Gd  Gd7  1  0.148039  0.150864  0.756607  1
  Ag  Ag8  1  0.000000  0.500000  0.089834  1
  Ag  Ag9  1  0.500000  0.000000  0.934438  1
  Ag  Ag10  1  0.000000  0.500000  0.587105  1
  Br  Br11  1  0.500000  0.000000  0.458743  1
  O  O12  1  0.000000  0.000000  0.997537  1
  O  O13  1  0.500000  0.500000  0.997537  1
  O  O14  1  0.000000  0.000000  0.497690  1
  O  O15  1  0.500000  0.500000  0.497690  1
  O  O16  1  0.283572  0.906844  0.897111  1
  O  O17  1  0.406844  0.216428  0.897111  1
  O  O18  1  0.593156  0.783572  0.897111  1
  O  O19  1  0.716428  0.093156  0.897111  1
  O  O20  1  0.216352  0.594399  0.103984  1
  O  O21  1  0.094399  0.283648  0.103984  1
  O  O22  1  0.905601  0.716352  0.103984  1
  O  O23  1  0.783648  0.405601  0.103984  1
  O  O24  1  0.904503  0.283505  0.601683  1
  O  O25  1  0.783505  0.595497  0.601683  1
  O  O26  1  0.216495  0.404503  0.601683  1
  O  O27  1  0.095497  0.716495  0.601683  1
  O  O28  1  0.579815  0.193713  0.383645  1
  O  O29  1  0.693713  0.920185  0.383645  1
  O  O30  1  0.306287  0.079815  0.383645  1
  O  O31  1  0.420185  0.806287  0.383645  1
