# generated using pymatgen
data_Li2TbHoSi3
_symmetry_space_group_name_H-M   'P 1'
_cell_length_a   9.27462786
_cell_length_b   9.27462776
_cell_length_c   6.70516600
_cell_angle_alpha   90.00000000
_cell_angle_beta   90.00000000
_cell_angle_gamma   153.56358914
_symmetry_Int_Tables_number   1
_chemical_formula_structural   Li2TbHoSi3
_chemical_formula_sum   'Li4 Tb2 Ho2 Si6'
_cell_volume   256.78039943
_cell_formula_units_Z   2
loop_
 _symmetry_equiv_pos_site_id
 _symmetry_equiv_pos_as_xyz
  1  'x, y, z'
loop_
 _atom_site_type_symbol
 _atom_site_label
 _atom_site_symmetry_multiplicity
 _atom_site_fract_x
 _atom_site_fract_y
 _atom_site_fract_z
 _atom_site_occupancy
  Li  Li0  1  0.190281  0.809719  0.059925  1
  Li  Li1  1  0.190281  0.809719  0.440075  1
  Li  Li2  1  0.809719  0.190281  0.940075  1
  Li  Li3  1  0.809719  0.190281  0.559925  1
  Tb  Tb4  1  0.552980  0.447020  0.250000  1
  Tb  Tb5  1  0.447020  0.552980  0.750000  1
  Ho  Ho6  1  0.344954  0.655046  0.250000  1
  Ho  Ho7  1  0.655046  0.344954  0.750000  1
  Si  Si8  1  0.721384  0.278616  0.250000  1
  Si  Si9  1  0.278616  0.721384  0.750000  1
  Si  Si10  1  0.059404  0.940596  0.926984  1
  Si  Si11  1  0.940596  0.059404  0.073016  1
  Si  Si12  1  0.940596  0.059404  0.426984  1
  Si  Si13  1  0.059404  0.940596  0.573016  1
