# generated using pymatgen
data_YZrReB6
_symmetry_space_group_name_H-M   'P 1'
_cell_length_a   3.61511800
_cell_length_b   9.04374300
_cell_length_c   11.43344600
_cell_angle_alpha   90.00000000
_cell_angle_beta   90.00000000
_cell_angle_gamma   90.00000000
_symmetry_Int_Tables_number   1
_chemical_formula_structural   YZrReB6
_chemical_formula_sum   'Y4 Zr4 Re4 B24'
_cell_volume   373.80734857
_cell_formula_units_Z   4
loop_
 _symmetry_equiv_pos_site_id
 _symmetry_equiv_pos_as_xyz
  1  'x, y, z'
loop_
 _atom_site_type_symbol
 _atom_site_label
 _atom_site_symmetry_multiplicity
 _atom_site_fract_x
 _atom_site_fract_y
 _atom_site_fract_z
 _atom_site_occupancy
  Y  Y0  1  0.000000  0.322578  0.414001  1
  Y  Y1  1  0.000000  0.677422  0.585999  1
  Y  Y2  1  0.000000  0.822578  0.085999  1
  Y  Y3  1  0.000000  0.177422  0.914001  1
  Zr  Zr4  1  0.000000  0.944838  0.372364  1
  Zr  Zr5  1  0.000000  0.055162  0.627636  1
  Zr  Zr6  1  0.000000  0.444838  0.127636  1
  Zr  Zr7  1  0.000000  0.555162  0.872364  1
  Re  Re8  1  0.000000  0.639935  0.318103  1
  Re  Re9  1  0.000000  0.360065  0.681897  1
  Re  Re10  1  0.000000  0.139935  0.181897  1
  Re  Re11  1  0.000000  0.860065  0.818103  1
  B  B12  1  0.500000  0.554259  0.433072  1
  B  B13  1  0.500000  0.445741  0.566928  1
  B  B14  1  0.500000  0.054259  0.066928  1
  B  B15  1  0.500000  0.945741  0.933072  1
  B  B16  1  0.500000  0.751715  0.418061  1
  B  B17  1  0.500000  0.248285  0.581939  1
  B  B18  1  0.500000  0.251715  0.081939  1
  B  B19  1  0.500000  0.748285  0.918061  1
  B  B20  1  0.500000  0.794316  0.264531  1
  B  B21  1  0.500000  0.205684  0.735469  1
  B  B22  1  0.500000  0.294316  0.235469  1
  B  B23  1  0.500000  0.705684  0.764531  1
  B  B24  1  0.500000  0.630433  0.183616  1
  B  B25  1  0.500000  0.369567  0.816384  1
  B  B26  1  0.500000  0.130433  0.316384  1
  B  B27  1  0.500000  0.869567  0.683616  1
  B  B28  1  0.500000  0.982249  0.213365  1
  B  B29  1  0.500000  0.017751  0.786635  1
  B  B30  1  0.500000  0.482249  0.286635  1
  B  B31  1  0.500000  0.517751  0.713365  1
  B  B32  1  0.500000  0.600617  0.026964  1
  B  B33  1  0.500000  0.399383  0.973036  1
  B  B34  1  0.500000  0.100617  0.473036  1
  B  B35  1  0.500000  0.899383  0.526964  1
