# generated using pymatgen
data_Tb11HoB2(CCl6)2
_symmetry_space_group_name_H-M   'P 1'
_cell_length_a   9.35947051
_cell_length_b   9.36062267
_cell_length_c   9.43471675
_cell_angle_alpha   109.48743731
_cell_angle_beta   109.49438732
_cell_angle_gamma   109.10827331
_symmetry_Int_Tables_number   1
_chemical_formula_structural   Tb11HoB2(CCl6)2
_chemical_formula_sum   'Tb11 Ho1 B2 C2 Cl12'
_cell_volume   638.82269782
_cell_formula_units_Z   1
loop_
 _symmetry_equiv_pos_site_id
 _symmetry_equiv_pos_as_xyz
  1  'x, y, z'
loop_
 _atom_site_type_symbol
 _atom_site_label
 _atom_site_symmetry_multiplicity
 _atom_site_fract_x
 _atom_site_fract_y
 _atom_site_fract_z
 _atom_site_occupancy
  Tb  Tb0  1  0.743444  0.231935  0.263946  1
  Tb  Tb1  1  0.744523  0.014458  0.479724  1
  Tb  Tb2  1  0.235252  0.465257  0.479750  1
  Tb  Tb3  1  0.268124  0.756681  0.236016  1
  Tb  Tb4  1  0.035064  0.264954  0.020507  1
  Tb  Tb5  1  0.020832  0.032208  0.263965  1
  Tb  Tb6  1  0.485783  0.755665  0.020586  1
  Tb  Tb7  1  0.481415  0.231340  0.462641  1
  Tb  Tb8  1  0.014243  0.485879  0.750152  1
  Tb  Tb9  1  0.268778  0.018702  0.037524  1
  Tb  Tb10  1  0.235970  0.264080  0.749940  1
  Ho  Ho11  1  0.465633  0.478109  0.234947  1
  B  B12  1  0.999610  0.249535  0.498944  1
  B  B13  1  0.251563  0.500552  0.002224  1
  C  C14  1  0.251194  0.251680  0.250001  1
  C  C15  1  0.500244  0.999645  0.249926  1
  Cl  Cl16  1  0.252179  0.758972  0.746436  1
  Cl  Cl17  1  0.512593  0.505767  0.753605  1
  Cl  Cl18  1  0.988053  0.745990  0.994078  1
  Cl  Cl19  1  0.741057  0.247833  0.753614  1
  Cl  Cl20  1  0.994309  0.987501  0.746468  1
  Cl  Cl21  1  0.251981  0.993958  0.505987  1
  Cl  Cl22  1  0.752551  0.511960  0.504367  1
  Cl  Cl23  1  0.506243  0.249671  0.995708  1
  Cl  Cl24  1  0.754556  0.743546  0.250198  1
  Cl  Cl25  1  0.744150  0.994177  0.988265  1
  Cl  Cl26  1  0.994610  0.505469  0.249995  1
  Cl  Cl27  1  0.506048  0.754471  0.510487  1
