# generated using pymatgen
data_TbHo4In3Br
_symmetry_space_group_name_H-M   'P 1'
_cell_length_a   9.17306800
_cell_length_b   9.17115595
_cell_length_c   6.74312700
_cell_angle_alpha   90.00000000
_cell_angle_beta   90.00000000
_cell_angle_gamma   120.00689686
_symmetry_Int_Tables_number   1
_chemical_formula_structural   TbHo4In3Br
_chemical_formula_sum   'Tb2 Ho8 In6 Br2'
_cell_volume   491.24763880
_cell_formula_units_Z   2
loop_
 _symmetry_equiv_pos_site_id
 _symmetry_equiv_pos_as_xyz
  1  'x, y, z'
loop_
 _atom_site_type_symbol
 _atom_site_label
 _atom_site_symmetry_multiplicity
 _atom_site_fract_x
 _atom_site_fract_y
 _atom_site_fract_z
 _atom_site_occupancy
  Tb  Tb0  1  0.733916  0.733939  0.250000  1
  Tb  Tb1  1  0.000023  0.733939  0.750000  1
  Ho  Ho2  1  0.733719  0.000047  0.750000  1
  Ho  Ho3  1  0.333246  0.666493  0.500000  1
  Ho  Ho4  1  0.266405  0.266413  0.750000  1
  Ho  Ho5  1  0.000008  0.266413  0.250000  1
  Ho  Ho6  1  0.666449  0.332897  0.500000  1
  Ho  Ho7  1  0.266328  0.000047  0.250000  1
  Ho  Ho8  1  0.333246  0.666493  0.000000  1
  Ho  Ho9  1  0.666449  0.332897  0.000000  1
  In  In10  1  0.393708  0.000459  0.750000  1
  In  In11  1  0.000517  0.606667  0.250000  1
  In  In12  1  0.606751  0.000459  0.250000  1
  In  In13  1  0.999965  0.392418  0.750000  1
  In  In14  1  0.392453  0.392418  0.250000  1
  In  In15  1  0.606150  0.606667  0.750000  1
  Br  Br16  1  0.000334  0.000668  0.500000  1
  Br  Br17  1  0.000334  0.000668  0.000000  1
