# generated using pymatgen
data_CeSm2Dy7(SiB4)4
_symmetry_space_group_name_H-M   'P 1'
_cell_length_a   7.25361612
_cell_length_b   7.25361602
_cell_length_c   8.17653858
_cell_angle_alpha   90.02773005
_cell_angle_beta   90.02773167
_cell_angle_gamma   90.07848109
_symmetry_Int_Tables_number   1
_chemical_formula_structural   CeSm2Dy7(SiB4)4
_chemical_formula_sum   'Ce1 Sm2 Dy7 Si4 B16'
_cell_volume   430.20763275
_cell_formula_units_Z   1
loop_
 _symmetry_equiv_pos_site_id
 _symmetry_equiv_pos_as_xyz
  1  'x, y, z'
loop_
 _atom_site_type_symbol
 _atom_site_label
 _atom_site_symmetry_multiplicity
 _atom_site_fract_x
 _atom_site_fract_y
 _atom_site_fract_z
 _atom_site_occupancy
  Ce  Ce0  1  0.317727  0.817727  0.230609  1
  Sm  Sm1  1  0.680481  0.180481  0.227113  1
  Sm  Sm2  1  0.319293  0.819293  0.772160  1
  Dy  Dy3  1  0.819586  0.680695  0.221140  1
  Dy  Dy4  1  0.819060  0.680401  0.778536  1
  Dy  Dy5  1  0.681197  0.181197  0.778030  1
  Dy  Dy6  1  0.180401  0.319060  0.778536  1
  Dy  Dy7  1  0.180695  0.319586  0.221140  1
  Dy  Dy8  1  0.998618  0.001272  0.500537  1
  Dy  Dy9  1  0.501272  0.498618  0.500537  1
  Si  Si10  1  0.113370  0.613370  0.498178  1
  Si  Si11  1  0.885251  0.385251  0.504799  1
  Si  Si12  1  0.384977  0.115320  0.499834  1
  Si  Si13  1  0.615320  0.884977  0.499834  1
  B  B14  1  0.172189  0.039604  0.999488  1
  B  B15  1  0.827566  0.960836  0.999006  1
  B  B16  1  0.960725  0.172681  0.999099  1
  B  B17  1  0.328304  0.538852  0.999324  1
  B  B18  1  0.038852  0.828304  0.999324  1
  B  B19  1  0.672681  0.460725  0.999099  1
  B  B20  1  0.539604  0.672189  0.999488  1
  B  B21  1  0.460836  0.327566  0.999006  1
  B  B22  1  0.090211  0.590211  0.000703  1
  B  B23  1  0.910091  0.410091  0.999574  1
  B  B24  1  0.409777  0.090738  0.999314  1
  B  B25  1  0.590738  0.909777  0.999314  1
  B  B26  1  0.001810  0.000168  0.159619  1
  B  B27  1  0.998271  0.000930  0.838521  1
  B  B28  1  0.500930  0.498271  0.838521  1
  B  B29  1  0.500168  0.501810  0.159619  1
