# generated using pymatgen
data_Er2B8IrPt
_symmetry_space_group_name_H-M   'P 1'
_cell_length_a   7.01042349
_cell_length_b   7.01042359
_cell_length_c   7.01795146
_cell_angle_alpha   111.63298905
_cell_angle_beta   111.63299586
_cell_angle_gamma   105.18214508
_symmetry_Int_Tables_number   1
_chemical_formula_structural   Er2B8IrPt
_chemical_formula_sum   'Er4 B16 Ir2 Pt2'
_cell_volume   264.56843670
_cell_formula_units_Z   2
loop_
 _symmetry_equiv_pos_site_id
 _symmetry_equiv_pos_as_xyz
  1  'x, y, z'
loop_
 _atom_site_type_symbol
 _atom_site_label
 _atom_site_symmetry_multiplicity
 _atom_site_fract_x
 _atom_site_fract_y
 _atom_site_fract_z
 _atom_site_occupancy
  Er  Er0  1  0.245993  0.745993  0.491987  1
  Er  Er1  1  0.745993  0.245993  0.491987  1
  Er  Er2  1  0.792502  0.792502  0.010640  1
  Er  Er3  1  0.218139  0.218139  0.010640  1
  B  B4  1  0.107225  0.107225  0.519604  1
  B  B5  1  0.584523  0.584523  0.473385  1
  B  B6  1  0.888863  0.888863  0.473385  1
  B  B7  1  0.587082  0.110735  0.002903  1
  B  B8  1  0.110735  0.587082  0.002903  1
  B  B9  1  0.892168  0.415821  0.002903  1
  B  B10  1  0.415821  0.892168  0.002903  1
  B  B11  1  0.412379  0.412379  0.519604  1
  B  B12  1  0.106233  0.263102  0.369335  1
  B  B13  1  0.263973  0.893486  0.157458  1
  B  B14  1  0.737867  0.106670  0.844538  1
  B  B15  1  0.106670  0.737867  0.844538  1
  B  B16  1  0.893486  0.263973  0.157458  1
  B  B17  1  0.892797  0.734960  0.627757  1
  B  B18  1  0.734960  0.892797  0.627757  1
  B  B19  1  0.263102  0.106233  0.369335  1
  Ir  Ir20  1  0.500103  0.742247  0.242349  1
  Ir  Ir21  1  0.742247  0.500103  0.242349  1
  Pt  Pt22  1  0.256773  0.500367  0.757141  1
  Pt  Pt23  1  0.500367  0.256773  0.757141  1
