# generated using pymatgen
data_Er6Mn2Al24AgPd2Ru3
_symmetry_space_group_name_H-M   'P 1'
_cell_length_a   8.81230002
_cell_length_b   8.77005163
_cell_length_c   9.47947700
_cell_angle_alpha   90.16244619
_cell_angle_beta   90.00416115
_cell_angle_gamma   119.70000811
_symmetry_Int_Tables_number   1
_chemical_formula_structural   Er6Mn2Al24AgPd2Ru3
_chemical_formula_sum   'Er6 Mn2 Al24 Ag1 Pd2 Ru3'
_cell_volume   636.36894112
_cell_formula_units_Z   1
loop_
 _symmetry_equiv_pos_site_id
 _symmetry_equiv_pos_as_xyz
  1  'x, y, z'
loop_
 _atom_site_type_symbol
 _atom_site_label
 _atom_site_symmetry_multiplicity
 _atom_site_fract_x
 _atom_site_fract_y
 _atom_site_fract_z
 _atom_site_occupancy
  Er  Er0  1  0.188933  0.386038  0.251855  1
  Er  Er1  1  0.811067  0.613962  0.748145  1
  Er  Er2  1  0.617179  0.810519  0.250451  1
  Er  Er3  1  0.382821  0.189481  0.749549  1
  Er  Er4  1  0.191544  0.803529  0.249457  1
  Er  Er5  1  0.808456  0.196471  0.750543  1
  Mn  Mn6  1  0.000000  0.000000  0.000000  1
  Mn  Mn7  1  0.000000  0.000000  0.500000  1
  Al  Al8  1  0.328187  0.663620  0.025115  1
  Al  Al9  1  0.671813  0.336380  0.974885  1
  Al  Al10  1  0.671782  0.327732  0.524100  1
  Al  Al11  1  0.328218  0.672268  0.475900  1
  Al  Al12  1  0.148896  0.315603  0.578297  1
  Al  Al13  1  0.851104  0.684397  0.421703  1
  Al  Al14  1  0.685155  0.852595  0.578696  1
  Al  Al15  1  0.846182  0.682547  0.076287  1
  Al  Al16  1  0.314845  0.147405  0.421304  1
  Al  Al17  1  0.153818  0.317453  0.923713  1
  Al  Al18  1  0.160540  0.839780  0.577058  1
  Al  Al19  1  0.314876  0.157498  0.078767  1
  Al  Al20  1  0.839460  0.160220  0.422942  1
  Al  Al21  1  0.685124  0.842502  0.921233  1
  Al  Al22  1  0.845364  0.164687  0.077669  1
  Al  Al23  1  0.154636  0.835313  0.922331  1
  Al  Al24  1  0.562619  0.124919  0.253063  1
  Al  Al25  1  0.437381  0.875081  0.746937  1
  Al  Al26  1  0.876243  0.438118  0.249385  1
  Al  Al27  1  0.123757  0.561882  0.750615  1
  Al  Al28  1  0.564920  0.436134  0.244898  1
  Al  Al29  1  0.435080  0.563866  0.755102  1
  Al  Al30  1  0.998422  0.000072  0.249936  1
  Al  Al31  1  0.001578  0.999928  0.750064  1
  Ag  Ag32  1  0.500000  0.500000  0.500000  1
  Pd  Pd33  1  0.500000  0.000000  0.000000  1
  Pd  Pd34  1  0.500000  0.500000  0.000000  1
  Ru  Ru35  1  0.000000  0.500000  0.000000  1
  Ru  Ru36  1  0.500000  0.000000  0.500000  1
  Ru  Ru37  1  0.000000  0.500000  0.500000  1
