# generated using pymatgen
data_Ba4Dy(TcO6)2
_symmetry_space_group_name_H-M   'P 1'
_cell_length_a   10.10627604
_cell_length_b   10.10627630
_cell_length_c   10.10627744
_cell_angle_alpha   33.89317047
_cell_angle_beta   33.89316941
_cell_angle_gamma   33.89317781
_symmetry_Int_Tables_number   1
_chemical_formula_structural   Ba4Dy(TcO6)2
_chemical_formula_sum   'Ba4 Dy1 Tc2 O12'
_cell_volume   286.07172307
_cell_formula_units_Z   1
loop_
 _symmetry_equiv_pos_site_id
 _symmetry_equiv_pos_as_xyz
  1  'x, y, z'
loop_
 _atom_site_type_symbol
 _atom_site_label
 _atom_site_symmetry_multiplicity
 _atom_site_fract_x
 _atom_site_fract_y
 _atom_site_fract_z
 _atom_site_occupancy
  Ba  Ba0  1  0.710859  0.710859  0.710859  1
  Ba  Ba1  1  0.289141  0.289141  0.289141  1
  Ba  Ba2  1  0.867262  0.867262  0.867262  1
  Ba  Ba3  1  0.132738  0.132738  0.132738  1
  Dy  Dy4  1  0.000000  0.000000  0.000000  1
  Tc  Tc5  1  0.577795  0.577795  0.577795  1
  Tc  Tc6  1  0.422205  0.422205  0.422205  1
  O  O7  1  0.224072  0.687680  0.224072  1
  O  O8  1  0.224072  0.224072  0.687680  1
  O  O9  1  0.687680  0.224072  0.224072  1
  O  O10  1  0.775928  0.312320  0.775928  1
  O  O11  1  0.775928  0.775928  0.312320  1
  O  O12  1  0.312320  0.775928  0.775928  1
  O  O13  1  0.388382  0.857751  0.388382  1
  O  O14  1  0.388382  0.388382  0.857751  1
  O  O15  1  0.857751  0.388382  0.388382  1
  O  O16  1  0.611618  0.142249  0.611618  1
  O  O17  1  0.611618  0.611618  0.142249  1
  O  O18  1  0.142249  0.611618  0.611618  1
