# generated using pymatgen
data_Dy5GaSiB8
_symmetry_space_group_name_H-M   'P 1'
_cell_length_a   7.24476708
_cell_length_b   7.24476708
_cell_length_c   8.15923200
_cell_angle_alpha   90.00000000
_cell_angle_beta   90.00000000
_cell_angle_gamma   89.69847734
_symmetry_Int_Tables_number   1
_chemical_formula_structural   Dy5GaSiB8
_chemical_formula_sum   'Dy10 Ga2 Si2 B16'
_cell_volume   428.24482452
_cell_formula_units_Z   2
loop_
 _symmetry_equiv_pos_site_id
 _symmetry_equiv_pos_as_xyz
  1  'x, y, z'
loop_
 _atom_site_type_symbol
 _atom_site_label
 _atom_site_symmetry_multiplicity
 _atom_site_fract_x
 _atom_site_fract_y
 _atom_site_fract_z
 _atom_site_occupancy
  Dy  Dy0  1  0.679341  0.179341  0.223392  1
  Dy  Dy1  1  0.320659  0.820659  0.776608  1
  Dy  Dy2  1  0.320659  0.820659  0.223392  1
  Dy  Dy3  1  0.815940  0.684060  0.219124  1
  Dy  Dy4  1  0.815940  0.684060  0.780876  1
  Dy  Dy5  1  0.679341  0.179341  0.776608  1
  Dy  Dy6  1  0.184060  0.315940  0.780876  1
  Dy  Dy7  1  0.184060  0.315940  0.219124  1
  Dy  Dy8  1  0.000000  0.000000  0.500000  1
  Dy  Dy9  1  0.500000  0.500000  0.500000  1
  Ga  Ga10  1  0.117365  0.617365  0.500000  1
  Ga  Ga11  1  0.882635  0.382635  0.500000  1
  Si  Si12  1  0.384345  0.115655  0.500000  1
  Si  Si13  1  0.615655  0.884345  0.500000  1
  B  B14  1  0.171804  0.039374  0.000000  1
  B  B15  1  0.828196  0.960626  0.000000  1
  B  B16  1  0.959653  0.172120  0.000000  1
  B  B17  1  0.327880  0.540347  0.000000  1
  B  B18  1  0.040347  0.827880  0.000000  1
  B  B19  1  0.672120  0.459653  0.000000  1
  B  B20  1  0.539374  0.671804  0.000000  1
  B  B21  1  0.460626  0.328196  0.000000  1
  B  B22  1  0.090810  0.590810  0.000000  1
  B  B23  1  0.909190  0.409190  0.000000  1
  B  B24  1  0.408608  0.091392  0.000000  1
  B  B25  1  0.591392  0.908608  0.000000  1
  B  B26  1  0.000000  0.000000  0.161477  1
  B  B27  1  0.000000  0.000000  0.838523  1
  B  B28  1  0.500000  0.500000  0.838523  1
  B  B29  1  0.500000  0.500000  0.161477  1
