# generated using pymatgen
data_Er3Pu7(Ge3C)2
_symmetry_space_group_name_H-M   'P 1'
_cell_length_a   8.68835800
_cell_length_b   8.68835685
_cell_length_c   5.93186300
_cell_angle_alpha   90.00000000
_cell_angle_beta   90.00000000
_cell_angle_gamma   119.99999675
_symmetry_Int_Tables_number   1
_chemical_formula_structural   Er3Pu7(Ge3C)2
_chemical_formula_sum   'Er3 Pu7 Ge6 C2'
_cell_volume   387.79045561
_cell_formula_units_Z   1
loop_
 _symmetry_equiv_pos_site_id
 _symmetry_equiv_pos_as_xyz
  1  'x, y, z'
loop_
 _atom_site_type_symbol
 _atom_site_label
 _atom_site_symmetry_multiplicity
 _atom_site_fract_x
 _atom_site_fract_y
 _atom_site_fract_z
 _atom_site_occupancy
  Er  Er0  1  0.227584  0.227584  0.250000  1
  Er  Er1  1  0.772416  0.000000  0.250000  1
  Er  Er2  1  0.000000  0.772416  0.250000  1
  Pu  Pu3  1  0.666667  0.333333  0.999438  1
  Pu  Pu4  1  0.333333  0.666667  0.999438  1
  Pu  Pu5  1  0.333333  0.666667  0.500562  1
  Pu  Pu6  1  0.666667  0.333333  0.500562  1
  Pu  Pu7  1  0.778232  0.778232  0.750000  1
  Pu  Pu8  1  0.221768  0.000000  0.750000  1
  Pu  Pu9  1  0.000000  0.221768  0.750000  1
  Ge  Ge10  1  0.395906  0.395906  0.750000  1
  Ge  Ge11  1  0.604094  0.000000  0.750000  1
  Ge  Ge12  1  0.000000  0.604094  0.750000  1
  Ge  Ge13  1  0.609832  0.609832  0.250000  1
  Ge  Ge14  1  0.390168  0.000000  0.250000  1
  Ge  Ge15  1  0.000000  0.390168  0.250000  1
  C  C16  1  0.000000  0.000000  0.997541  1
  C  C17  1  0.000000  0.000000  0.502459  1
