# generated using pymatgen
data_CaCl2O7
_symmetry_space_group_name_H-M   'P 1'
_cell_length_a   6.63448700
_cell_length_b   6.69437474
_cell_length_c   7.77726036
_cell_angle_alpha   89.48985164
_cell_angle_beta   90.00000000
_cell_angle_gamma   90.00000000
_symmetry_Int_Tables_number   1
_chemical_formula_structural   CaCl2O7
_chemical_formula_sum   'Ca2 Cl4 O14'
_cell_volume   345.40354511
_cell_formula_units_Z   2
loop_
 _symmetry_equiv_pos_site_id
 _symmetry_equiv_pos_as_xyz
  1  'x, y, z'
loop_
 _atom_site_type_symbol
 _atom_site_label
 _atom_site_symmetry_multiplicity
 _atom_site_fract_x
 _atom_site_fract_y
 _atom_site_fract_z
 _atom_site_occupancy
  Ca  Ca0  1  0.054894  0.172874  0.363240  1
  Ca  Ca1  1  0.554894  0.827126  0.636760  1
  Cl  Cl2  1  0.114868  0.925246  0.770499  1
  Cl  Cl3  1  0.614868  0.074754  0.229501  1
  Cl  Cl4  1  0.747177  0.332574  0.742557  1
  Cl  Cl5  1  0.247177  0.667426  0.257443  1
  O  O6  1  0.358351  0.658043  0.426467  1
  O  O7  1  0.858351  0.341957  0.573533  1
  O  O8  1  0.710245  0.978536  0.384821  1
  O  O9  1  0.210245  0.021464  0.615179  1
  O  O10  1  0.106078  0.492273  0.256192  1
  O  O11  1  0.606078  0.507727  0.743808  1
  O  O12  1  0.433047  0.178668  0.283544  1
  O  O13  1  0.933047  0.821332  0.716456  1
  O  O14  1  0.114704  0.848925  0.258547  1
  O  O15  1  0.614704  0.151075  0.741453  1
  O  O16  1  0.263546  0.780031  0.833079  1
  O  O17  1  0.763546  0.219969  0.166921  1
  O  O18  1  0.072033  0.074000  0.896443  1
  O  O19  1  0.572033  0.926000  0.103557  1
