# generated using pymatgen
data_Tb5Y(Lu2Pb3)2
_symmetry_space_group_name_H-M   'P 1'
_cell_length_a   6.57376301
_cell_length_b   9.03071116
_cell_length_c   9.04635500
_cell_angle_alpha   119.99101628
_cell_angle_beta   90.00258236
_cell_angle_gamma   90.00063998
_symmetry_Int_Tables_number   1
_chemical_formula_structural   Tb5Y(Lu2Pb3)2
_chemical_formula_sum   'Tb5 Y1 Lu4 Pb6'
_cell_volume   465.13557861
_cell_formula_units_Z   1
loop_
 _symmetry_equiv_pos_site_id
 _symmetry_equiv_pos_as_xyz
  1  'x, y, z'
loop_
 _atom_site_type_symbol
 _atom_site_label
 _atom_site_symmetry_multiplicity
 _atom_site_fract_x
 _atom_site_fract_y
 _atom_site_fract_z
 _atom_site_occupancy
  Tb  Tb0  1  0.750007  0.237064  0.999995  1
  Tb  Tb1  1  0.750018  0.762820  0.762364  1
  Tb  Tb2  1  0.750003  0.000349  0.238069  1
  Tb  Tb3  1  0.250005  0.762746  0.999498  1
  Tb  Tb4  1  0.250013  0.237498  0.237324  1
  Y  Y5  1  0.249984  0.999687  0.762731  1
  Lu  Lu6  1  0.499826  0.333175  0.666930  1
  Lu  Lu7  1  0.499822  0.666732  0.333116  1
  Lu  Lu8  1  0.000156  0.666789  0.333129  1
  Lu  Lu9  1  0.000186  0.333207  0.666932  1
  Pb  Pb10  1  0.749992  0.603153  0.999903  1
  Pb  Pb11  1  0.750011  0.396574  0.396448  1
  Pb  Pb12  1  0.750007  0.000011  0.603077  1
  Pb  Pb13  1  0.249986  0.395088  0.998800  1
  Pb  Pb14  1  0.249993  0.605166  0.603985  1
  Pb  Pb15  1  0.249992  0.999942  0.397696  1
