# generated using pymatgen
data_Ho3Er4(PaGa4)5
_symmetry_space_group_name_H-M   'P 1'
_cell_length_a   6.07564915
_cell_length_b   9.52771823
_cell_length_c   11.64838332
_cell_angle_alpha   90.02398112
_cell_angle_beta   90.09586851
_cell_angle_gamma   90.00866620
_symmetry_Int_Tables_number   1
_chemical_formula_structural   Ho3Er4(PaGa4)5
_chemical_formula_sum   'Ho3 Er4 Pa5 Ga20'
_cell_volume   674.28980717
_cell_formula_units_Z   1
loop_
 _symmetry_equiv_pos_site_id
 _symmetry_equiv_pos_as_xyz
  1  'x, y, z'
loop_
 _atom_site_type_symbol
 _atom_site_label
 _atom_site_symmetry_multiplicity
 _atom_site_fract_x
 _atom_site_fract_y
 _atom_site_fract_z
 _atom_site_occupancy
  Ho  Ho0  1  0.882552  0.503633  0.351136  1
  Ho  Ho1  1  0.617610  0.996380  0.851156  1
  Ho  Ho2  1  0.117188  0.003678  0.648818  1
  Er  Er3  1  0.857373  0.750367  0.073053  1
  Er  Er4  1  0.643728  0.748940  0.572854  1
  Er  Er5  1  0.143450  0.251656  0.927666  1
  Er  Er6  1  0.356686  0.249100  0.427224  1
  Pa  Pa7  1  0.382120  0.496770  0.147389  1
  Pa  Pa8  1  0.118482  0.496582  0.648664  1
  Pa  Pa9  1  0.381098  0.003548  0.148645  1
  Pa  Pa10  1  0.881215  0.996119  0.351612  1
  Pa  Pa11  1  0.618583  0.503452  0.851814  1
  Ga  Ga12  1  0.871790  0.052363  0.091292  1
  Ga  Ga13  1  0.627633  0.447033  0.591295  1
  Ga  Ga14  1  0.128232  0.553013  0.909145  1
  Ga  Ga15  1  0.371699  0.947373  0.408794  1
  Ga  Ga16  1  0.130318  0.948094  0.908773  1
  Ga  Ga17  1  0.369952  0.552418  0.409368  1
  Ga  Ga18  1  0.871256  0.447727  0.090977  1
  Ga  Ga19  1  0.630067  0.052233  0.590780  1
  Ga  Ga20  1  0.158394  0.750024  0.262963  1
  Ga  Ga21  1  0.342448  0.749955  0.762257  1
  Ga  Ga22  1  0.842582  0.250460  0.737515  1
  Ga  Ga23  1  0.656668  0.249958  0.237090  1
  Ga  Ga24  1  0.389676  0.750592  0.995810  1
  Ga  Ga25  1  0.109476  0.749540  0.495917  1
  Ga  Ga26  1  0.610069  0.250482  0.004778  1
  Ga  Ga27  1  0.890176  0.249296  0.504082  1
  Ga  Ga28  1  0.595653  0.749915  0.292514  1
  Ga  Ga29  1  0.903344  0.749102  0.793458  1
  Ga  Ga30  1  0.403190  0.250810  0.706671  1
  Ga  Ga31  1  0.097290  0.249383  0.206493  1
