# generated using pymatgen
data_Sr5Ca(TmSn2)4
_symmetry_space_group_name_H-M   'P 1'
_cell_length_a   8.05819220
_cell_length_b   8.59630912
_cell_length_c   16.35660500
_cell_angle_alpha   90.01252384
_cell_angle_beta   90.03124956
_cell_angle_gamma   90.28171726
_symmetry_Int_Tables_number   1
_chemical_formula_structural   Sr5Ca(TmSn2)4
_chemical_formula_sum   'Sr10 Ca2 Tm8 Sn16'
_cell_volume   1133.01976730
_cell_formula_units_Z   2
loop_
 _symmetry_equiv_pos_site_id
 _symmetry_equiv_pos_as_xyz
  1  'x, y, z'
loop_
 _atom_site_type_symbol
 _atom_site_label
 _atom_site_symmetry_multiplicity
 _atom_site_fract_x
 _atom_site_fract_y
 _atom_site_fract_z
 _atom_site_occupancy
  Sr  Sr0  1  0.178189  0.330498  0.618604  1
  Sr  Sr1  1  0.503490  0.681399  0.593257  1
  Sr  Sr2  1  0.002124  0.819507  0.910556  1
  Sr  Sr3  1  0.494279  0.317774  0.093703  1
  Sr  Sr4  1  0.995993  0.183790  0.404624  1
  Sr  Sr5  1  0.495672  0.317575  0.405360  1
  Sr  Sr6  1  0.995490  0.182765  0.093690  1
  Sr  Sr7  1  0.503749  0.681529  0.908788  1
  Sr  Sr8  1  0.003432  0.817524  0.590645  1
  Sr  Sr9  1  0.332339  0.989641  0.750228  1
  Ca  Ca10  1  0.163353  0.492886  0.248837  1
  Ca  Ca11  1  0.665325  0.006283  0.250163  1
  Tm  Tm12  1  0.674523  0.165456  0.621839  1
  Tm  Tm13  1  0.171917  0.333584  0.879825  1
  Tm  Tm14  1  0.326593  0.832966  0.122860  1
  Tm  Tm15  1  0.827453  0.666420  0.375704  1
  Tm  Tm16  1  0.327928  0.833656  0.374840  1
  Tm  Tm17  1  0.827422  0.666838  0.122451  1
  Tm  Tm18  1  0.671909  0.165878  0.880944  1
  Tm  Tm19  1  0.838931  0.507196  0.750048  1
  Sn  Sn20  1  0.670291  0.957092  0.457719  1
  Sn  Sn21  1  0.162819  0.540347  0.041274  1
  Sn  Sn22  1  0.335898  0.041501  0.961902  1
  Sn  Sn23  1  0.825645  0.464711  0.541008  1
  Sn  Sn24  1  0.348478  0.031960  0.536017  1
  Sn  Sn25  1  0.835655  0.462115  0.956153  1
  Sn  Sn26  1  0.663859  0.959290  0.042242  1
  Sn  Sn27  1  0.158509  0.546828  0.452354  1
  Sn  Sn28  1  0.483121  0.380946  0.757044  1
  Sn  Sn29  1  0.956681  0.137084  0.754375  1
  Sn  Sn30  1  0.530074  0.632775  0.249177  1
  Sn  Sn31  1  0.029619  0.867427  0.247973  1
  Sn  Sn32  1  0.725769  0.870724  0.751392  1
  Sn  Sn33  1  0.207952  0.613875  0.756202  1
  Sn  Sn34  1  0.284027  0.115732  0.249174  1
  Sn  Sn35  1  0.781495  0.384427  0.249030  1
