# generated using pymatgen
data_BaAc2Sc2O7
_symmetry_space_group_name_H-M   'P 1'
_cell_length_a   5.96175800
_cell_length_b   5.96175800
_cell_length_c   21.12030600
_cell_angle_alpha   90.00000000
_cell_angle_beta   90.00000000
_cell_angle_gamma   90.00000000
_symmetry_Int_Tables_number   1
_chemical_formula_structural   BaAc2Sc2O7
_chemical_formula_sum   'Ba4 Ac8 Sc8 O28'
_cell_volume   750.66971050
_cell_formula_units_Z   4
loop_
 _symmetry_equiv_pos_site_id
 _symmetry_equiv_pos_as_xyz
  1  'x, y, z'
loop_
 _atom_site_type_symbol
 _atom_site_label
 _atom_site_symmetry_multiplicity
 _atom_site_fract_x
 _atom_site_fract_y
 _atom_site_fract_z
 _atom_site_occupancy
  Ba  Ba0  1  0.257718  0.257718  0.000000  1
  Ba  Ba1  1  0.742283  0.742283  0.000000  1
  Ba  Ba2  1  0.757718  0.242283  0.500000  1
  Ba  Ba3  1  0.242283  0.757718  0.500000  1
  Ac  Ac4  1  0.268498  0.268498  0.181959  1
  Ac  Ac5  1  0.731502  0.731502  0.181959  1
  Ac  Ac6  1  0.768499  0.231501  0.318041  1
  Ac  Ac7  1  0.231501  0.768499  0.318041  1
  Ac  Ac8  1  0.768499  0.231501  0.681959  1
  Ac  Ac9  1  0.231501  0.768499  0.681959  1
  Ac  Ac10  1  0.268498  0.268498  0.818041  1
  Ac  Ac11  1  0.731502  0.731502  0.818041  1
  Sc  Sc12  1  0.755662  0.244337  0.096735  1
  Sc  Sc13  1  0.244337  0.755662  0.096735  1
  Sc  Sc14  1  0.255662  0.255662  0.403265  1
  Sc  Sc15  1  0.744338  0.744338  0.403265  1
  Sc  Sc16  1  0.255662  0.255662  0.596735  1
  Sc  Sc17  1  0.744338  0.744338  0.596735  1
  Sc  Sc18  1  0.755662  0.244337  0.903264  1
  Sc  Sc19  1  0.244337  0.755662  0.903264  1
  O  O20  1  0.782176  0.217824  0.000000  1
  O  O21  1  0.217824  0.782176  0.000000  1
  O  O22  1  0.499999  0.499999  0.091918  1
  O  O23  1  0.499999  0.000000  0.106372  1
  O  O24  1  0.000000  0.499999  0.106372  1
  O  O25  1  0.000000  0.000000  0.119708  1
  O  O26  1  0.698889  0.301110  0.204893  1
  O  O27  1  0.301110  0.698889  0.204893  1
  O  O28  1  0.198890  0.198890  0.295107  1
  O  O29  1  0.801111  0.801111  0.295107  1
  O  O30  1  0.499999  0.499999  0.380292  1
  O  O31  1  0.499999  0.000000  0.393628  1
  O  O32  1  0.000000  0.499999  0.393628  1
  O  O33  1  0.000000  0.000000  0.408082  1
  O  O34  1  0.282176  0.282176  0.500000  1
  O  O35  1  0.717823  0.717823  0.500000  1
  O  O36  1  0.000000  0.000000  0.591918  1
  O  O37  1  0.499999  0.000000  0.606372  1
  O  O38  1  0.000000  0.499999  0.606372  1
  O  O39  1  0.499999  0.499999  0.619707  1
  O  O40  1  0.198890  0.198890  0.704893  1
  O  O41  1  0.801111  0.801111  0.704893  1
  O  O42  1  0.698889  0.301110  0.795107  1
  O  O43  1  0.301110  0.698889  0.795107  1
  O  O44  1  0.000000  0.000000  0.880293  1
  O  O45  1  0.499999  0.000000  0.893628  1
  O  O46  1  0.000000  0.499999  0.893628  1
  O  O47  1  0.499999  0.499999  0.908082  1
