# generated using pymatgen
data_ZnNi9Sb2
_symmetry_space_group_name_H-M   'P 1'
_cell_length_a   3.69683200
_cell_length_b   3.69683200
_cell_length_c   10.89950000
_cell_angle_alpha   90.00000000
_cell_angle_beta   90.00000000
_cell_angle_gamma   90.00000000
_symmetry_Int_Tables_number   1
_chemical_formula_structural   ZnNi9Sb2
_chemical_formula_sum   'Zn1 Ni9 Sb2'
_cell_volume   148.95874523
_cell_formula_units_Z   1
loop_
 _symmetry_equiv_pos_site_id
 _symmetry_equiv_pos_as_xyz
  1  'x, y, z'
loop_
 _atom_site_type_symbol
 _atom_site_label
 _atom_site_symmetry_multiplicity
 _atom_site_fract_x
 _atom_site_fract_y
 _atom_site_fract_z
 _atom_site_occupancy
  Zn  Zn0  1  0.000000  0.000000  0.000000  1
  Ni  Ni1  1  0.500000  0.500000  0.000000  1
  Ni  Ni2  1  0.500000  0.500000  0.333645  1
  Ni  Ni3  1  0.500000  0.500000  0.666355  1
  Ni  Ni4  1  0.500000  0.000000  0.157754  1
  Ni  Ni5  1  0.500000  0.000000  0.500000  1
  Ni  Ni6  1  0.500000  0.000000  0.842246  1
  Ni  Ni7  1  0.000000  0.500000  0.157754  1
  Ni  Ni8  1  0.000000  0.500000  0.500000  1
  Ni  Ni9  1  0.000000  0.500000  0.842246  1
  Sb  Sb10  1  0.000000  0.000000  0.324100  1
  Sb  Sb11  1  0.000000  0.000000  0.675900  1
