# generated using pymatgen
data_Y3Al3GeAu2
_symmetry_space_group_name_H-M   'P 1'
_cell_length_a   7.07179800
_cell_length_b   7.07179874
_cell_length_c   4.32132800
_cell_angle_alpha   90.00000000
_cell_angle_beta   90.00000000
_cell_angle_gamma   120.00000588
_symmetry_Int_Tables_number   1
_chemical_formula_structural   Y3Al3GeAu2
_chemical_formula_sum   'Y3 Al3 Ge1 Au2'
_cell_volume   187.15764729
_cell_formula_units_Z   1
loop_
 _symmetry_equiv_pos_site_id
 _symmetry_equiv_pos_as_xyz
  1  'x, y, z'
loop_
 _atom_site_type_symbol
 _atom_site_label
 _atom_site_symmetry_multiplicity
 _atom_site_fract_x
 _atom_site_fract_y
 _atom_site_fract_z
 _atom_site_occupancy
  Y  Y0  1  0.422307  0.420703  0.500000  1
  Y  Y1  1  0.579297  0.001605  0.500000  1
  Y  Y2  1  0.998395  0.577693  0.500000  1
  Al  Al3  1  0.013735  0.248767  0.000000  1
  Al  Al4  1  0.751233  0.764968  0.000000  1
  Al  Al5  1  0.235032  0.986265  0.000000  1
  Ge  Ge6  1  0.666667  0.333333  0.000000  1
  Au  Au7  1  0.000000  0.000000  0.500000  1
  Au  Au8  1  0.333333  0.666667  0.000000  1
