# generated using pymatgen
data_Ho2LuGaSn3Ir2
_symmetry_space_group_name_H-M   'P 1'
_cell_length_a   7.41238559
_cell_length_b   7.39663521
_cell_length_c   4.08799200
_cell_angle_alpha   90.00000000
_cell_angle_beta   90.00000000
_cell_angle_gamma   120.19833457
_symmetry_Int_Tables_number   1
_chemical_formula_structural   Ho2LuGaSn3Ir2
_chemical_formula_sum   'Ho2 Lu1 Ga1 Sn3 Ir2'
_cell_volume   193.71419165
_cell_formula_units_Z   1
loop_
 _symmetry_equiv_pos_site_id
 _symmetry_equiv_pos_as_xyz
  1  'x, y, z'
loop_
 _atom_site_type_symbol
 _atom_site_label
 _atom_site_symmetry_multiplicity
 _atom_site_fract_x
 _atom_site_fract_y
 _atom_site_fract_z
 _atom_site_occupancy
  Ho  Ho0  1  0.986326  0.396898  0.500000  1
  Ho  Ho1  1  0.602179  0.588943  0.500000  1
  Lu  Lu2  1  0.410650  0.017376  0.500000  1
  Ga  Ga3  1  0.334174  0.669613  0.000000  1
  Sn  Sn4  1  0.995353  0.742196  0.000000  1
  Sn  Sn5  1  0.257286  0.252680  0.000000  1
  Sn  Sn6  1  0.747279  0.003124  0.000000  1
  Ir  Ir7  1  0.663761  0.329344  0.000000  1
  Ir  Ir8  1  0.002992  0.999827  0.500000  1
