# generated using pymatgen
data_Na5Yb(CuSe)8
_symmetry_space_group_name_H-M   'P 1'
_cell_length_a   3.95676000
_cell_length_b   7.31051905
_cell_length_c   15.15111153
_cell_angle_alpha   90.78420950
_cell_angle_beta   90.00000000
_cell_angle_gamma   90.00000000
_symmetry_Int_Tables_number   1
_chemical_formula_structural   Na5Yb(CuSe)8
_chemical_formula_sum   'Na5 Yb1 Cu8 Se8'
_cell_volume   438.21953801
_cell_formula_units_Z   1
loop_
 _symmetry_equiv_pos_site_id
 _symmetry_equiv_pos_as_xyz
  1  'x, y, z'
loop_
 _atom_site_type_symbol
 _atom_site_label
 _atom_site_symmetry_multiplicity
 _atom_site_fract_x
 _atom_site_fract_y
 _atom_site_fract_z
 _atom_site_occupancy
  Na  Na0  1  0.000000  0.475219  0.746648  1
  Na  Na1  1  0.000000  0.524781  0.253352  1
  Na  Na2  1  0.000000  0.020896  0.239656  1
  Na  Na3  1  0.500000  0.000000  0.000000  1
  Na  Na4  1  0.000000  0.979104  0.760344  1
  Yb  Yb5  1  0.500000  0.500000  0.500000  1
  Cu  Cu6  1  0.500000  0.920251  0.578705  1
  Cu  Cu7  1  0.000000  0.346224  0.062632  1
  Cu  Cu8  1  0.500000  0.427839  0.916076  1
  Cu  Cu9  1  0.000000  0.842816  0.444211  1
  Cu  Cu10  1  0.500000  0.079749  0.421295  1
  Cu  Cu11  1  0.000000  0.157184  0.555789  1
  Cu  Cu12  1  0.000000  0.653776  0.937368  1
  Cu  Cu13  1  0.500000  0.572161  0.083924  1
  Se  Se14  1  0.500000  0.774577  0.352161  1
  Se  Se15  1  0.500000  0.725863  0.845781  1
  Se  Se16  1  0.500000  0.274137  0.154219  1
  Se  Se17  1  0.000000  0.728148  0.594725  1
  Se  Se18  1  0.000000  0.243507  0.908458  1
  Se  Se19  1  0.000000  0.271852  0.405275  1
  Se  Se20  1  0.000000  0.756493  0.091542  1
  Se  Se21  1  0.500000  0.225423  0.647839  1
