# generated using pymatgen
data_Ta4Si4IrPtRh2
_symmetry_space_group_name_H-M   'P 1'
_cell_length_a   3.79124600
_cell_length_b   6.44189862
_cell_length_c   7.36788188
_cell_angle_alpha   90.30933687
_cell_angle_beta   90.00000000
_cell_angle_gamma   90.00000000
_symmetry_Int_Tables_number   1
_chemical_formula_structural   Ta4Si4IrPtRh2
_chemical_formula_sum   'Ta4 Si4 Ir1 Pt1 Rh2'
_cell_volume   179.94184803
_cell_formula_units_Z   1
loop_
 _symmetry_equiv_pos_site_id
 _symmetry_equiv_pos_as_xyz
  1  'x, y, z'
loop_
 _atom_site_type_symbol
 _atom_site_label
 _atom_site_symmetry_multiplicity
 _atom_site_fract_x
 _atom_site_fract_y
 _atom_site_fract_z
 _atom_site_occupancy
  Ta  Ta0  1  0.250000  0.528482  0.667618  1
  Ta  Ta1  1  0.750000  0.475275  0.332171  1
  Ta  Ta2  1  0.250000  0.024747  0.826885  1
  Ta  Ta3  1  0.750000  0.973309  0.174050  1
  Si  Si4  1  0.250000  0.266723  0.131225  1
  Si  Si5  1  0.750000  0.736226  0.875948  1
  Si  Si6  1  0.250000  0.766972  0.372807  1
  Si  Si7  1  0.750000  0.232405  0.620579  1
  Ir  Ir8  1  0.750000  0.854155  0.564460  1
  Pt  Pt9  1  0.750000  0.351721  0.934746  1
  Rh  Rh10  1  0.250000  0.143787  0.437534  1
  Rh  Rh11  1  0.250000  0.646198  0.061979  1
