# generated using pymatgen
data_Ho2Tm8HgBi5
_symmetry_space_group_name_H-M   'P 1'
_cell_length_a   8.15712500
_cell_length_b   9.41209700
_cell_length_c   11.93349200
_cell_angle_alpha   90.00000000
_cell_angle_beta   90.00000000
_cell_angle_gamma   90.00000000
_symmetry_Int_Tables_number   1
_chemical_formula_structural   Ho2Tm8HgBi5
_chemical_formula_sum   'Ho4 Tm16 Hg2 Bi10'
_cell_volume   916.20162585
_cell_formula_units_Z   2
loop_
 _symmetry_equiv_pos_site_id
 _symmetry_equiv_pos_as_xyz
  1  'x, y, z'
loop_
 _atom_site_type_symbol
 _atom_site_label
 _atom_site_symmetry_multiplicity
 _atom_site_fract_x
 _atom_site_fract_y
 _atom_site_fract_z
 _atom_site_occupancy
  Ho  Ho0  1  0.312112  0.250000  0.217594  1
  Ho  Ho1  1  0.812112  0.250000  0.282406  1
  Ho  Ho2  1  0.682250  0.750000  0.784586  1
  Ho  Ho3  1  0.182250  0.750000  0.715414  1
  Tm  Tm4  1  0.354167  0.750000  0.210049  1
  Tm  Tm5  1  0.854167  0.750000  0.289951  1
  Tm  Tm6  1  0.651031  0.250000  0.783216  1
  Tm  Tm7  1  0.151031  0.250000  0.716784  1
  Tm  Tm8  1  0.687197  0.569791  0.057994  1
  Tm  Tm9  1  0.187197  0.930209  0.442006  1
  Tm  Tm10  1  0.307017  0.054227  0.940468  1
  Tm  Tm11  1  0.807017  0.445773  0.559532  1
  Tm  Tm12  1  0.307017  0.445773  0.940468  1
  Tm  Tm13  1  0.807017  0.054227  0.559532  1
  Tm  Tm14  1  0.687197  0.930209  0.057994  1
  Tm  Tm15  1  0.187197  0.569791  0.442006  1
  Tm  Tm16  1  0.479332  0.250000  0.490022  1
  Tm  Tm17  1  0.979332  0.250000  0.009978  1
  Tm  Tm18  1  0.532216  0.750000  0.508673  1
  Tm  Tm19  1  0.032216  0.750000  0.991327  1
  Hg  Hg20  1  0.405281  0.750000  0.958952  1
  Hg  Hg21  1  0.905281  0.750000  0.541048  1
  Bi  Bi22  1  0.595408  0.250000  0.041834  1
  Bi  Bi23  1  0.095408  0.250000  0.458166  1
  Bi  Bi24  1  0.561788  0.996547  0.324625  1
  Bi  Bi25  1  0.061788  0.503453  0.175375  1
  Bi  Bi26  1  0.438099  0.497233  0.675801  1
  Bi  Bi27  1  0.938099  0.002767  0.824199  1
  Bi  Bi28  1  0.438099  0.002767  0.675801  1
  Bi  Bi29  1  0.938099  0.497233  0.824199  1
  Bi  Bi30  1  0.561788  0.503453  0.324625  1
  Bi  Bi31  1  0.061788  0.996547  0.175375  1
