# generated using pymatgen
data_YbDy6Co3Sn23Ir3
_symmetry_space_group_name_H-M   'P 1'
_cell_length_a   9.79913283
_cell_length_b   9.80348582
_cell_length_c   10.01777819
_cell_angle_alpha   90.16814100
_cell_angle_beta   89.70919323
_cell_angle_gamma   120.02026461
_symmetry_Int_Tables_number   1
_chemical_formula_structural   YbDy6Co3Sn23Ir3
_chemical_formula_sum   'Yb1 Dy6 Co3 Sn23 Ir3'
_cell_volume   833.25102165
_cell_formula_units_Z   1
loop_
 _symmetry_equiv_pos_site_id
 _symmetry_equiv_pos_as_xyz
  1  'x, y, z'
loop_
 _atom_site_type_symbol
 _atom_site_label
 _atom_site_symmetry_multiplicity
 _atom_site_fract_x
 _atom_site_fract_y
 _atom_site_fract_z
 _atom_site_occupancy
  Yb  Yb0  1  0.996226  0.993211  0.003788  1
  Dy  Dy1  1  0.480904  0.519892  0.306213  1
  Dy  Dy2  1  0.518433  0.480334  0.693435  1
  Dy  Dy3  1  0.482205  0.962041  0.305705  1
  Dy  Dy4  1  0.518273  0.039325  0.694120  1
  Dy  Dy5  1  0.038289  0.518290  0.304992  1
  Dy  Dy6  1  0.961621  0.481453  0.694332  1
  Co  Co7  1  0.171926  0.339956  0.800342  1
  Co  Co8  1  0.339948  0.171996  0.198671  1
  Co  Co9  1  0.661371  0.831246  0.799105  1
  Sn  Sn10  1  0.351395  0.006135  0.004234  1
  Sn  Sn11  1  0.648690  0.994530  0.995021  1
  Sn  Sn12  1  0.006646  0.348768  0.994595  1
  Sn  Sn13  1  0.000565  0.646374  0.999404  1
  Sn  Sn14  1  0.646736  0.652861  0.995057  1
  Sn  Sn15  1  0.344197  0.344476  0.999701  1
  Sn  Sn16  1  0.335969  0.664822  0.818665  1
  Sn  Sn17  1  0.661261  0.330805  0.177399  1
  Sn  Sn18  1  0.000629  0.999957  0.501047  1
  Sn  Sn19  1  0.778471  0.221509  0.459256  1
  Sn  Sn20  1  0.221430  0.777881  0.540215  1
  Sn  Sn21  1  0.777950  0.555675  0.459210  1
  Sn  Sn22  1  0.218540  0.437795  0.547391  1
  Sn  Sn23  1  0.438691  0.219260  0.452172  1
  Sn  Sn24  1  0.559646  0.780180  0.548117  1
  Sn  Sn25  1  0.334069  0.667415  0.120952  1
  Sn  Sn26  1  0.666195  0.334431  0.877410  1
  Sn  Sn27  1  0.123834  0.888483  0.276420  1
  Sn  Sn28  1  0.884342  0.117875  0.728310  1
  Sn  Sn29  1  0.123180  0.235416  0.277045  1
  Sn  Sn30  1  0.877732  0.766087  0.722114  1
  Sn  Sn31  1  0.764090  0.883219  0.285854  1
  Sn  Sn32  1  0.235153  0.124127  0.722039  1
  Ir  Ir33  1  0.830932  0.170298  0.197971  1
  Ir  Ir34  1  0.171410  0.832964  0.799781  1
  Ir  Ir35  1  0.829050  0.660913  0.199923  1
