# generated using pymatgen
data_YbHoTcB8Os
_symmetry_space_group_name_H-M   'P 1'
_cell_length_a   3.56397500
_cell_length_b   5.95398979
_cell_length_c   11.51963523
_cell_angle_alpha   90.02556578
_cell_angle_beta   90.00000000
_cell_angle_gamma   90.00000000
_symmetry_Int_Tables_number   1
_chemical_formula_structural   YbHoTcB8Os
_chemical_formula_sum   'Yb2 Ho2 Tc2 B16 Os2'
_cell_volume   244.44514648
_cell_formula_units_Z   2
loop_
 _symmetry_equiv_pos_site_id
 _symmetry_equiv_pos_as_xyz
  1  'x, y, z'
loop_
 _atom_site_type_symbol
 _atom_site_label
 _atom_site_symmetry_multiplicity
 _atom_site_fract_x
 _atom_site_fract_y
 _atom_site_fract_z
 _atom_site_occupancy
  Yb  Yb0  1  0.000000  0.628890  0.352086  1
  Yb  Yb1  1  0.000000  0.371110  0.647914  1
  Ho  Ho2  1  0.000000  0.127774  0.152678  1
  Ho  Ho3  1  0.000000  0.872226  0.847322  1
  Tc  Tc4  1  0.000000  0.631209  0.086104  1
  Tc  Tc5  1  0.000000  0.368791  0.913896  1
  B  B6  1  0.500000  0.786606  0.185713  1
  B  B7  1  0.500000  0.213394  0.814287  1
  B  B8  1  0.500000  0.287962  0.315526  1
  B  B9  1  0.500000  0.712038  0.684474  1
  B  B10  1  0.500000  0.865027  0.031614  1
  B  B11  1  0.500000  0.134973  0.968386  1
  B  B12  1  0.500000  0.363748  0.469712  1
  B  B13  1  0.500000  0.636252  0.530288  1
  B  B14  1  0.500000  0.886252  0.453170  1
  B  B15  1  0.500000  0.113748  0.546830  1
  B  B16  1  0.500000  0.386754  0.047767  1
  B  B17  1  0.500000  0.613246  0.952233  1
  B  B18  1  0.500000  0.975033  0.308796  1
  B  B19  1  0.500000  0.024967  0.691204  1
  B  B20  1  0.500000  0.478073  0.193271  1
  B  B21  1  0.500000  0.521927  0.806729  1
  Os  Os22  1  0.000000  0.138369  0.409354  1
  Os  Os23  1  0.000000  0.861631  0.590646  1
