# generated using pymatgen
data_La16Pr4(Ir3Os)3
_symmetry_space_group_name_H-M   'P 1'
_cell_length_a   11.43651800
_cell_length_b   11.43651800
_cell_length_c   6.64985900
_cell_angle_alpha   90.00000000
_cell_angle_beta   90.00000000
_cell_angle_gamma   90.00000000
_symmetry_Int_Tables_number   1
_chemical_formula_structural   La16Pr4(Ir3Os)3
_chemical_formula_sum   'La16 Pr4 Ir9 Os3'
_cell_volume   869.76128542
_cell_formula_units_Z   1
loop_
 _symmetry_equiv_pos_site_id
 _symmetry_equiv_pos_as_xyz
  1  'x, y, z'
loop_
 _atom_site_type_symbol
 _atom_site_label
 _atom_site_symmetry_multiplicity
 _atom_site_fract_x
 _atom_site_fract_y
 _atom_site_fract_z
 _atom_site_occupancy
  La  La0  1  0.294356  0.089206  0.386716  1
  La  La1  1  0.294433  0.911222  0.886987  1
  La  La2  1  0.705567  0.088778  0.886987  1
  La  La3  1  0.705644  0.910794  0.386716  1
  La  La4  1  0.588778  0.794433  0.886987  1
  La  La5  1  0.589206  0.205644  0.386716  1
  La  La6  1  0.410794  0.794356  0.386716  1
  La  La7  1  0.411222  0.205567  0.886987  1
  La  La8  1  0.207492  0.409717  0.615180  1
  La  La9  1  0.207588  0.590269  0.110920  1
  La  La10  1  0.792412  0.409731  0.110920  1
  La  La11  1  0.792508  0.590283  0.615180  1
  La  La12  1  0.909731  0.707588  0.110920  1
  La  La13  1  0.909717  0.292508  0.615180  1
  La  La14  1  0.090283  0.707492  0.615180  1
  La  La15  1  0.090269  0.292412  0.110920  1
  Pr  Pr16  1  0.000000  0.000000  0.498740  1
  Pr  Pr17  1  0.000000  0.000000  0.999081  1
  Pr  Pr18  1  0.500000  0.500000  0.999081  1
  Pr  Pr19  1  0.500000  0.500000  0.498740  1
  Ir  Ir20  1  0.847301  0.154575  0.250512  1
  Ir  Ir21  1  0.846913  0.845717  0.749965  1
  Ir  Ir22  1  0.153087  0.154283  0.749965  1
  Ir  Ir23  1  0.152699  0.845425  0.250512  1
  Ir  Ir24  1  0.654283  0.346913  0.749965  1
  Ir  Ir25  1  0.654575  0.652699  0.250512  1
  Ir  Ir26  1  0.345425  0.347301  0.250512  1
  Ir  Ir27  1  0.345717  0.653087  0.749965  1
  Ir  Ir28  1  0.000000  0.500000  0.380652  1
  Os  Os29  1  0.500000  0.000000  0.121397  1
  Os  Os30  1  0.500000  0.000000  0.621011  1
  Os  Os31  1  0.000000  0.500000  0.880178  1
