# generated using pymatgen
data_Nb6Al3Ga(CoN)2
_symmetry_space_group_name_H-M   'P 1'
_cell_length_a   8.20383776
_cell_length_b   8.20383721
_cell_length_c   8.21589900
_cell_angle_alpha   59.95135624
_cell_angle_beta   59.95135844
_cell_angle_gamma   59.93557845
_symmetry_Int_Tables_number   1
_chemical_formula_structural   Nb6Al3Ga(CoN)2
_chemical_formula_sum   'Nb12 Al6 Ga2 Co4 N4'
_cell_volume   390.51966977
_cell_formula_units_Z   2
loop_
 _symmetry_equiv_pos_site_id
 _symmetry_equiv_pos_as_xyz
  1  'x, y, z'
loop_
 _atom_site_type_symbol
 _atom_site_label
 _atom_site_symmetry_multiplicity
 _atom_site_fract_x
 _atom_site_fract_y
 _atom_site_fract_z
 _atom_site_occupancy
  Nb  Nb0  1  0.809819  0.809819  0.190171  1
  Nb  Nb1  1  0.189245  0.189245  0.810756  1
  Nb  Nb2  1  0.810297  0.190103  0.810274  1
  Nb  Nb3  1  0.190135  0.810271  0.189338  1
  Nb  Nb4  1  0.190103  0.810297  0.810274  1
  Nb  Nb5  1  0.810271  0.190135  0.189338  1
  Nb  Nb6  1  0.439222  0.439222  0.060789  1
  Nb  Nb7  1  0.059220  0.059220  0.440763  1
  Nb  Nb8  1  0.439581  0.060665  0.439995  1
  Nb  Nb9  1  0.060650  0.439590  0.059761  1
  Nb  Nb10  1  0.060665  0.439581  0.439995  1
  Nb  Nb11  1  0.439590  0.060650  0.059761  1
  Al  Al12  1  0.746698  0.417948  0.417783  1
  Al  Al13  1  0.417948  0.746698  0.417783  1
  Al  Al14  1  0.418138  0.418138  0.745850  1
  Al  Al15  1  0.418037  0.418037  0.418032  1
  Al  Al16  1  0.504360  0.832068  0.831674  1
  Al  Al17  1  0.832068  0.504360  0.831674  1
  Ga  Ga18  1  0.832826  0.832826  0.500195  1
  Ga  Ga19  1  0.832902  0.832902  0.834042  1
  Co  Co20  1  0.127344  0.623324  0.624660  1
  Co  Co21  1  0.623324  0.127344  0.624660  1
  Co  Co22  1  0.624077  0.624077  0.125767  1
  Co  Co23  1  0.624087  0.624087  0.626061  1
  N  N24  1  0.625010  0.124500  0.125252  1
  N  N25  1  0.124500  0.625010  0.125252  1
  N  N26  1  0.124942  0.124942  0.624246  1
  N  N27  1  0.124941  0.124941  0.125850  1
