# generated using pymatgen
data_Yb3PrDyRu2
_symmetry_space_group_name_H-M   'P 1'
_cell_length_a   8.60306244
_cell_length_b   8.60306346
_cell_length_c   7.42346412
_cell_angle_alpha   83.10878115
_cell_angle_beta   83.10877267
_cell_angle_gamma   43.66238989
_symmetry_Int_Tables_number   1
_chemical_formula_structural   Yb3PrDyRu2
_chemical_formula_sum   'Yb6 Pr2 Dy2 Ru4'
_cell_volume   376.14905447
_cell_formula_units_Z   2
loop_
 _symmetry_equiv_pos_site_id
 _symmetry_equiv_pos_as_xyz
  1  'x, y, z'
loop_
 _atom_site_type_symbol
 _atom_site_label
 _atom_site_symmetry_multiplicity
 _atom_site_fract_x
 _atom_site_fract_y
 _atom_site_fract_z
 _atom_site_occupancy
  Yb  Yb0  1  0.201809  0.977760  0.582665  1
  Yb  Yb1  1  0.022240  0.798191  0.917335  1
  Yb  Yb2  1  0.201721  0.367294  0.317720  1
  Yb  Yb3  1  0.632706  0.798279  0.182280  1
  Yb  Yb4  1  0.804602  0.626301  0.677781  1
  Yb  Yb5  1  0.373699  0.195398  0.822219  1
  Pr  Pr6  1  0.971176  0.205211  0.076603  1
  Pr  Pr7  1  0.794789  0.028824  0.423397  1
  Dy  Dy8  1  0.558626  0.441374  0.750000  1
  Dy  Dy9  1  0.420555  0.579445  0.250000  1
  Ru  Ru10  1  0.185326  0.595574  0.573962  1
  Ru  Ru11  1  0.404426  0.814674  0.926038  1
  Ru  Ru12  1  0.814543  0.386221  0.420944  1
  Ru  Ru13  1  0.613779  0.185457  0.079056  1
