# generated using pymatgen
data_Cs2RuO3
_symmetry_space_group_name_H-M   'P 1'
_cell_length_a   6.90641775
_cell_length_b   11.77554100
_cell_length_c   8.19827802
_cell_angle_alpha   90.00000000
_cell_angle_beta   98.06979705
_cell_angle_gamma   90.00000000
_symmetry_Int_Tables_number   1
_chemical_formula_structural   Cs2RuO3
_chemical_formula_sum   'Cs8 Ru4 O12'
_cell_volume   660.13756669
_cell_formula_units_Z   4
loop_
 _symmetry_equiv_pos_site_id
 _symmetry_equiv_pos_as_xyz
  1  'x, y, z'
loop_
 _atom_site_type_symbol
 _atom_site_label
 _atom_site_symmetry_multiplicity
 _atom_site_fract_x
 _atom_site_fract_y
 _atom_site_fract_z
 _atom_site_occupancy
  Cs  Cs0  1  0.251225  0.725704  0.029966  1
  Cs  Cs1  1  0.251663  0.085254  0.214875  1
  Cs  Cs2  1  0.748337  0.585253  0.285125  1
  Cs  Cs3  1  0.748775  0.225705  0.470036  1
  Cs  Cs4  1  0.251225  0.774294  0.529966  1
  Cs  Cs5  1  0.251665  0.414747  0.714875  1
  Cs  Cs6  1  0.748337  0.914746  0.785125  1
  Cs  Cs7  1  0.748775  0.274295  0.970035  1
  Ru  Ru8  1  0.759818  0.919445  0.254866  1
  Ru  Ru9  1  0.240182  0.419444  0.245133  1
  Ru  Ru10  1  0.759818  0.580555  0.754866  1
  Ru  Ru11  1  0.240182  0.080557  0.745133  1
  O  O12  1  0.426705  0.360184  0.139774  1
  O  O13  1  0.734492  0.060447  0.172006  1
  O  O14  1  0.970544  0.837435  0.223625  1
  O  O15  1  0.029457  0.337435  0.276376  1
  O  O16  1  0.265507  0.560445  0.327993  1
  O  O17  1  0.573298  0.860184  0.360228  1
  O  O18  1  0.426703  0.139817  0.639772  1
  O  O19  1  0.734492  0.439553  0.672006  1
  O  O20  1  0.970543  0.662565  0.723625  1
  O  O21  1  0.029456  0.162565  0.776376  1
  O  O22  1  0.265507  0.939554  0.827995  1
  O  O23  1  0.573296  0.639816  0.860228  1
