# generated using pymatgen
data_CaYbYUN4
_symmetry_space_group_name_H-M   'P 1'
_cell_length_a   6.06141808
_cell_length_b   6.06110700
_cell_length_c   4.87916600
_cell_angle_alpha   66.26208380
_cell_angle_beta   66.26288184
_cell_angle_gamma   47.46756946
_symmetry_Int_Tables_number   1
_chemical_formula_structural   CaYbYUN4
_chemical_formula_sum   'Ca1 Yb1 Y1 U1 N4'
_cell_volume   118.63548984
_cell_formula_units_Z   1
loop_
 _symmetry_equiv_pos_site_id
 _symmetry_equiv_pos_as_xyz
  1  'x, y, z'
loop_
 _atom_site_type_symbol
 _atom_site_label
 _atom_site_symmetry_multiplicity
 _atom_site_fract_x
 _atom_site_fract_y
 _atom_site_fract_z
 _atom_site_occupancy
  Ca  Ca0  1  0.497154  0.502846  0.502846  1
  Yb  Yb1  1  0.747160  0.752840  0.752840  1
  Y  Y2  1  0.247118  0.252882  0.252882  1
  U  U3  1  0.997426  0.002574  0.002574  1
  N  N4  1  0.004404  0.010232  0.497012  1
  N  N5  1  0.209977  0.215605  0.790074  1
  N  N6  1  0.488351  0.497012  0.010232  1
  N  N7  1  0.784344  0.790074  0.215605  1
