# generated using pymatgen
data_Dy5Y(AuO7)2
_symmetry_space_group_name_H-M   'P 1'
_cell_length_a   6.49750303
_cell_length_b   6.49750427
_cell_length_c   7.45153202
_cell_angle_alpha   89.99347666
_cell_angle_beta   90.00652272
_cell_angle_gamma   108.90582072
_symmetry_Int_Tables_number   1
_chemical_formula_structural   Dy5Y(AuO7)2
_chemical_formula_sum   'Dy5 Y1 Au2 O14'
_cell_volume   297.61433477
_cell_formula_units_Z   1
loop_
 _symmetry_equiv_pos_site_id
 _symmetry_equiv_pos_as_xyz
  1  'x, y, z'
loop_
 _atom_site_type_symbol
 _atom_site_label
 _atom_site_symmetry_multiplicity
 _atom_site_fract_x
 _atom_site_fract_y
 _atom_site_fract_z
 _atom_site_occupancy
  Dy  Dy0  1  0.500000  0.500000  0.500000  1
  Dy  Dy1  1  0.528815  0.997801  0.749996  1
  Dy  Dy2  1  0.997801  0.528815  0.250004  1
  Dy  Dy3  1  0.471185  0.002199  0.250004  1
  Dy  Dy4  1  0.002199  0.471185  0.749996  1
  Y  Y5  1  0.500000  0.500000  0.000000  1
  Au  Au6  1  0.000000  0.000000  0.500000  1
  Au  Au7  1  0.000000  0.000000  0.000000  1
  O  O8  1  0.669959  0.917967  0.475327  1
  O  O9  1  0.917967  0.669959  0.524673  1
  O  O10  1  0.670132  0.918398  0.024709  1
  O  O11  1  0.918398  0.670132  0.975291  1
  O  O12  1  0.330041  0.082033  0.524673  1
  O  O13  1  0.082033  0.330041  0.475327  1
  O  O14  1  0.329868  0.081602  0.975291  1
  O  O15  1  0.081602  0.329868  0.024709  1
  O  O16  1  0.920601  0.079399  0.749992  1
  O  O17  1  0.079399  0.920601  0.250008  1
  O  O18  1  0.367895  0.632105  0.749680  1
  O  O19  1  0.632105  0.367895  0.250320  1
  O  O20  1  0.638682  0.361318  0.749648  1
  O  O21  1  0.361318  0.638682  0.250352  1
