# generated using pymatgen
data_V3Si3TcOs5
_symmetry_space_group_name_H-M   'P 1'
_cell_length_a   4.23416223
_cell_length_b   5.97994833
_cell_length_c   12.65849301
_cell_angle_alpha   89.99994026
_cell_angle_beta   90.00419308
_cell_angle_gamma   89.96218653
_symmetry_Int_Tables_number   1
_chemical_formula_structural   V3Si3TcOs5
_chemical_formula_sum   'V6 Si6 Tc2 Os10'
_cell_volume   320.51387559
_cell_formula_units_Z   2
loop_
 _symmetry_equiv_pos_site_id
 _symmetry_equiv_pos_as_xyz
  1  'x, y, z'
loop_
 _atom_site_type_symbol
 _atom_site_label
 _atom_site_symmetry_multiplicity
 _atom_site_fract_x
 _atom_site_fract_y
 _atom_site_fract_z
 _atom_site_occupancy
  V  V0  1  0.000000  0.500001  0.000000  1
  V  V1  1  0.499744  0.000000  0.161069  1
  V  V2  1  0.999755  0.500000  0.332830  1
  V  V3  1  0.500000  0.000000  0.500000  1
  V  V4  1  0.000244  0.500002  0.667170  1
  V  V5  1  0.500255  0.000000  0.838931  1
  Si  Si6  1  0.000000  0.000000  0.000000  1
  Si  Si7  1  0.499714  0.499998  0.165847  1
  Si  Si8  1  0.999707  0.999999  0.333721  1
  Si  Si9  1  0.500000  0.500001  0.500000  1
  Si  Si10  1  0.000294  0.000001  0.666279  1
  Si  Si11  1  0.500288  0.500004  0.834153  1
  Tc  Tc12  1  0.500035  0.251124  0.000000  1
  Tc  Tc13  1  0.499965  0.748876  0.000000  1
  Os  Os14  1  0.999762  0.249058  0.168382  1
  Os  Os15  1  0.999813  0.750943  0.168382  1
  Os  Os16  1  0.499814  0.249880  0.333886  1
  Os  Os17  1  0.499784  0.750122  0.333886  1
  Os  Os18  1  0.999933  0.249027  0.500000  1
  Os  Os19  1  0.000067  0.750973  0.500000  1
  Os  Os20  1  0.500218  0.249878  0.666114  1
  Os  Os21  1  0.500188  0.750120  0.666114  1
  Os  Os22  1  0.000186  0.249057  0.831618  1
  Os  Os23  1  0.000237  0.750942  0.831618  1
