# generated using pymatgen
data_Ho3CdIn3NiIr
_symmetry_space_group_name_H-M   'P 1'
_cell_length_a   7.87141500
_cell_length_b   7.87141618
_cell_length_c   3.69873700
_cell_angle_alpha   90.00000000
_cell_angle_beta   90.00000000
_cell_angle_gamma   119.99999086
_symmetry_Int_Tables_number   1
_chemical_formula_structural   Ho3CdIn3NiIr
_chemical_formula_sum   'Ho3 Cd1 In3 Ni1 Ir1'
_cell_volume   198.46768705
_cell_formula_units_Z   1
loop_
 _symmetry_equiv_pos_site_id
 _symmetry_equiv_pos_as_xyz
  1  'x, y, z'
loop_
 _atom_site_type_symbol
 _atom_site_label
 _atom_site_symmetry_multiplicity
 _atom_site_fract_x
 _atom_site_fract_y
 _atom_site_fract_z
 _atom_site_occupancy
  Ho  Ho0  1  0.583040  0.617214  0.000000  1
  Ho  Ho1  1  0.382786  0.965826  0.000000  1
  Ho  Ho2  1  0.034174  0.416960  0.000000  1
  Cd  Cd3  1  0.666667  0.333333  0.500000  1
  In  In4  1  0.993870  0.745452  0.500000  1
  In  In5  1  0.254548  0.248418  0.500000  1
  In  In6  1  0.751582  0.006130  0.500000  1
  Ni  Ni7  1  0.000000  0.000000  0.000000  1
  Ir  Ir8  1  0.333333  0.666667  0.500000  1
