# generated using pymatgen
data_Sc2Ta(TcP)3
_symmetry_space_group_name_H-M   'P 1'
_cell_length_a   6.72069027
_cell_length_b   6.72069066
_cell_length_c   3.39057300
_cell_angle_alpha   90.00000000
_cell_angle_beta   90.00000000
_cell_angle_gamma   119.14914185
_symmetry_Int_Tables_number   1
_chemical_formula_structural   Sc2Ta(TcP)3
_chemical_formula_sum   'Sc2 Ta1 Tc3 P3'
_cell_volume   133.74932132
_cell_formula_units_Z   1
loop_
 _symmetry_equiv_pos_site_id
 _symmetry_equiv_pos_as_xyz
  1  'x, y, z'
loop_
 _atom_site_type_symbol
 _atom_site_label
 _atom_site_symmetry_multiplicity
 _atom_site_fract_x
 _atom_site_fract_y
 _atom_site_fract_z
 _atom_site_occupancy
  Sc  Sc0  1  0.593862  0.996399  0.500000  1
  Sc  Sc1  1  0.996399  0.593862  0.500000  1
  Ta  Ta2  1  0.406501  0.406501  0.500000  1
  Tc  Tc3  1  0.003442  0.251174  0.000000  1
  Tc  Tc4  1  0.251174  0.003442  0.000000  1
  Tc  Tc5  1  0.749227  0.749227  0.000000  1
  P  P6  1  0.662057  0.332920  0.000000  1
  P  P7  1  0.332920  0.662057  0.000000  1
  P  P8  1  0.004419  0.004419  0.500000  1
