# generated using pymatgen
data_Sr9CaSi10O
_symmetry_space_group_name_H-M   'P 1'
_cell_length_a   11.26325910
_cell_length_b   11.26325804
_cell_length_c   11.26325828
_cell_angle_alpha   155.47638797
_cell_angle_beta   110.52529108
_cell_angle_gamma   74.90554592
_symmetry_Int_Tables_number   1
_chemical_formula_structural   Sr9CaSi10O
_chemical_formula_sum   'Sr9 Ca1 Si10 O1'
_cell_volume   549.08435173
_cell_formula_units_Z   1
loop_
 _symmetry_equiv_pos_site_id
 _symmetry_equiv_pos_as_xyz
  1  'x, y, z'
loop_
 _atom_site_type_symbol
 _atom_site_label
 _atom_site_symmetry_multiplicity
 _atom_site_fract_x
 _atom_site_fract_y
 _atom_site_fract_z
 _atom_site_occupancy
  Sr  Sr0  1  0.847205  0.847205  0.000000  1
  Sr  Sr1  1  0.196264  0.000000  0.196264  1
  Sr  Sr2  1  0.474529  0.810404  0.664123  1
  Sr  Sr3  1  0.853719  0.189596  0.664123  1
  Sr  Sr4  1  0.803736  0.000000  0.803736  1
  Sr  Sr5  1  0.152795  0.152795  0.000000  1
  Sr  Sr6  1  0.525471  0.189596  0.335877  1
  Sr  Sr7  1  0.500000  0.000000  0.500000  1
  Sr  Sr8  1  0.146281  0.810404  0.335877  1
  Ca  Ca9  1  0.000000  0.500000  0.500000  1
  Si  Si10  1  0.412048  0.567614  0.844434  1
  Si  Si11  1  0.276820  0.432386  0.844434  1
  Si  Si12  1  0.587952  0.432386  0.155566  1
  Si  Si13  1  0.723180  0.567614  0.155566  1
  Si  Si14  1  0.689898  0.370433  0.319465  1
  Si  Si15  1  0.642164  0.642164  0.000000  1
  Si  Si16  1  0.310102  0.629567  0.680535  1
  Si  Si17  1  0.357836  0.357836  0.000000  1
  Si  Si18  1  0.050968  0.370433  0.680535  1
  Si  Si19  1  0.949032  0.629567  0.319465  1
  O  O20  1  0.000000  0.000000  0.000000  1
