# generated using pymatgen
data_YbPa3(Pd3Rh)3
_symmetry_space_group_name_H-M   'P 1'
_cell_length_a   5.78551500
_cell_length_b   5.78551442
_cell_length_c   9.52129300
_cell_angle_alpha   90.00000000
_cell_angle_beta   90.00000000
_cell_angle_gamma   120.00000906
_symmetry_Int_Tables_number   1
_chemical_formula_structural   YbPa3(Pd3Rh)3
_chemical_formula_sum   'Yb1 Pa3 Pd9 Rh3'
_cell_volume   276.00091759
_cell_formula_units_Z   1
loop_
 _symmetry_equiv_pos_site_id
 _symmetry_equiv_pos_as_xyz
  1  'x, y, z'
loop_
 _atom_site_type_symbol
 _atom_site_label
 _atom_site_symmetry_multiplicity
 _atom_site_fract_x
 _atom_site_fract_y
 _atom_site_fract_z
 _atom_site_occupancy
  Yb  Yb0  1  0.333333  0.666667  0.000000  1
  Pa  Pa1  1  0.666667  0.333333  0.500000  1
  Pa  Pa2  1  0.000000  0.000000  0.741667  1
  Pa  Pa3  1  0.000000  0.000000  0.258333  1
  Pd  Pd4  1  0.830973  0.169027  0.000000  1
  Pd  Pd5  1  0.830973  0.661946  0.000000  1
  Pd  Pd6  1  0.338054  0.169027  0.000000  1
  Pd  Pd7  1  0.998842  0.499422  0.751458  1
  Pd  Pd8  1  0.500578  0.499422  0.751458  1
  Pd  Pd9  1  0.500578  0.001158  0.751458  1
  Pd  Pd10  1  0.998842  0.499422  0.248542  1
  Pd  Pd11  1  0.500578  0.499422  0.248542  1
  Pd  Pd12  1  0.500578  0.001158  0.248542  1
  Rh  Rh13  1  0.168367  0.831633  0.500000  1
  Rh  Rh14  1  0.168367  0.336736  0.500000  1
  Rh  Rh15  1  0.663264  0.831633  0.500000  1
