# generated using pymatgen
data_Tb3In3CuHgAu
_symmetry_space_group_name_H-M   'P 1'
_cell_length_a   7.80308662
_cell_length_b   7.80612507
_cell_length_c   3.95369100
_cell_angle_alpha   90.00000000
_cell_angle_beta   90.00000000
_cell_angle_gamma   119.92751669
_symmetry_Int_Tables_number   1
_chemical_formula_structural   Tb3In3CuHgAu
_chemical_formula_sum   'Tb3 In3 Cu1 Hg1 Au1'
_cell_volume   208.71421576
_cell_formula_units_Z   1
loop_
 _symmetry_equiv_pos_site_id
 _symmetry_equiv_pos_as_xyz
  1  'x, y, z'
loop_
 _atom_site_type_symbol
 _atom_site_label
 _atom_site_symmetry_multiplicity
 _atom_site_fract_x
 _atom_site_fract_y
 _atom_site_fract_z
 _atom_site_occupancy
  Tb  Tb0  1  0.989520  0.595615  0.500000  1
  Tb  Tb1  1  0.404345  0.393793  0.500000  1
  Tb  Tb2  1  0.606124  0.010478  0.500000  1
  In  In3  1  0.755231  0.753516  0.000000  1
  In  In4  1  0.998358  0.244798  0.000000  1
  In  In5  1  0.246328  0.001562  0.000000  1
  Cu  Cu6  1  0.000126  0.000333  0.500000  1
  Hg  Hg7  1  0.333365  0.666635  0.000000  1
  Au  Au8  1  0.666602  0.333269  0.000000  1
