# generated using pymatgen
data_AsCl15
_symmetry_space_group_name_H-M   'P 1'
_cell_length_a   10.56871504
_cell_length_b   11.12994358
_cell_length_c   14.86174500
_cell_angle_alpha   65.60701488
_cell_angle_beta   125.58534113
_cell_angle_gamma   106.13225733
_symmetry_Int_Tables_number   1
_chemical_formula_structural   AsCl15
_chemical_formula_sum   'As2 Cl30'
_cell_volume   1293.13029312
_cell_formula_units_Z   2
loop_
 _symmetry_equiv_pos_site_id
 _symmetry_equiv_pos_as_xyz
  1  'x, y, z'
loop_
 _atom_site_type_symbol
 _atom_site_label
 _atom_site_symmetry_multiplicity
 _atom_site_fract_x
 _atom_site_fract_y
 _atom_site_fract_z
 _atom_site_occupancy
  As  As0  1  0.318672  0.163639  0.084127  1
  As  As1  1  0.681328  0.836361  0.915873  1
  Cl  Cl2  1  0.156866  0.311461  0.923230  1
  Cl  Cl3  1  0.843134  0.688539  0.076770  1
  Cl  Cl4  1  0.222427  0.983087  0.032521  1
  Cl  Cl5  1  0.777573  0.016913  0.967479  1
  Cl  Cl6  1  0.169584  0.713460  0.313667  1
  Cl  Cl7  1  0.830416  0.286540  0.686333  1
  Cl  Cl8  1  0.368157  0.671517  0.471448  1
  Cl  Cl9  1  0.631843  0.328483  0.528552  1
  Cl  Cl10  1  0.192806  0.597028  0.683450  1
  Cl  Cl11  1  0.807194  0.402972  0.316550  1
  Cl  Cl12  1  0.014174  0.339855  0.461655  1
  Cl  Cl13  1  0.985826  0.660145  0.538345  1
  Cl  Cl14  1  0.406185  0.243118  0.813308  1
  Cl  Cl15  1  0.593815  0.756882  0.186692  1
  Cl  Cl16  1  0.285007  0.996469  0.513761  1
  Cl  Cl17  1  0.714993  0.003531  0.486239  1
  Cl  Cl18  1  0.314381  0.428326  0.299294  1
  Cl  Cl19  1  0.685619  0.571674  0.700706  1
  Cl  Cl20  1  0.009558  0.891328  0.663534  1
  Cl  Cl21  1  0.990442  0.108672  0.336466  1
  Cl  Cl22  1  0.763218  0.604733  0.847838  1
  Cl  Cl23  1  0.236782  0.395267  0.152162  1
  Cl  Cl24  1  0.661388  0.751159  0.345487  1
  Cl  Cl25  1  0.338612  0.248841  0.654513  1
  Cl  Cl26  1  0.498184  0.923647  0.640744  1
  Cl  Cl27  1  0.501816  0.076353  0.359256  1
  Cl  Cl28  1  0.080688  0.946642  0.799583  1
  Cl  Cl29  1  0.919312  0.053358  0.200417  1
  Cl  Cl30  1  0.480112  0.786599  0.936392  1
  Cl  Cl31  1  0.519888  0.213401  0.063608  1
