# generated using pymatgen
data_Cs3(RuO4)2
_symmetry_space_group_name_H-M   'P 1'
_cell_length_a   6.50760506
_cell_length_b   6.50760506
_cell_length_c   8.80807254
_cell_angle_alpha   68.37799735
_cell_angle_beta   68.37799609
_cell_angle_gamma   60.92209881
_symmetry_Int_Tables_number   1
_chemical_formula_structural   Cs3(RuO4)2
_chemical_formula_sum   'Cs3 Ru2 O8'
_cell_volume   294.70922349
_cell_formula_units_Z   1
loop_
 _symmetry_equiv_pos_site_id
 _symmetry_equiv_pos_as_xyz
  1  'x, y, z'
loop_
 _atom_site_type_symbol
 _atom_site_label
 _atom_site_symmetry_multiplicity
 _atom_site_fract_x
 _atom_site_fract_y
 _atom_site_fract_z
 _atom_site_occupancy
  Cs  Cs0  1  0.007806  0.992194  0.000000  1
  Cs  Cs1  1  0.194575  0.215082  0.386165  1
  Cs  Cs2  1  0.784918  0.805425  0.613835  1
  Ru  Ru3  1  0.393901  0.416620  0.777235  1
  Ru  Ru4  1  0.583380  0.606099  0.222765  1
  O  O5  1  0.264270  0.718049  0.303821  1
  O  O6  1  0.708168  0.284827  0.286389  1
  O  O7  1  0.710436  0.720017  0.304088  1
  O  O8  1  0.715173  0.291832  0.713611  1
  O  O9  1  0.281951  0.735730  0.696179  1
  O  O10  1  0.279983  0.289564  0.695912  1
  O  O11  1  0.293737  0.356297  0.998568  1
  O  O12  1  0.643703  0.706263  0.001432  1
