# generated using pymatgen
data_Na12Mn3FeS8(O4F)8
_symmetry_space_group_name_H-M   'P 1'
_cell_length_a   6.73968800
_cell_length_b   8.94933400
_cell_length_c   14.24180400
_cell_angle_alpha   90.00000000
_cell_angle_beta   90.00000000
_cell_angle_gamma   90.00000000
_symmetry_Int_Tables_number   1
_chemical_formula_structural   Na12Mn3FeS8(O4F)8
_chemical_formula_sum   'Na12 Mn3 Fe1 S8 O32 F8'
_cell_volume   859.00464766
_cell_formula_units_Z   1
loop_
 _symmetry_equiv_pos_site_id
 _symmetry_equiv_pos_as_xyz
  1  'x, y, z'
loop_
 _atom_site_type_symbol
 _atom_site_label
 _atom_site_symmetry_multiplicity
 _atom_site_fract_x
 _atom_site_fract_y
 _atom_site_fract_z
 _atom_site_occupancy
  Na  Na0  1  0.522980  0.664798  0.905425  1
  Na  Na1  1  0.023450  0.834760  0.596604  1
  Na  Na2  1  0.476550  0.165240  0.596604  1
  Na  Na3  1  0.977020  0.335202  0.905425  1
  Na  Na4  1  0.477328  0.337399  0.094130  1
  Na  Na5  1  0.978815  0.166444  0.404931  1
  Na  Na6  1  0.521185  0.833556  0.404931  1
  Na  Na7  1  0.022672  0.662601  0.094130  1
  Na  Na8  1  0.750000  0.000000  0.049637  1
  Na  Na9  1  0.250000  0.500000  0.451824  1
  Na  Na10  1  0.250000  0.000000  0.949559  1
  Na  Na11  1  0.750000  0.500000  0.550014  1
  Mn  Mn12  1  0.750000  0.000000  0.801386  1
  Mn  Mn13  1  0.250000  0.500000  0.698666  1
  Mn  Mn14  1  0.250000  0.000000  0.197020  1
  Fe  Fe15  1  0.750000  0.500000  0.304199  1
  S  S16  1  0.007806  0.688224  0.855746  1
  S  S17  1  0.508139  0.812113  0.643809  1
  S  S18  1  0.991861  0.187887  0.643809  1
  S  S19  1  0.492194  0.311776  0.855746  1
  S  S20  1  0.993516  0.310795  0.143366  1
  S  S21  1  0.494672  0.192270  0.356296  1
  S  S22  1  0.005328  0.807730  0.356296  1
  S  S23  1  0.506484  0.689205  0.143366  1
  O  O24  1  0.440956  0.453784  0.800346  1
  O  O25  1  0.941074  0.046041  0.699462  1
  O  O26  1  0.558926  0.953959  0.699462  1
  O  O27  1  0.059044  0.546216  0.800346  1
  O  O28  1  0.557728  0.549478  0.199177  1
  O  O29  1  0.054318  0.945911  0.297607  1
  O  O30  1  0.445682  0.054089  0.297607  1
  O  O31  1  0.942272  0.450522  0.199177  1
  O  O32  1  0.189512  0.762103  0.888385  1
  O  O33  1  0.690040  0.738791  0.610997  1
  O  O34  1  0.809960  0.261209  0.610997  1
  O  O35  1  0.310488  0.237897  0.888385  1
  O  O36  1  0.811219  0.236848  0.110655  1
  O  O37  1  0.312472  0.264647  0.388798  1
  O  O38  1  0.187528  0.735353  0.388798  1
  O  O39  1  0.688781  0.763152  0.110655  1
  O  O40  1  0.884301  0.635615  0.934878  1
  O  O41  1  0.384531  0.864891  0.564613  1
  O  O42  1  0.115469  0.135109  0.564613  1
  O  O43  1  0.615699  0.364385  0.934878  1
  O  O44  1  0.117858  0.360658  0.063702  1
  O  O45  1  0.618078  0.137557  0.434623  1
  O  O46  1  0.881922  0.862443  0.434623  1
  O  O47  1  0.382142  0.639342  0.063702  1
  O  O48  1  0.391468  0.715661  0.708029  1
  O  O49  1  0.891078  0.784366  0.791268  1
  O  O50  1  0.608922  0.215634  0.791268  1
  O  O51  1  0.108532  0.284339  0.708029  1
  O  O52  1  0.614257  0.294029  0.294378  1
  O  O53  1  0.109429  0.213181  0.208010  1
  O  O54  1  0.390571  0.786819  0.208010  1
  O  O55  1  0.885743  0.705971  0.294378  1
  F  F56  1  0.579741  0.929122  0.899972  1
  F  F57  1  0.080082  0.571814  0.600132  1
  F  F58  1  0.419918  0.428186  0.600132  1
  F  F59  1  0.920259  0.070878  0.899972  1
  F  F60  1  0.419794  0.071361  0.098986  1
  F  F61  1  0.922839  0.428072  0.404524  1
  F  F62  1  0.577161  0.571928  0.404524  1
  F  F63  1  0.080206  0.928639  0.098986  1
