# generated using pymatgen
data_Yb2PrTl(Ru2O7)2
_symmetry_space_group_name_H-M   'P 1'
_cell_length_a   7.21257159
_cell_length_b   7.33425924
_cell_length_c   7.33425900
_cell_angle_alpha   60.03174402
_cell_angle_beta   59.40982529
_cell_angle_gamma   59.40982829
_symmetry_Int_Tables_number   1
_chemical_formula_structural   Yb2PrTl(Ru2O7)2
_chemical_formula_sum   'Yb2 Pr1 Tl1 Ru4 O14'
_cell_volume   271.93026803
_cell_formula_units_Z   1
loop_
 _symmetry_equiv_pos_site_id
 _symmetry_equiv_pos_as_xyz
  1  'x, y, z'
loop_
 _atom_site_type_symbol
 _atom_site_label
 _atom_site_symmetry_multiplicity
 _atom_site_fract_x
 _atom_site_fract_y
 _atom_site_fract_z
 _atom_site_occupancy
  Yb  Yb0  1  0.625000  0.625000  0.125000  1
  Yb  Yb1  1  0.625000  0.125000  0.625000  1
  Pr  Pr2  1  0.625000  0.625000  0.625000  1
  Tl  Tl3  1  0.125000  0.625000  0.625000  1
  Ru  Ru4  1  0.125000  0.125000  0.125000  1
  Ru  Ru5  1  0.625000  0.125000  0.125000  1
  Ru  Ru6  1  0.125000  0.125000  0.625000  1
  Ru  Ru7  1  0.125000  0.625000  0.125000  1
  O  O8  1  0.479675  0.501733  0.501733  1
  O  O9  1  0.770325  0.748267  0.748267  1
  O  O10  1  0.053742  0.057159  0.444875  1
  O  O11  1  0.792406  0.793669  0.203690  1
  O  O12  1  0.457594  0.046310  0.456331  1
  O  O13  1  0.452560  0.050501  0.050501  1
  O  O14  1  0.055371  0.447730  0.447730  1
  O  O15  1  0.053742  0.444875  0.057159  1
  O  O16  1  0.457594  0.456331  0.046310  1
  O  O17  1  0.194629  0.802270  0.802270  1
  O  O18  1  0.797440  0.199499  0.199499  1
  O  O19  1  0.196258  0.192841  0.805125  1
  O  O20  1  0.196258  0.805125  0.192841  1
  O  O21  1  0.792406  0.203690  0.793669  1
