# generated using pymatgen
data_Sr5ZnOs3O16
_symmetry_space_group_name_H-M   'P 1'
_cell_length_a   5.77576709
_cell_length_b   5.77941229
_cell_length_c   10.22613260
_cell_angle_alpha   93.72249026
_cell_angle_beta   93.65259909
_cell_angle_gamma   90.49891900
_symmetry_Int_Tables_number   1
_chemical_formula_structural   Sr5ZnOs3O16
_chemical_formula_sum   'Sr5 Zn1 Os3 O16'
_cell_volume   339.91342153
_cell_formula_units_Z   1
loop_
 _symmetry_equiv_pos_site_id
 _symmetry_equiv_pos_as_xyz
  1  'x, y, z'
loop_
 _atom_site_type_symbol
 _atom_site_label
 _atom_site_symmetry_multiplicity
 _atom_site_fract_x
 _atom_site_fract_y
 _atom_site_fract_z
 _atom_site_occupancy
  Sr  Sr0  1  0.514599  0.029191  0.191645  1
  Sr  Sr1  1  0.030157  0.513847  0.192124  1
  Sr  Sr2  1  0.999999  0.000076  0.500008  1
  Sr  Sr3  1  0.969833  0.486083  0.807898  1
  Sr  Sr4  1  0.485413  0.970852  0.808369  1
  Zn  Zn5  1  0.499996  0.499985  0.000014  1
  Os  Os6  1  0.000002  0.999968  0.999989  1
  Os  Os7  1  0.561608  0.561476  0.385636  1
  Os  Os8  1  0.438345  0.438504  0.614370  1
  O  O9  1  0.757745  0.232972  0.999788  1
  O  O10  1  0.772899  0.764651  0.033320  1
  O  O11  1  0.062577  0.064234  0.178844  1
  O  O12  1  0.464012  0.463231  0.196181  1
  O  O13  1  0.770032  0.770284  0.322556  1
  O  O14  1  0.309818  0.754204  0.372356  1
  O  O15  1  0.755233  0.310546  0.372579  1
  O  O16  1  0.318744  0.317878  0.440205  1
  O  O17  1  0.681280  0.682154  0.559786  1
  O  O18  1  0.244779  0.689464  0.627392  1
  O  O19  1  0.690186  0.245823  0.627645  1
  O  O20  1  0.229998  0.229746  0.677434  1
  O  O21  1  0.535960  0.536782  0.803816  1
  O  O22  1  0.937426  0.935745  0.821167  1
  O  O23  1  0.227109  0.235304  0.966682  1
  O  O24  1  0.242251  0.766990  0.000206  1
