# generated using pymatgen
data_Pr8Dy10Lu2Si15Ge
_symmetry_space_group_name_H-M   'P 1'
_cell_length_a   7.47897916
_cell_length_b   7.78500485
_cell_length_c   14.79611500
_cell_angle_alpha   89.89200279
_cell_angle_beta   89.98798003
_cell_angle_gamma   89.75523509
_symmetry_Int_Tables_number   1
_chemical_formula_structural   Pr8Dy10Lu2Si15Ge
_chemical_formula_sum   'Pr8 Dy10 Lu2 Si15 Ge1'
_cell_volume   861.47794997
_cell_formula_units_Z   1
loop_
 _symmetry_equiv_pos_site_id
 _symmetry_equiv_pos_as_xyz
  1  'x, y, z'
loop_
 _atom_site_type_symbol
 _atom_site_label
 _atom_site_symmetry_multiplicity
 _atom_site_fract_x
 _atom_site_fract_y
 _atom_site_fract_z
 _atom_site_occupancy
  Pr  Pr0  1  0.019391  0.178171  0.401390  1
  Pr  Pr1  1  0.521184  0.320645  0.400600  1
  Pr  Pr2  1  0.480970  0.677340  0.903396  1
  Pr  Pr3  1  0.481148  0.678979  0.598844  1
  Pr  Pr4  1  0.978683  0.821187  0.598803  1
  Pr  Pr5  1  0.979045  0.820776  0.902019  1
  Pr  Pr6  1  0.520825  0.322411  0.097534  1
  Pr  Pr7  1  0.020267  0.178920  0.096179  1
  Dy  Dy8  1  0.323719  0.175673  0.624550  1
  Dy  Dy9  1  0.676866  0.822567  0.376021  1
  Dy  Dy10  1  0.654412  0.989188  0.751130  1
  Dy  Dy11  1  0.174986  0.680187  0.376313  1
  Dy  Dy12  1  0.823108  0.320756  0.877188  1
  Dy  Dy13  1  0.822288  0.321423  0.623435  1
  Dy  Dy14  1  0.844987  0.489983  0.248583  1
  Dy  Dy15  1  0.344991  0.012123  0.249423  1
  Dy  Dy16  1  0.321905  0.176895  0.877932  1
  Dy  Dy17  1  0.176275  0.680187  0.121878  1
  Lu  Lu18  1  0.677513  0.822287  0.123461  1
  Lu  Lu19  1  0.155284  0.509860  0.752137  1
  Si  Si20  1  0.272748  0.875783  0.750957  1
  Si  Si21  1  0.470713  0.615585  0.248986  1
  Si  Si22  1  0.028921  0.111602  0.750487  1
  Si  Si23  1  0.526937  0.386808  0.750931  1
  Si  Si24  1  0.968932  0.888657  0.248020  1
  Si  Si25  1  0.727911  0.119470  0.248211  1
  Si  Si26  1  0.850241  0.534096  0.038938  1
  Si  Si27  1  0.357532  0.967918  0.040735  1
  Si  Si28  1  0.146365  0.469105  0.959833  1
  Si  Si29  1  0.646702  0.031846  0.539330  1
  Si  Si30  1  0.353094  0.968302  0.460743  1
  Si  Si31  1  0.848245  0.532814  0.460014  1
  Si  Si32  1  0.774983  0.619749  0.750542  1
  Si  Si33  1  0.227328  0.381875  0.249069  1
  Si  Si34  1  0.648671  0.030604  0.962288  1
  Ge  Ge35  1  0.152822  0.466232  0.540096  1
