# generated using pymatgen
data_Dy7Ho2ThRu4
_symmetry_space_group_name_H-M   'P 1'
_cell_length_a   6.37127089
_cell_length_b   7.27128893
_cell_length_c   8.56706037
_cell_angle_alpha   96.31114709
_cell_angle_beta   112.22597505
_cell_angle_gamma   90.66353748
_symmetry_Int_Tables_number   1
_chemical_formula_structural   Dy7Ho2ThRu4
_chemical_formula_sum   'Dy7 Ho2 Th1 Ru4'
_cell_volume   364.56337081
_cell_formula_units_Z   1
loop_
 _symmetry_equiv_pos_site_id
 _symmetry_equiv_pos_as_xyz
  1  'x, y, z'
loop_
 _atom_site_type_symbol
 _atom_site_label
 _atom_site_symmetry_multiplicity
 _atom_site_fract_x
 _atom_site_fract_y
 _atom_site_fract_z
 _atom_site_occupancy
  Dy  Dy0  1  0.790229  0.582947  0.810172  1
  Dy  Dy1  1  0.022280  0.085257  0.812378  1
  Dy  Dy2  1  0.208890  0.415842  0.184790  1
  Dy  Dy3  1  0.639981  0.815537  0.436549  1
  Dy  Dy4  1  0.208912  0.684600  0.568074  1
  Dy  Dy5  1  0.358253  0.186973  0.568216  1
  Dy  Dy6  1  0.792988  0.314028  0.435565  1
  Ho  Ho7  1  0.419850  0.747717  0.997500  1
  Ho  Ho8  1  0.578704  0.250436  0.999807  1
  Th  Th9  1  0.986100  0.908251  0.187477  1
  Ru  Ru10  1  0.828787  0.587786  0.220089  1
  Ru  Ru11  1  0.607389  0.925324  0.782857  1
  Ru  Ru12  1  0.176594  0.424088  0.777598  1
  Ru  Ru13  1  0.381045  0.071213  0.218928  1
