# generated using pymatgen
data_Dy7ErV4O20
_symmetry_space_group_name_H-M   'P 1'
_cell_length_a   3.72549600
_cell_length_b   10.34252644
_cell_length_c   11.27383548
_cell_angle_alpha   90.03351441
_cell_angle_beta   90.00000000
_cell_angle_gamma   90.00000000
_symmetry_Int_Tables_number   1
_chemical_formula_structural   Dy7ErV4O20
_chemical_formula_sum   'Dy7 Er1 V4 O20'
_cell_volume   434.39254165
_cell_formula_units_Z   1
loop_
 _symmetry_equiv_pos_site_id
 _symmetry_equiv_pos_as_xyz
  1  'x, y, z'
loop_
 _atom_site_type_symbol
 _atom_site_label
 _atom_site_symmetry_multiplicity
 _atom_site_fract_x
 _atom_site_fract_y
 _atom_site_fract_z
 _atom_site_occupancy
  Dy  Dy0  1  0.250000  0.122578  0.272514  1
  Dy  Dy1  1  0.250000  0.136728  0.944124  1
  Dy  Dy2  1  0.750000  0.362811  0.444782  1
  Dy  Dy3  1  0.750000  0.377416  0.772390  1
  Dy  Dy4  1  0.250000  0.622442  0.227527  1
  Dy  Dy5  1  0.250000  0.637411  0.555571  1
  Dy  Dy6  1  0.750000  0.862947  0.055074  1
  Er  Er7  1  0.750000  0.876330  0.727948  1
  V  V8  1  0.250000  0.166367  0.616149  1
  V  V9  1  0.750000  0.332974  0.115965  1
  V  V10  1  0.250000  0.667391  0.883722  1
  V  V11  1  0.750000  0.833108  0.384356  1
  O  O12  1  0.750000  0.003605  0.893132  1
  O  O13  1  0.250000  0.002611  0.651839  1
  O  O14  1  0.250000  0.225986  0.455693  1
  O  O15  1  0.750000  0.246304  0.266993  1
  O  O16  1  0.750000  0.231379  0.613716  1
  O  O17  1  0.250000  0.268534  0.113715  1
  O  O18  1  0.250000  0.253695  0.767019  1
  O  O19  1  0.750000  0.273673  0.955562  1
  O  O20  1  0.750000  0.496774  0.151004  1
  O  O21  1  0.250000  0.495569  0.394491  1
  O  O22  1  0.750000  0.504724  0.605579  1
  O  O23  1  0.250000  0.503540  0.848897  1
  O  O24  1  0.250000  0.726067  0.044235  1
  O  O25  1  0.750000  0.746432  0.233088  1
  O  O26  1  0.750000  0.731894  0.885502  1
  O  O27  1  0.250000  0.768522  0.386467  1
  O  O28  1  0.250000  0.755349  0.733247  1
  O  O29  1  0.750000  0.774686  0.545345  1
  O  O30  1  0.750000  0.996685  0.348963  1
  O  O31  1  0.250000  0.995470  0.105389  1
