# generated using pymatgen
data_ErTh3(CdPd2)2
_symmetry_space_group_name_H-M   'P 1'
_cell_length_a   7.88581978
_cell_length_b   7.88581978
_cell_length_c   3.81530200
_cell_angle_alpha   90.00000000
_cell_angle_beta   90.00000000
_cell_angle_gamma   90.58220080
_symmetry_Int_Tables_number   1
_chemical_formula_structural   ErTh3(CdPd2)2
_chemical_formula_sum   'Er1 Th3 Cd2 Pd4'
_cell_volume   237.24670745
_cell_formula_units_Z   1
loop_
 _symmetry_equiv_pos_site_id
 _symmetry_equiv_pos_as_xyz
  1  'x, y, z'
loop_
 _atom_site_type_symbol
 _atom_site_label
 _atom_site_symmetry_multiplicity
 _atom_site_fract_x
 _atom_site_fract_y
 _atom_site_fract_z
 _atom_site_occupancy
  Er  Er0  1  0.825316  0.674684  0.500000  1
  Th  Th1  1  0.676584  0.172447  0.500000  1
  Th  Th2  1  0.327553  0.823416  0.500000  1
  Th  Th3  1  0.170993  0.329007  0.500000  1
  Cd  Cd4  1  0.997979  0.995944  0.000000  1
  Cd  Cd5  1  0.504056  0.502021  0.000000  1
  Pd  Pd6  1  0.127331  0.627907  0.000000  1
  Pd  Pd7  1  0.872093  0.372669  0.000000  1
  Pd  Pd8  1  0.626603  0.873397  0.000000  1
  Pd  Pd9  1  0.371491  0.128509  0.000000  1
