# generated using pymatgen
data_Sm3TiMnC6
_symmetry_space_group_name_H-M   'P 1'
_cell_length_a   8.30961600
_cell_length_b   8.30961625
_cell_length_c   5.13592000
_cell_angle_alpha   90.00000000
_cell_angle_beta   90.00000000
_cell_angle_gamma   119.99998306
_symmetry_Int_Tables_number   1
_chemical_formula_structural   Sm3TiMnC6
_chemical_formula_sum   'Sm6 Ti2 Mn2 C12'
_cell_volume   307.12196591
_cell_formula_units_Z   2
loop_
 _symmetry_equiv_pos_site_id
 _symmetry_equiv_pos_as_xyz
  1  'x, y, z'
loop_
 _atom_site_type_symbol
 _atom_site_label
 _atom_site_symmetry_multiplicity
 _atom_site_fract_x
 _atom_site_fract_y
 _atom_site_fract_z
 _atom_site_occupancy
  Sm  Sm0  1  0.615625  0.679087  0.750000  1
  Sm  Sm1  1  0.936538  0.615625  0.250000  1
  Sm  Sm2  1  0.679087  0.063462  0.250000  1
  Sm  Sm3  1  0.320913  0.936538  0.750000  1
  Sm  Sm4  1  0.063462  0.384375  0.750000  1
  Sm  Sm5  1  0.384375  0.320913  0.250000  1
  Ti  Ti6  1  0.000000  0.000000  0.500000  1
  Ti  Ti7  1  0.000000  0.000000  0.000000  1
  Mn  Mn8  1  0.666667  0.333333  0.750000  1
  Mn  Mn9  1  0.333333  0.666667  0.250000  1
  C  C10  1  0.958650  0.760525  0.750000  1
  C  C11  1  0.198125  0.958650  0.250000  1
  C  C12  1  0.760525  0.801875  0.250000  1
  C  C13  1  0.239475  0.198125  0.750000  1
  C  C14  1  0.801875  0.041350  0.750000  1
  C  C15  1  0.041350  0.239475  0.250000  1
  C  C16  1  0.858234  0.570202  0.750000  1
  C  C17  1  0.288031  0.858234  0.250000  1
  C  C18  1  0.570202  0.711969  0.250000  1
  C  C19  1  0.429798  0.288031  0.750000  1
  C  C20  1  0.141766  0.429798  0.250000  1
  C  C21  1  0.711969  0.141766  0.750000  1
