# generated using pymatgen
data_Ho11ErOs3Pt
_symmetry_space_group_name_H-M   'P 1'
_cell_length_a   6.38443508
_cell_length_b   7.33965687
_cell_length_c   9.01625600
_cell_angle_alpha   90.00000000
_cell_angle_beta   90.00000000
_cell_angle_gamma   90.15451622
_symmetry_Int_Tables_number   1
_chemical_formula_structural   Ho11ErOs3Pt
_chemical_formula_sum   'Ho11 Er1 Os3 Pt1'
_cell_volume   422.49627793
_cell_formula_units_Z   1
loop_
 _symmetry_equiv_pos_site_id
 _symmetry_equiv_pos_as_xyz
  1  'x, y, z'
loop_
 _atom_site_type_symbol
 _atom_site_label
 _atom_site_symmetry_multiplicity
 _atom_site_fract_x
 _atom_site_fract_y
 _atom_site_fract_z
 _atom_site_occupancy
  Ho  Ho0  1  0.335768  0.671797  0.058947  1
  Ho  Ho1  1  0.171199  0.181630  0.441351  1
  Ho  Ho2  1  0.669944  0.323745  0.562383  1
  Ho  Ho3  1  0.825138  0.823468  0.933728  1
  Ho  Ho4  1  0.669944  0.323745  0.937617  1
  Ho  Ho5  1  0.825138  0.823468  0.566272  1
  Ho  Ho6  1  0.335768  0.671797  0.441053  1
  Ho  Ho7  1  0.171199  0.181630  0.058649  1
  Ho  Ho8  1  0.873519  0.533522  0.250000  1
  Ho  Ho9  1  0.623780  0.038794  0.250000  1
  Ho  Ho10  1  0.124844  0.462711  0.750000  1
  Er  Er11  1  0.370161  0.963020  0.750000  1
  Os  Os12  1  0.461592  0.384255  0.250000  1
  Os  Os13  1  0.964602  0.114788  0.750000  1
  Os  Os14  1  0.533573  0.615483  0.750000  1
  Pt  Pt15  1  0.043832  0.886147  0.250000  1
