# generated using pymatgen
data_TbVCo(PRh)3
_symmetry_space_group_name_H-M   'P 1'
_cell_length_a   3.81265600
_cell_length_b   10.74900700
_cell_length_c   12.40756800
_cell_angle_alpha   90.00000000
_cell_angle_beta   90.00000000
_cell_angle_gamma   90.00000000
_symmetry_Int_Tables_number   1
_chemical_formula_structural   TbVCo(PRh)3
_chemical_formula_sum   'Tb4 V4 Co4 P12 Rh12'
_cell_volume   508.49025259
_cell_formula_units_Z   4
loop_
 _symmetry_equiv_pos_site_id
 _symmetry_equiv_pos_as_xyz
  1  'x, y, z'
loop_
 _atom_site_type_symbol
 _atom_site_label
 _atom_site_symmetry_multiplicity
 _atom_site_fract_x
 _atom_site_fract_y
 _atom_site_fract_z
 _atom_site_occupancy
  Tb  Tb0  1  0.250000  0.582493  0.707699  1
  Tb  Tb1  1  0.250000  0.917507  0.207699  1
  Tb  Tb2  1  0.750000  0.417507  0.292301  1
  Tb  Tb3  1  0.750000  0.082493  0.792301  1
  V  V4  1  0.250000  0.704036  0.986632  1
  V  V5  1  0.250000  0.795964  0.486632  1
  V  V6  1  0.750000  0.295964  0.013368  1
  V  V7  1  0.750000  0.204036  0.513368  1
  Co  Co8  1  0.250000  0.465845  0.937394  1
  Co  Co9  1  0.250000  0.034155  0.437394  1
  Co  Co10  1  0.750000  0.534155  0.062606  1
  Co  Co11  1  0.750000  0.965845  0.562606  1
  P  P12  1  0.250000  0.421135  0.107631  1
  P  P13  1  0.250000  0.078865  0.607631  1
  P  P14  1  0.750000  0.578865  0.892369  1
  P  P15  1  0.750000  0.921135  0.392369  1
  P  P16  1  0.250000  0.270699  0.873762  1
  P  P17  1  0.250000  0.229301  0.373762  1
  P  P18  1  0.750000  0.729301  0.126238  1
  P  P19  1  0.750000  0.770699  0.626238  1
  P  P20  1  0.250000  0.601894  0.391403  1
  P  P21  1  0.250000  0.898106  0.891403  1
  P  P22  1  0.750000  0.398106  0.608597  1
  P  P23  1  0.750000  0.101894  0.108597  1
  Rh  Rh24  1  0.250000  0.404425  0.486268  1
  Rh  Rh25  1  0.250000  0.095575  0.986268  1
  Rh  Rh26  1  0.750000  0.595575  0.513732  1
  Rh  Rh27  1  0.750000  0.904425  0.013732  1
  Rh  Rh28  1  0.250000  0.227718  0.180114  1
  Rh  Rh29  1  0.250000  0.272282  0.680114  1
  Rh  Rh30  1  0.750000  0.772282  0.819886  1
  Rh  Rh31  1  0.750000  0.727718  0.319886  1
  Rh  Rh32  1  0.250000  0.889460  0.696471  1
  Rh  Rh33  1  0.250000  0.610540  0.196471  1
  Rh  Rh34  1  0.750000  0.110540  0.303529  1
  Rh  Rh35  1  0.750000  0.389460  0.803529  1
