# generated using pymatgen
data_Sr4H12PdAu
_symmetry_space_group_name_H-M   'P 1'
_cell_length_a   7.37686340
_cell_length_b   7.37686386
_cell_length_c   5.69498827
_cell_angle_alpha   90.03891178
_cell_angle_beta   90.03890336
_cell_angle_gamma   134.55855085
_symmetry_Int_Tables_number   1
_chemical_formula_structural   Sr4H12PdAu
_chemical_formula_sum   'Sr4 H12 Pd1 Au1'
_cell_volume   220.82139664
_cell_formula_units_Z   1
loop_
 _symmetry_equiv_pos_site_id
 _symmetry_equiv_pos_as_xyz
  1  'x, y, z'
loop_
 _atom_site_type_symbol
 _atom_site_label
 _atom_site_symmetry_multiplicity
 _atom_site_fract_x
 _atom_site_fract_y
 _atom_site_fract_z
 _atom_site_occupancy
  Sr  Sr0  1  0.647030  0.352970  0.000000  1
  Sr  Sr1  1  0.352970  0.647030  0.000000  1
  Sr  Sr2  1  0.852468  0.147532  0.500000  1
  Sr  Sr3  1  0.147532  0.852468  0.500000  1
  H  H4  1  0.876675  0.123325  0.000000  1
  H  H5  1  0.123325  0.876675  0.000000  1
  H  H6  1  0.623320  0.376680  0.500000  1
  H  H7  1  0.376680  0.623320  0.500000  1
  H  H8  1  0.000336  0.500008  0.249415  1
  H  H9  1  0.999664  0.499992  0.750585  1
  H  H10  1  0.499992  0.999664  0.750585  1
  H  H11  1  0.500008  0.000336  0.249415  1
  H  H12  1  0.276420  0.276420  0.280871  1
  H  H13  1  0.723580  0.723580  0.719129  1
  H  H14  1  0.283226  0.283226  0.724392  1
  H  H15  1  0.716774  0.716774  0.275608  1
  Pd  Pd16  1  0.500000  0.500000  0.500000  1
  Au  Au17  1  0.000000  0.000000  0.000000  1
