# generated using pymatgen
data_TbEr2Co7(P3Ir)2
_symmetry_space_group_name_H-M   'P 1'
_cell_length_a   3.72876800
_cell_length_b   10.62467300
_cell_length_c   12.38373000
_cell_angle_alpha   90.00000000
_cell_angle_beta   90.00000000
_cell_angle_gamma   90.00000000
_symmetry_Int_Tables_number   1
_chemical_formula_structural   TbEr2Co7(P3Ir)2
_chemical_formula_sum   'Tb2 Er4 Co14 P12 Ir4'
_cell_volume   490.60549697
_cell_formula_units_Z   2
loop_
 _symmetry_equiv_pos_site_id
 _symmetry_equiv_pos_as_xyz
  1  'x, y, z'
loop_
 _atom_site_type_symbol
 _atom_site_label
 _atom_site_symmetry_multiplicity
 _atom_site_fract_x
 _atom_site_fract_y
 _atom_site_fract_z
 _atom_site_occupancy
  Tb  Tb0  1  0.750000  0.250000  0.479992  1
  Tb  Tb1  1  0.250000  0.750000  0.520008  1
  Er  Er2  1  0.250000  0.936684  0.794076  1
  Er  Er3  1  0.250000  0.563316  0.794076  1
  Er  Er4  1  0.750000  0.063316  0.205924  1
  Er  Er5  1  0.750000  0.436684  0.205924  1
  Co  Co6  1  0.750000  0.250000  0.011682  1
  Co  Co7  1  0.250000  0.750000  0.988318  1
  Co  Co8  1  0.250000  0.417846  0.006628  1
  Co  Co9  1  0.250000  0.082154  0.006628  1
  Co  Co10  1  0.750000  0.582154  0.993372  1
  Co  Co11  1  0.750000  0.917846  0.993372  1
  Co  Co12  1  0.250000  0.450009  0.571798  1
  Co  Co13  1  0.250000  0.049991  0.571798  1
  Co  Co14  1  0.750000  0.549991  0.428202  1
  Co  Co15  1  0.750000  0.950009  0.428202  1
  Co  Co16  1  0.250000  0.869565  0.287920  1
  Co  Co17  1  0.250000  0.630435  0.287920  1
  Co  Co18  1  0.750000  0.130435  0.712080  1
  Co  Co19  1  0.750000  0.369565  0.712080  1
  P  P20  1  0.250000  0.250000  0.110286  1
  P  P21  1  0.750000  0.750000  0.889714  1
  P  P22  1  0.250000  0.250000  0.650159  1
  P  P23  1  0.750000  0.750000  0.349841  1
  P  P24  1  0.250000  0.447899  0.386529  1
  P  P25  1  0.250000  0.052101  0.386529  1
  P  P26  1  0.750000  0.552101  0.613471  1
  P  P27  1  0.750000  0.947899  0.613471  1
  P  P28  1  0.250000  0.905748  0.105537  1
  P  P29  1  0.250000  0.594252  0.105537  1
  P  P30  1  0.750000  0.094252  0.894463  1
  P  P31  1  0.750000  0.405748  0.894463  1
  Ir  Ir32  1  0.250000  0.250000  0.840035  1
  Ir  Ir33  1  0.750000  0.750000  0.159965  1
  Ir  Ir34  1  0.250000  0.250000  0.295568  1
  Ir  Ir35  1  0.750000  0.750000  0.704432  1
