# generated using pymatgen
data_NdTlAg2(Pt2O7)2
_symmetry_space_group_name_H-M   'P 1'
_cell_length_a   7.38951677
_cell_length_b   7.30541240
_cell_length_c   7.30541060
_cell_angle_alpha   59.23738323
_cell_angle_beta   59.38988513
_cell_angle_gamma   59.38988517
_symmetry_Int_Tables_number   1
_chemical_formula_structural   NdTlAg2(Pt2O7)2
_chemical_formula_sum   'Nd1 Tl1 Ag2 Pt4 O14'
_cell_volume   274.66550162
_cell_formula_units_Z   1
loop_
 _symmetry_equiv_pos_site_id
 _symmetry_equiv_pos_as_xyz
  1  'x, y, z'
loop_
 _atom_site_type_symbol
 _atom_site_label
 _atom_site_symmetry_multiplicity
 _atom_site_fract_x
 _atom_site_fract_y
 _atom_site_fract_z
 _atom_site_occupancy
  Nd  Nd0  1  0.125000  0.625000  0.625000  1
  Tl  Tl1  1  0.625000  0.625000  0.625000  1
  Ag  Ag2  1  0.625000  0.625000  0.125000  1
  Ag  Ag3  1  0.625000  0.125000  0.625000  1
  Pt  Pt4  1  0.125000  0.125000  0.625000  1
  Pt  Pt5  1  0.125000  0.625000  0.125000  1
  Pt  Pt6  1  0.625000  0.125000  0.125000  1
  Pt  Pt7  1  0.125000  0.125000  0.125000  1
  O  O8  1  0.526623  0.480143  0.480143  1
  O  O9  1  0.723377  0.769857  0.769857  1
  O  O10  1  0.455490  0.038752  0.458280  1
  O  O11  1  0.198895  0.791986  0.213792  1
  O  O12  1  0.455490  0.458280  0.038752  1
  O  O13  1  0.039770  0.462330  0.462330  1
  O  O14  1  0.453173  0.046849  0.046849  1
  O  O15  1  0.051105  0.036208  0.458014  1
  O  O16  1  0.051105  0.458014  0.036208  1
  O  O17  1  0.796827  0.203151  0.203151  1
  O  O18  1  0.210230  0.787670  0.787670  1
  O  O19  1  0.794510  0.211248  0.791720  1
  O  O20  1  0.198895  0.213792  0.791986  1
  O  O21  1  0.794510  0.791720  0.211248  1
