# generated using pymatgen
data_Np6FeCo11(SiB2)2
_symmetry_space_group_name_H-M   'P 1'
_cell_length_a   5.11928500
_cell_length_b   5.14858154
_cell_length_c   13.17415846
_cell_angle_alpha   90.21463525
_cell_angle_beta   90.00000000
_cell_angle_gamma   119.81195342
_symmetry_Int_Tables_number   1
_chemical_formula_structural   Np6FeCo11(SiB2)2
_chemical_formula_sum   'Np6 Fe1 Co11 Si2 B4'
_cell_volume   301.27714854
_cell_formula_units_Z   1
loop_
 _symmetry_equiv_pos_site_id
 _symmetry_equiv_pos_as_xyz
  1  'x, y, z'
loop_
 _atom_site_type_symbol
 _atom_site_label
 _atom_site_symmetry_multiplicity
 _atom_site_fract_x
 _atom_site_fract_y
 _atom_site_fract_z
 _atom_site_occupancy
  Np  Np0  1  0.332420  0.664840  0.249550  1
  Np  Np1  1  0.668116  0.336232  0.750694  1
  Np  Np2  1  0.331532  0.663064  0.040877  1
  Np  Np3  1  0.666946  0.333889  0.542984  1
  Np  Np4  1  0.670629  0.341256  0.960471  1
  Np  Np5  1  0.332031  0.664062  0.457487  1
  Fe  Fe6  1  0.831265  0.662529  0.143507  1
  Co  Co7  1  0.167490  0.834337  0.645069  1
  Co  Co8  1  0.666846  0.834337  0.645069  1
  Co  Co9  1  0.331031  0.162235  0.144530  1
  Co  Co10  1  0.831205  0.162235  0.144530  1
  Co  Co11  1  0.168506  0.337010  0.854955  1
  Co  Co12  1  0.169939  0.837651  0.855010  1
  Co  Co13  1  0.167186  0.334371  0.645202  1
  Co  Co14  1  0.667714  0.837651  0.855010  1
  Co  Co15  1  0.333370  0.165426  0.355530  1
  Co  Co16  1  0.832475  0.664950  0.354540  1
  Co  Co17  1  0.832056  0.165426  0.355530  1
  Si  Si18  1  0.000654  0.001308  0.999533  1
  Si  Si19  1  0.999612  0.999223  0.500139  1
  B  B20  1  0.998760  0.997522  0.249889  1
  B  B21  1  0.001043  0.002084  0.750043  1
  B  B22  1  0.334045  0.668092  0.750008  1
  B  B23  1  0.665133  0.330266  0.249842  1
