# generated using pymatgen
data_La5Yb3(MgCo)2
_symmetry_space_group_name_H-M   'P 1'
_cell_length_a   10.03869894
_cell_length_b   10.03869898
_cell_length_c   10.03869900
_cell_angle_alpha   59.99999663
_cell_angle_beta   59.99999652
_cell_angle_gamma   59.99999589
_symmetry_Int_Tables_number   1
_chemical_formula_structural   La5Yb3(MgCo)2
_chemical_formula_sum   'La10 Yb6 Mg4 Co4'
_cell_volume   715.34782390
_cell_formula_units_Z   2
loop_
 _symmetry_equiv_pos_site_id
 _symmetry_equiv_pos_as_xyz
  1  'x, y, z'
loop_
 _atom_site_type_symbol
 _atom_site_label
 _atom_site_symmetry_multiplicity
 _atom_site_fract_x
 _atom_site_fract_y
 _atom_site_fract_z
 _atom_site_occupancy
  La  La0  1  0.812257  0.187743  0.187743  1
  La  La1  1  0.187742  0.812257  0.812257  1
  La  La2  1  0.187743  0.812257  0.187743  1
  La  La3  1  0.187743  0.187743  0.812257  1
  La  La4  1  0.812257  0.187742  0.812257  1
  La  La5  1  0.812257  0.812257  0.187742  1
  La  La6  1  0.342311  0.342311  0.342311  1
  La  La7  1  0.342311  0.342311  0.973065  1
  La  La8  1  0.973065  0.342311  0.342311  1
  La  La9  1  0.342311  0.973065  0.342311  1
  Yb  Yb10  1  0.940412  0.559587  0.559587  1
  Yb  Yb11  1  0.559587  0.940413  0.940413  1
  Yb  Yb12  1  0.559587  0.940412  0.559587  1
  Yb  Yb13  1  0.559587  0.559587  0.940412  1
  Yb  Yb14  1  0.940413  0.559587  0.940413  1
  Yb  Yb15  1  0.940413  0.940413  0.559587  1
  Mg  Mg16  1  0.578033  0.578033  0.578033  1
  Mg  Mg17  1  0.578033  0.578033  0.265898  1
  Mg  Mg18  1  0.265898  0.578033  0.578033  1
  Mg  Mg19  1  0.578033  0.265898  0.578033  1
  Co  Co20  1  0.138703  0.138703  0.138703  1
  Co  Co21  1  0.138703  0.138703  0.583892  1
  Co  Co22  1  0.583892  0.138703  0.138703  1
  Co  Co23  1  0.138703  0.583892  0.138703  1
