# generated using pymatgen
data_Ta9V2GeW2
_symmetry_space_group_name_H-M   'P 1'
_cell_length_a   5.17013684
_cell_length_b   10.02286173
_cell_length_c   10.02286101
_cell_angle_alpha   86.23253010
_cell_angle_beta   75.11220502
_cell_angle_gamma   75.11220989
_symmetry_Int_Tables_number   1
_chemical_formula_structural   Ta9V2GeW2
_chemical_formula_sum   'Ta18 V4 Ge2 W4'
_cell_volume   485.09525310
_cell_formula_units_Z   2
loop_
 _symmetry_equiv_pos_site_id
 _symmetry_equiv_pos_as_xyz
  1  'x, y, z'
loop_
 _atom_site_type_symbol
 _atom_site_label
 _atom_site_symmetry_multiplicity
 _atom_site_fract_x
 _atom_site_fract_y
 _atom_site_fract_z
 _atom_site_occupancy
  Ta  Ta0  1  0.750000  0.500098  0.499902  1
  Ta  Ta1  1  0.250000  0.499902  0.500098  1
  Ta  Ta2  1  0.792822  0.772457  0.641460  1
  Ta  Ta3  1  0.207178  0.227543  0.358540  1
  Ta  Ta4  1  0.707178  0.358540  0.227543  1
  Ta  Ta5  1  0.292822  0.641460  0.772457  1
  Ta  Ta6  1  0.565547  0.641459  0.227521  1
  Ta  Ta7  1  0.434453  0.358541  0.772479  1
  Ta  Ta8  1  0.065547  0.227521  0.641459  1
  Ta  Ta9  1  0.934453  0.772479  0.358541  1
  Ta  Ta10  1  0.586465  0.072962  0.754516  1
  Ta  Ta11  1  0.413535  0.927038  0.245484  1
  Ta  Ta12  1  0.913535  0.245484  0.927038  1
  Ta  Ta13  1  0.086465  0.754516  0.072962  1
  Ta  Ta14  1  0.659064  0.754539  0.927012  1
  Ta  Ta15  1  0.340936  0.245461  0.072988  1
  Ta  Ta16  1  0.159064  0.927012  0.754539  1
  Ta  Ta17  1  0.840936  0.072988  0.245461  1
  V  V18  1  0.500000  0.000000  0.500000  1
  V  V19  1  0.000000  0.000000  0.500000  1
  V  V20  1  0.500000  0.500000  0.000000  1
  V  V21  1  0.000000  0.500000  0.000000  1
  Ge  Ge22  1  0.250000  0.999928  0.000072  1
  Ge  Ge23  1  0.750000  0.000072  0.999928  1
  W  W24  1  0.133326  0.499945  0.233488  1
  W  W25  1  0.866674  0.500055  0.766512  1
  W  W26  1  0.366674  0.766512  0.500055  1
  W  W27  1  0.633326  0.233488  0.499945  1
