# generated using pymatgen
data_ErTm2Cu4Si3Ge
_symmetry_space_group_name_H-M   'P 1'
_cell_length_a   7.79452126
_cell_length_b   7.79452178
_cell_length_c   7.79452089
_cell_angle_alpha   149.49371445
_cell_angle_beta   130.53340489
_cell_angle_gamma   59.23855964
_symmetry_Int_Tables_number   1
_chemical_formula_structural   ErTm2Cu4Si3Ge
_chemical_formula_sum   'Er1 Tm2 Cu4 Si3 Ge1'
_cell_volume   181.25644929
_cell_formula_units_Z   1
loop_
 _symmetry_equiv_pos_site_id
 _symmetry_equiv_pos_as_xyz
  1  'x, y, z'
loop_
 _atom_site_type_symbol
 _atom_site_label
 _atom_site_symmetry_multiplicity
 _atom_site_fract_x
 _atom_site_fract_y
 _atom_site_fract_z
 _atom_site_occupancy
  Er  Er0  1  0.497852  0.000000  0.497852  1
  Tm  Tm1  1  0.872263  0.870736  0.001527  1
  Tm  Tm2  1  0.130791  0.129264  0.001527  1
  Cu  Cu3  1  0.518151  0.327610  0.190540  1
  Cu  Cu4  1  0.862930  0.672390  0.190540  1
  Cu  Cu5  1  0.139586  0.331060  0.808526  1
  Cu  Cu6  1  0.477466  0.668940  0.808526  1
  Si  Si7  1  0.189205  0.500000  0.689205  1
  Si  Si8  1  0.283768  0.783818  0.499950  1
  Si  Si9  1  0.716133  0.216182  0.499950  1
  Ge  Ge10  1  0.811856  0.500000  0.311856  1
