# generated using pymatgen
data_Hf2Zr4Sn6Ir5Rh
_symmetry_space_group_name_H-M   'P 1'
_cell_length_a   7.40571912
_cell_length_b   7.41292496
_cell_length_c   7.33415200
_cell_angle_alpha   90.00000000
_cell_angle_beta   90.00000000
_cell_angle_gamma   119.88330062
_symmetry_Int_Tables_number   1
_chemical_formula_structural   Hf2Zr4Sn6Ir5Rh
_chemical_formula_sum   'Hf2 Zr4 Sn6 Ir5 Rh1'
_cell_volume   349.09761537
_cell_formula_units_Z   1
loop_
 _symmetry_equiv_pos_site_id
 _symmetry_equiv_pos_as_xyz
  1  'x, y, z'
loop_
 _atom_site_type_symbol
 _atom_site_label
 _atom_site_symmetry_multiplicity
 _atom_site_fract_x
 _atom_site_fract_y
 _atom_site_fract_z
 _atom_site_occupancy
  Hf  Hf0  1  0.599145  0.615441  0.750000  1
  Hf  Hf1  1  0.015203  0.400329  0.750000  1
  Zr  Zr2  1  0.409957  0.021856  0.250000  1
  Zr  Zr3  1  0.612372  0.588726  0.250000  1
  Zr  Zr4  1  0.977215  0.387928  0.250000  1
  Zr  Zr5  1  0.384329  0.982710  0.750000  1
  Sn  Sn6  1  0.271003  0.268861  0.498768  1
  Sn  Sn7  1  0.271003  0.268861  0.001232  1
  Sn  Sn8  1  0.729588  0.001491  0.002426  1
  Sn  Sn9  1  0.999392  0.729895  0.498411  1
  Sn  Sn10  1  0.729588  0.001491  0.497574  1
  Sn  Sn11  1  0.999392  0.729895  0.001589  1
  Ir  Ir12  1  0.669124  0.336260  0.545329  1
  Ir  Ir13  1  0.669124  0.336260  0.954671  1
  Ir  Ir14  1  0.333317  0.664926  0.024714  1
  Ir  Ir15  1  0.333317  0.664926  0.475286  1
  Ir  Ir16  1  0.997318  0.999979  0.750000  1
  Rh  Rh17  1  0.999613  0.000163  0.250000  1
