# generated using pymatgen
data_Er24CuRu13
_symmetry_space_group_name_H-M   'P 1'
_cell_length_a   11.20696286
_cell_length_b   8.31121367
_cell_length_c   11.16246919
_cell_angle_alpha   56.46055808
_cell_angle_beta   89.85110521
_cell_angle_gamma   89.75700298
_symmetry_Int_Tables_number   1
_chemical_formula_structural   Er24CuRu13
_chemical_formula_sum   'Er24 Cu1 Ru13'
_cell_volume   866.59721423
_cell_formula_units_Z   1
loop_
 _symmetry_equiv_pos_site_id
 _symmetry_equiv_pos_as_xyz
  1  'x, y, z'
loop_
 _atom_site_type_symbol
 _atom_site_label
 _atom_site_symmetry_multiplicity
 _atom_site_fract_x
 _atom_site_fract_y
 _atom_site_fract_z
 _atom_site_occupancy
  Er  Er0  1  0.846514  0.508591  0.655256  1
  Er  Er1  1  0.496179  0.848196  0.862493  1
  Er  Er2  1  0.654790  0.507870  0.157248  1
  Er  Er3  1  0.802156  0.760344  0.824846  1
  Er  Er4  1  0.569612  0.778527  0.590446  1
  Er  Er5  1  0.925717  0.279371  0.292509  1
  Er  Er6  1  0.577228  0.280407  0.793941  1
  Er  Er7  1  0.294226  0.759079  0.467399  1
  Er  Er8  1  0.302030  0.247173  0.664095  1
  Er  Er9  1  0.422139  0.717748  0.209517  1
  Er  Er10  1  0.432459  0.220351  0.408240  1
  Er  Er11  1  0.508839  0.149906  0.140463  1
  Er  Er12  1  0.346122  0.506882  0.838277  1
  Er  Er13  1  0.006290  0.849494  0.360871  1
  Er  Er14  1  0.073938  0.718981  0.708192  1
  Er  Er15  1  0.928027  0.776241  0.091368  1
  Er  Er16  1  0.200796  0.750593  0.971234  1
  Er  Er17  1  0.795676  0.244413  0.031353  1
  Er  Er18  1  0.705677  0.242577  0.531918  1
  Er  Er19  1  0.994538  0.148007  0.638991  1
  Er  Er20  1  0.696247  0.757788  0.326281  1
  Er  Er21  1  0.199816  0.237491  0.175392  1
  Er  Er22  1  0.152875  0.491537  0.342648  1
  Er  Er23  1  0.069132  0.218669  0.910808  1
  Cu  Cu24  1  0.345283  0.090327  0.960149  1
  Ru  Ru25  1  0.499046  0.497028  0.502647  1
  Ru  Ru26  1  0.186215  0.898151  0.150297  1
  Ru  Ru27  1  0.855754  0.923601  0.536145  1
  Ru  Ru28  1  0.397091  0.487323  0.100680  1
  Ru  Ru29  1  0.106599  0.479781  0.607115  1
  Ru  Ru30  1  0.648496  0.918666  0.037658  1
  Ru  Ru31  1  0.601321  0.513898  0.896448  1
  Ru  Ru32  1  0.000097  0.497580  0.001098  1
  Ru  Ru33  1  0.681150  0.098135  0.349286  1
  Ru  Ru34  1  0.144711  0.073048  0.464046  1
  Ru  Ru35  1  0.317287  0.904936  0.654821  1
  Ru  Ru36  1  0.896826  0.514615  0.397511  1
  Ru  Ru37  1  0.819097  0.102673  0.848315  1
