# generated using pymatgen
data_AgPt2F12
_symmetry_space_group_name_H-M   'P 1'
_cell_length_a   5.30485437
_cell_length_b   5.80056476
_cell_length_c   9.00708126
_cell_angle_alpha   105.03466060
_cell_angle_beta   91.32077475
_cell_angle_gamma   117.85956162
_symmetry_Int_Tables_number   1
_chemical_formula_structural   AgPt2F12
_chemical_formula_sum   'Ag1 Pt2 F12'
_cell_volume   233.24403816
_cell_formula_units_Z   1
loop_
 _symmetry_equiv_pos_site_id
 _symmetry_equiv_pos_as_xyz
  1  'x, y, z'
loop_
 _atom_site_type_symbol
 _atom_site_label
 _atom_site_symmetry_multiplicity
 _atom_site_fract_x
 _atom_site_fract_y
 _atom_site_fract_z
 _atom_site_occupancy
  Ag  Ag0  1  0.000000  0.000000  0.000000  1
  Pt  Pt1  1  0.763750  0.503689  0.255474  1
  Pt  Pt2  1  0.236250  0.496311  0.744526  1
  F  F3  1  0.827666  0.267399  0.707308  1
  F  F4  1  0.172334  0.732601  0.292692  1
  F  F5  1  0.216238  0.730700  0.939017  1
  F  F6  1  0.731548  0.734543  0.437908  1
  F  F7  1  0.268452  0.265457  0.562092  1
  F  F8  1  0.796535  0.277949  0.365960  1
  F  F9  1  0.203465  0.722051  0.634040  1
  F  F10  1  0.342805  0.268162  0.216532  1
  F  F11  1  0.657195  0.731838  0.783468  1
  F  F12  1  0.713507  0.721198  0.135834  1
  F  F13  1  0.286493  0.278802  0.864166  1
  F  F14  1  0.783762  0.269300  0.060983  1
