# generated using pymatgen
data_K8Li4DySc3As8
_symmetry_space_group_name_H-M   'P 1'
_cell_length_a   10.14740686
_cell_length_b   10.14740800
_cell_length_c   6.60912419
_cell_angle_alpha   90.04728772
_cell_angle_beta   89.95271361
_cell_angle_gamma   98.77128074
_symmetry_Int_Tables_number   1
_chemical_formula_structural   K8Li4DySc3As8
_chemical_formula_sum   'K8 Li4 Dy1 Sc3 As8'
_cell_volume   672.58134797
_cell_formula_units_Z   1
loop_
 _symmetry_equiv_pos_site_id
 _symmetry_equiv_pos_as_xyz
  1  'x, y, z'
loop_
 _atom_site_type_symbol
 _atom_site_label
 _atom_site_symmetry_multiplicity
 _atom_site_fract_x
 _atom_site_fract_y
 _atom_site_fract_z
 _atom_site_occupancy
  K  K0  1  0.570430  0.930171  0.750478  1
  K  K1  1  0.930171  0.570430  0.249522  1
  K  K2  1  0.430711  0.066719  0.248315  1
  K  K3  1  0.066719  0.430711  0.751685  1
  K  K4  1  0.679018  0.323272  0.786035  1
  K  K5  1  0.823296  0.176281  0.284427  1
  K  K6  1  0.323272  0.679018  0.213965  1
  K  K7  1  0.176281  0.823296  0.715573  1
  Li  Li8  1  0.620457  0.620457  0.000000  1
  Li  Li9  1  0.880323  0.880323  0.500000  1
  Li  Li10  1  0.380542  0.380542  0.000000  1
  Li  Li11  1  0.117078  0.117078  0.500000  1
  Dy  Dy12  1  0.368077  0.368077  0.500000  1
  Sc  Sc13  1  0.869288  0.869288  0.000000  1
  Sc  Sc14  1  0.632919  0.632919  0.500000  1
  Sc  Sc15  1  0.129439  0.129439  0.000000  1
  As  As16  1  0.342334  0.149638  0.759011  1
  As  As17  1  0.149638  0.342334  0.240989  1
  As  As18  1  0.658679  0.842130  0.250270  1
  As  As19  1  0.842130  0.658679  0.749730  1
  As  As20  1  0.907942  0.090985  0.773593  1
  As  As21  1  0.599971  0.410299  0.267792  1
  As  As22  1  0.090985  0.907942  0.226407  1
  As  As23  1  0.410299  0.599971  0.732208  1
