# generated using pymatgen
data_Zr6AlSiO2
_symmetry_space_group_name_H-M   'P 1'
_cell_length_a   5.90841693
_cell_length_b   5.90841727
_cell_length_c   8.71435700
_cell_angle_alpha   90.00000000
_cell_angle_beta   90.00000000
_cell_angle_gamma   145.76208550
_symmetry_Int_Tables_number   1
_chemical_formula_structural   Zr6AlSiO2
_chemical_formula_sum   'Zr6 Al1 Si1 O2'
_cell_volume   171.15948045
_cell_formula_units_Z   1
loop_
 _symmetry_equiv_pos_site_id
 _symmetry_equiv_pos_as_xyz
  1  'x, y, z'
loop_
 _atom_site_type_symbol
 _atom_site_label
 _atom_site_symmetry_multiplicity
 _atom_site_fract_x
 _atom_site_fract_y
 _atom_site_fract_z
 _atom_site_occupancy
  Zr  Zr0  1  0.949954  0.050046  0.750000  1
  Zr  Zr1  1  0.059473  0.940527  0.250000  1
  Zr  Zr2  1  0.633107  0.366893  0.546534  1
  Zr  Zr3  1  0.363215  0.636785  0.441701  1
  Zr  Zr4  1  0.363215  0.636785  0.058299  1
  Zr  Zr5  1  0.633107  0.366893  0.953466  1
  Al  Al6  1  0.255465  0.744535  0.750000  1
  Si  Si7  1  0.743475  0.256525  0.250000  1
  O  O8  1  0.999493  0.000507  0.497449  1
  O  O9  1  0.999493  0.000507  0.002551  1
