# generated using pymatgen
data_KRbTa3Cl9
_symmetry_space_group_name_H-M   'P 1'
_cell_length_a   9.87175546
_cell_length_b   10.01643458
_cell_length_c   10.11948406
_cell_angle_alpha   118.03954437
_cell_angle_beta   100.51814169
_cell_angle_gamma   105.02562075
_symmetry_Int_Tables_number   1
_chemical_formula_structural   KRbTa3Cl9
_chemical_formula_sum   'K2 Rb2 Ta6 Cl18'
_cell_volume   796.72635977
_cell_formula_units_Z   2
loop_
 _symmetry_equiv_pos_site_id
 _symmetry_equiv_pos_as_xyz
  1  'x, y, z'
loop_
 _atom_site_type_symbol
 _atom_site_label
 _atom_site_symmetry_multiplicity
 _atom_site_fract_x
 _atom_site_fract_y
 _atom_site_fract_z
 _atom_site_occupancy
  K  K0  1  0.316053  0.774803  0.937843  1
  K  K1  1  0.683946  0.225178  0.062145  1
  Rb  Rb2  1  0.671669  0.540115  0.734378  1
  Rb  Rb3  1  0.328332  0.459884  0.265620  1
  Ta  Ta4  1  0.120394  0.885749  0.373756  1
  Ta  Ta5  1  0.879606  0.114254  0.626245  1
  Ta  Ta6  1  0.140646  0.044014  0.705514  1
  Ta  Ta7  1  0.859354  0.955985  0.294486  1
  Ta  Ta8  1  0.138837  0.221553  0.547504  1
  Ta  Ta9  1  0.861164  0.778447  0.452497  1
  Cl  Cl10  1  0.325449  0.103351  0.970096  1
  Cl  Cl11  1  0.674551  0.896644  0.029903  1
  Cl  Cl12  1  0.318892  0.505616  0.609843  1
  Cl  Cl13  1  0.681114  0.494389  0.390158  1
  Cl  Cl14  1  0.978247  0.599183  0.294602  1
  Cl  Cl15  1  0.021754  0.400817  0.705397  1
  Cl  Cl16  1  0.998836  0.211638  0.310081  1
  Cl  Cl17  1  0.001159  0.788364  0.689922  1
  Cl  Cl18  1  0.668080  0.681237  0.196090  1
  Cl  Cl19  1  0.331917  0.318763  0.803913  1
  Cl  Cl20  1  0.270027  0.740078  0.213767  1
  Cl  Cl21  1  0.729967  0.259925  0.786238  1
  Cl  Cl22  1  0.309333  0.916842  0.595160  1
  Cl  Cl23  1  0.690671  0.083163  0.404844  1
  Cl  Cl24  1  0.023607  0.186995  0.896091  1
  Cl  Cl25  1  0.976392  0.813004  0.103908  1
  Cl  Cl26  1  0.308560  0.128916  0.406786  1
  Cl  Cl27  1  0.691441  0.871090  0.593216  1
