# generated using pymatgen
data_Mg3Al2ZnPd10
_symmetry_space_group_name_H-M   'P 1'
_cell_length_a   4.16533500
_cell_length_b   5.48306834
_cell_length_c   10.67392679
_cell_angle_alpha   90.48199082
_cell_angle_beta   90.00000000
_cell_angle_gamma   90.00000000
_symmetry_Int_Tables_number   1
_chemical_formula_structural   Mg3Al2ZnPd10
_chemical_formula_sum   'Mg3 Al2 Zn1 Pd10'
_cell_volume   243.77122947
_cell_formula_units_Z   1
loop_
 _symmetry_equiv_pos_site_id
 _symmetry_equiv_pos_as_xyz
  1  'x, y, z'
loop_
 _atom_site_type_symbol
 _atom_site_label
 _atom_site_symmetry_multiplicity
 _atom_site_fract_x
 _atom_site_fract_y
 _atom_site_fract_z
 _atom_site_occupancy
  Mg  Mg0  1  0.500000  0.164205  0.359465  1
  Mg  Mg1  1  0.500000  0.840227  0.640774  1
  Mg  Mg2  1  0.500000  0.662760  0.139254  1
  Al  Al3  1  0.000000  0.993775  0.999995  1
  Al  Al4  1  0.000000  0.499146  0.500222  1
  Zn  Zn5  1  0.500000  0.336136  0.859886  1
  Pd  Pd6  1  0.500000  0.176879  0.102613  1
  Pd  Pd7  1  0.500000  0.816154  0.893426  1
  Pd  Pd8  1  0.500000  0.677166  0.394776  1
  Pd  Pd9  1  0.500000  0.325765  0.609030  1
  Pd  Pd10  1  0.000000  0.000621  0.501643  1
  Pd  Pd11  1  0.000000  0.491916  0.995780  1
  Pd  Pd12  1  0.000000  0.910743  0.236130  1
  Pd  Pd13  1  0.000000  0.098391  0.768599  1
  Pd  Pd14  1  0.000000  0.411133  0.262402  1
  Pd  Pd15  1  0.000000  0.594983  0.736004  1
