# generated using pymatgen
data_DyHo3(Ga5Ir3)2
_symmetry_space_group_name_H-M   'P 1'
_cell_length_a   8.60093364
_cell_length_b   8.60276830
_cell_length_c   8.60276701
_cell_angle_alpha   141.34641601
_cell_angle_beta   109.73735156
_cell_angle_gamma   83.18875259
_symmetry_Int_Tables_number   1
_chemical_formula_structural   DyHo3(Ga5Ir3)2
_chemical_formula_sum   'Dy1 Ho3 Ga10 Ir6'
_cell_volume   362.64647785
_cell_formula_units_Z   1
loop_
 _symmetry_equiv_pos_site_id
 _symmetry_equiv_pos_as_xyz
  1  'x, y, z'
loop_
 _atom_site_type_symbol
 _atom_site_label
 _atom_site_symmetry_multiplicity
 _atom_site_fract_x
 _atom_site_fract_y
 _atom_site_fract_z
 _atom_site_occupancy
  Dy  Dy0  1  0.582517  0.855094  0.727422  1
  Ho  Ho1  1  0.872422  0.645089  0.227333  1
  Ho  Ho2  1  0.127564  0.354915  0.772649  1
  Ho  Ho3  1  0.417740  0.145057  0.272683  1
  Ga  Ga4  1  0.499927  0.749986  0.249870  1
  Ga  Ga5  1  0.499927  0.250057  0.749942  1
  Ga  Ga6  1  0.200738  0.950773  0.749942  1
  Ga  Ga7  1  0.799259  0.548994  0.749993  1
  Ga  Ga8  1  0.799259  0.049266  0.250265  1
  Ga  Ga9  1  0.200738  0.450796  0.249965  1
  Ga  Ga10  1  0.097710  0.916775  0.180933  1
  Ga  Ga11  1  0.902453  0.083363  0.819091  1
  Ga  Ga12  1  0.735896  0.416786  0.319110  1
  Ga  Ga13  1  0.264268  0.583240  0.681029  1
  Ir  Ir14  1  0.000054  0.750007  0.750034  1
  Ir  Ir15  1  0.000054  0.250020  0.250047  1
  Ir  Ir16  1  0.258246  0.847318  0.410928  1
  Ir  Ir17  1  0.741424  0.152590  0.588833  1
  Ir  Ir18  1  0.435953  0.347358  0.088595  1
  Ir  Ir19  1  0.563850  0.652515  0.911334  1
