# generated using pymatgen
data_Gd5Ho5(GeB4)4
_symmetry_space_group_name_H-M   'P 1'
_cell_length_a   7.26464604
_cell_length_b   7.26442205
_cell_length_c   8.17153401
_cell_angle_alpha   90.00411300
_cell_angle_beta   89.99933109
_cell_angle_gamma   90.01265874
_symmetry_Int_Tables_number   1
_chemical_formula_structural   Gd5Ho5(GeB4)4
_chemical_formula_sum   'Gd5 Ho5 Ge4 B16'
_cell_volume   431.24006966
_cell_formula_units_Z   1
loop_
 _symmetry_equiv_pos_site_id
 _symmetry_equiv_pos_as_xyz
  1  'x, y, z'
loop_
 _atom_site_type_symbol
 _atom_site_label
 _atom_site_symmetry_multiplicity
 _atom_site_fract_x
 _atom_site_fract_y
 _atom_site_fract_z
 _atom_site_occupancy
  Gd  Gd0  1  0.680713  0.180950  0.223034  1
  Gd  Gd1  1  0.319291  0.819596  0.776782  1
  Gd  Gd2  1  0.319314  0.819292  0.223118  1
  Gd  Gd3  1  0.819612  0.680405  0.222990  1
  Gd  Gd4  1  0.819222  0.680608  0.776914  1
  Ho  Ho5  1  0.680602  0.180755  0.780066  1
  Ho  Ho6  1  0.180679  0.319221  0.780280  1
  Ho  Ho7  1  0.180599  0.319342  0.219398  1
  Ho  Ho8  1  0.000245  0.000806  0.500245  1
  Ho  Ho9  1  0.499652  0.499288  0.500247  1
  Ge  Ge10  1  0.120851  0.618102  0.500306  1
  Ge  Ge11  1  0.880477  0.377962  0.501119  1
  Ge  Ge12  1  0.378687  0.122367  0.500937  1
  Ge  Ge13  1  0.619764  0.881409  0.501217  1
  B  B14  1  0.172187  0.040555  0.999567  1
  B  B15  1  0.828146  0.961059  0.999606  1
  B  B16  1  0.960806  0.172576  0.999613  1
  B  B17  1  0.327761  0.538647  0.999616  1
  B  B18  1  0.039566  0.828465  0.999632  1
  B  B19  1  0.671897  0.459834  0.999613  1
  B  B20  1  0.539424  0.671486  0.999565  1
  B  B21  1  0.459979  0.327458  0.999598  1
  B  B22  1  0.091008  0.590182  0.999787  1
  B  B23  1  0.909674  0.408875  0.999804  1
  B  B24  1  0.409274  0.091123  0.999353  1
  B  B25  1  0.590878  0.909533  0.999335  1
  B  B26  1  0.000471  0.000802  0.160449  1
  B  B27  1  0.999945  0.001025  0.838686  1
  B  B28  1  0.499795  0.498856  0.838681  1
  B  B29  1  0.499480  0.499423  0.160443  1
