# generated using pymatgen
data_Gd3Mg3IrPd2
_symmetry_space_group_name_H-M   'P 1'
_cell_length_a   7.43711400
_cell_length_b   7.43711343
_cell_length_c   4.02765200
_cell_angle_alpha   90.00000000
_cell_angle_beta   90.00000000
_cell_angle_gamma   120.00000252
_symmetry_Int_Tables_number   1
_chemical_formula_structural   Gd3Mg3IrPd2
_chemical_formula_sum   'Gd3 Mg3 Ir1 Pd2'
_cell_volume   192.92628612
_cell_formula_units_Z   1
loop_
 _symmetry_equiv_pos_site_id
 _symmetry_equiv_pos_as_xyz
  1  'x, y, z'
loop_
 _atom_site_type_symbol
 _atom_site_label
 _atom_site_symmetry_multiplicity
 _atom_site_fract_x
 _atom_site_fract_y
 _atom_site_fract_z
 _atom_site_occupancy
  Gd  Gd0  1  0.577340  0.983184  0.000000  1
  Gd  Gd1  1  0.016816  0.594156  0.000000  1
  Gd  Gd2  1  0.405844  0.422660  0.000000  1
  Mg  Mg3  1  0.246295  0.999255  0.500000  1
  Mg  Mg4  1  0.000745  0.247040  0.500000  1
  Mg  Mg5  1  0.752960  0.753705  0.500000  1
  Ir  Ir6  1  0.333333  0.666667  0.500000  1
  Pd  Pd7  1  0.666667  0.333333  0.500000  1
  Pd  Pd8  1  0.000000  0.000000  0.000000  1
