# generated using pymatgen
data_Ce2DyTm(AlRu2)2
_symmetry_space_group_name_H-M   'P 1'
_cell_length_a   5.71154799
_cell_length_b   5.71154766
_cell_length_c   7.00914612
_cell_angle_alpha   86.32637014
_cell_angle_beta   93.67363166
_cell_angle_gamma   117.69066966
_symmetry_Int_Tables_number   1
_chemical_formula_structural   Ce2DyTm(AlRu2)2
_chemical_formula_sum   'Ce2 Dy1 Tm1 Al2 Ru4'
_cell_volume   201.89500257
_cell_formula_units_Z   1
loop_
 _symmetry_equiv_pos_site_id
 _symmetry_equiv_pos_as_xyz
  1  'x, y, z'
loop_
 _atom_site_type_symbol
 _atom_site_label
 _atom_site_symmetry_multiplicity
 _atom_site_fract_x
 _atom_site_fract_y
 _atom_site_fract_z
 _atom_site_occupancy
  Ce  Ce0  1  0.168349  0.831651  0.584596  1
  Ce  Ce1  1  0.831203  0.168797  0.415907  1
  Dy  Dy2  1  0.344186  0.655814  0.085752  1
  Tm  Tm3  1  0.656138  0.343862  0.913524  1
  Al  Al4  1  0.000523  0.999477  0.999800  1
  Al  Al5  1  0.500588  0.499412  0.501299  1
  Ru  Ru6  1  0.865149  0.636573  0.263611  1
  Ru  Ru7  1  0.637850  0.867413  0.735950  1
  Ru  Ru8  1  0.132587  0.362150  0.735950  1
  Ru  Ru9  1  0.363427  0.134851  0.263611  1
