# generated using pymatgen
data_Zn12CuOs
_symmetry_space_group_name_H-M   'P 1'
_cell_length_a   6.64496068
_cell_length_b   6.64496046
_cell_length_c   5.09917179
_cell_angle_alpha   81.06116348
_cell_angle_beta   81.06115336
_cell_angle_gamma   70.77429103
_symmetry_Int_Tables_number   1
_chemical_formula_structural   Zn12CuOs
_chemical_formula_sum   'Zn12 Cu1 Os1'
_cell_volume   208.70220895
_cell_formula_units_Z   1
loop_
 _symmetry_equiv_pos_site_id
 _symmetry_equiv_pos_as_xyz
  1  'x, y, z'
loop_
 _atom_site_type_symbol
 _atom_site_label
 _atom_site_symmetry_multiplicity
 _atom_site_fract_x
 _atom_site_fract_y
 _atom_site_fract_z
 _atom_site_occupancy
  Zn  Zn0  1  0.999625  0.999625  0.999375  1
  Zn  Zn1  1  0.615193  0.615193  0.057892  1
  Zn  Zn2  1  0.771217  0.771217  0.379759  1
  Zn  Zn3  1  0.226971  0.226971  0.639032  1
  Zn  Zn4  1  0.220296  0.627561  0.304272  1
  Zn  Zn5  1  0.372316  0.771159  0.684794  1
  Zn  Zn6  1  0.771159  0.372316  0.684794  1
  Zn  Zn7  1  0.627561  0.220296  0.304272  1
  Zn  Zn8  1  0.013501  0.633981  0.799991  1
  Zn  Zn9  1  0.361448  0.002207  0.199564  1
  Zn  Zn10  1  0.002207  0.361448  0.199564  1
  Zn  Zn11  1  0.633981  0.013501  0.799991  1
  Cu  Cu12  1  0.384708  0.384708  0.947484  1
  Os  Os13  1  0.999819  0.999819  0.499216  1
