# generated using pymatgen
data_Ho2Er3In4PdRh
_symmetry_space_group_name_H-M   'P 1'
_cell_length_a   3.59064900
_cell_length_b   8.09329851
_cell_length_c   18.21154502
_cell_angle_alpha   90.01773337
_cell_angle_beta   90.00000000
_cell_angle_gamma   90.00000000
_symmetry_Int_Tables_number   1
_chemical_formula_structural   Ho2Er3In4PdRh
_chemical_formula_sum   'Ho4 Er6 In8 Pd2 Rh2'
_cell_volume   529.23100948
_cell_formula_units_Z   2
loop_
 _symmetry_equiv_pos_site_id
 _symmetry_equiv_pos_as_xyz
  1  'x, y, z'
loop_
 _atom_site_type_symbol
 _atom_site_label
 _atom_site_symmetry_multiplicity
 _atom_site_fract_x
 _atom_site_fract_y
 _atom_site_fract_z
 _atom_site_occupancy
  Ho  Ho0  1  0.000000  0.500000  0.500000  1
  Ho  Ho1  1  0.000000  0.000000  0.000000  1
  Ho  Ho2  1  0.000000  0.883996  0.584131  1
  Ho  Ho3  1  0.000000  0.116004  0.415869  1
  Er  Er4  1  0.000000  0.731286  0.277943  1
  Er  Er5  1  0.000000  0.268714  0.722057  1
  Er  Er6  1  0.000000  0.747923  0.780048  1
  Er  Er7  1  0.000000  0.252077  0.219952  1
  Er  Er8  1  0.000000  0.613808  0.086863  1
  Er  Er9  1  0.000000  0.386192  0.913137  1
  In  In10  1  0.500000  0.709056  0.931633  1
  In  In11  1  0.500000  0.290944  0.068367  1
  In  In12  1  0.500000  0.790303  0.431694  1
  In  In13  1  0.500000  0.209697  0.568306  1
  In  In14  1  0.500000  0.577890  0.649673  1
  In  In15  1  0.500000  0.422110  0.350327  1
  In  In16  1  0.500000  0.920637  0.149905  1
  In  In17  1  0.500000  0.079363  0.850095  1
  Pd  Pd18  1  0.500000  0.978967  0.696496  1
  Pd  Pd19  1  0.500000  0.021033  0.303504  1
  Rh  Rh20  1  0.500000  0.521532  0.195110  1
  Rh  Rh21  1  0.500000  0.478468  0.804890  1
