# generated using pymatgen
data_Y5SnBi2Se
_symmetry_space_group_name_H-M   'P 1'
_cell_length_a   9.22447799
_cell_length_b   9.22447767
_cell_length_c   6.68048200
_cell_angle_alpha   90.00000000
_cell_angle_beta   90.00000000
_cell_angle_gamma   120.10662947
_symmetry_Int_Tables_number   1
_chemical_formula_structural   Y5SnBi2Se
_chemical_formula_sum   'Y10 Sn2 Bi4 Se2'
_cell_volume   491.76132831
_cell_formula_units_Z   2
loop_
 _symmetry_equiv_pos_site_id
 _symmetry_equiv_pos_as_xyz
  1  'x, y, z'
loop_
 _atom_site_type_symbol
 _atom_site_label
 _atom_site_symmetry_multiplicity
 _atom_site_fract_x
 _atom_site_fract_y
 _atom_site_fract_z
 _atom_site_occupancy
  Y  Y0  1  0.667752  0.330902  0.003863  1
  Y  Y1  1  0.330902  0.667752  0.003863  1
  Y  Y2  1  0.330902  0.667752  0.496137  1
  Y  Y3  1  0.667752  0.330902  0.496137  1
  Y  Y4  1  0.747265  0.747265  0.750000  1
  Y  Y5  1  0.253260  0.000034  0.750000  1
  Y  Y6  1  0.000034  0.253260  0.750000  1
  Y  Y7  1  0.250964  0.250964  0.250000  1
  Y  Y8  1  0.747896  0.005462  0.250000  1
  Y  Y9  1  0.005462  0.747896  0.250000  1
  Sn  Sn10  1  0.396347  0.000344  0.250000  1
  Sn  Sn11  1  0.000344  0.396347  0.250000  1
  Bi  Bi12  1  0.395809  0.395809  0.750000  1
  Bi  Bi13  1  0.602971  0.999397  0.750000  1
  Bi  Bi14  1  0.999397  0.602971  0.750000  1
  Bi  Bi15  1  0.605357  0.605357  0.250000  1
  Se  Se16  1  0.998793  0.998793  0.999513  1
  Se  Se17  1  0.998793  0.998793  0.500487  1
