# generated using pymatgen
data_Rb8SnGeS8
_symmetry_space_group_name_H-M   'P 1'
_cell_length_a   8.51229351
_cell_length_b   10.14049700
_cell_length_c   14.89753100
_cell_angle_alpha   90.00000000
_cell_angle_beta   89.85699419
_cell_angle_gamma   90.00000000
_symmetry_Int_Tables_number   1
_chemical_formula_structural   Rb8SnGeS8
_chemical_formula_sum   'Rb16 Sn2 Ge2 S16'
_cell_volume   1285.93428719
_cell_formula_units_Z   2
loop_
 _symmetry_equiv_pos_site_id
 _symmetry_equiv_pos_as_xyz
  1  'x, y, z'
loop_
 _atom_site_type_symbol
 _atom_site_label
 _atom_site_symmetry_multiplicity
 _atom_site_fract_x
 _atom_site_fract_y
 _atom_site_fract_z
 _atom_site_occupancy
  Rb  Rb0  1  0.000000  0.000000  0.000000  1
  Rb  Rb1  1  0.500000  0.000000  0.500000  1
  Rb  Rb2  1  0.000000  0.500000  0.000000  1
  Rb  Rb3  1  0.500000  0.500000  0.500000  1
  Rb  Rb4  1  0.987715  0.750000  0.425664  1
  Rb  Rb5  1  0.485004  0.250000  0.076865  1
  Rb  Rb6  1  0.012285  0.250000  0.574336  1
  Rb  Rb7  1  0.514996  0.750000  0.923135  1
  Rb  Rb8  1  0.838196  0.056514  0.277912  1
  Rb  Rb9  1  0.337366  0.951928  0.225118  1
  Rb  Rb10  1  0.161804  0.556514  0.722088  1
  Rb  Rb11  1  0.662634  0.451928  0.774882  1
  Rb  Rb12  1  0.161804  0.943486  0.722088  1
  Rb  Rb13  1  0.662634  0.048072  0.774882  1
  Rb  Rb14  1  0.838196  0.443486  0.277912  1
  Rb  Rb15  1  0.337366  0.548072  0.225118  1
  Sn  Sn16  1  0.739070  0.750000  0.164313  1
  Sn  Sn17  1  0.260930  0.250000  0.835687  1
  Ge  Ge18  1  0.762557  0.750000  0.663585  1
  Ge  Ge19  1  0.237443  0.250000  0.336415  1
  S  S20  1  0.974552  0.250000  0.827058  1
  S  S21  1  0.504600  0.250000  0.327143  1
  S  S22  1  0.495400  0.750000  0.672857  1
  S  S23  1  0.025448  0.750000  0.172942  1
  S  S24  1  0.652328  0.552824  0.088589  1
  S  S25  1  0.154074  0.432523  0.407699  1
  S  S26  1  0.347672  0.052824  0.911411  1
  S  S27  1  0.845926  0.932523  0.592301  1
  S  S28  1  0.347672  0.447176  0.911411  1
  S  S29  1  0.845926  0.567477  0.592301  1
  S  S30  1  0.652328  0.947176  0.088589  1
  S  S31  1  0.154074  0.067477  0.407699  1
  S  S32  1  0.629560  0.750000  0.316423  1
  S  S33  1  0.135741  0.250000  0.194939  1
  S  S34  1  0.370440  0.250000  0.683577  1
  S  S35  1  0.864259  0.750000  0.805061  1
