# generated using pymatgen
data_TbNdAl20Os3Rh
_symmetry_space_group_name_H-M   'P 1'
_cell_length_a   6.87260667
_cell_length_b   6.88167599
_cell_length_c   9.18685721
_cell_angle_alpha   90.26776253
_cell_angle_beta   90.10698000
_cell_angle_gamma   96.65430635
_symmetry_Int_Tables_number   1
_chemical_formula_structural   TbNdAl20Os3Rh
_chemical_formula_sum   'Tb1 Nd1 Al20 Os3 Rh1'
_cell_volume   431.55989706
_cell_formula_units_Z   1
loop_
 _symmetry_equiv_pos_site_id
 _symmetry_equiv_pos_as_xyz
  1  'x, y, z'
loop_
 _atom_site_type_symbol
 _atom_site_label
 _atom_site_symmetry_multiplicity
 _atom_site_fract_x
 _atom_site_fract_y
 _atom_site_fract_z
 _atom_site_occupancy
  Tb  Tb0  1  0.869389  0.127832  0.750256  1
  Nd  Nd1  1  0.127976  0.874030  0.250336  1
  Al  Al2  1  0.620688  0.376275  0.552618  1
  Al  Al3  1  0.380430  0.622871  0.449005  1
  Al  Al4  1  0.378094  0.622530  0.048757  1
  Al  Al5  1  0.622825  0.376600  0.949640  1
  Al  Al6  1  0.225099  0.225221  0.500934  1
  Al  Al7  1  0.774470  0.775283  0.501937  1
  Al  Al8  1  0.776445  0.777041  0.997897  1
  Al  Al9  1  0.223271  0.223231  0.999379  1
  Al  Al10  1  0.841737  0.158796  0.100415  1
  Al  Al11  1  0.156876  0.842413  0.898035  1
  Al  Al12  1  0.158596  0.842754  0.604064  1
  Al  Al13  1  0.840248  0.158917  0.397492  1
  Al  Al14  1  0.855489  0.585527  0.750072  1
  Al  Al15  1  0.143786  0.411423  0.249731  1
  Al  Al16  1  0.412835  0.143510  0.750436  1
  Al  Al17  1  0.589991  0.857165  0.249517  1
  Al  Al18  1  0.220445  0.481376  0.752291  1
  Al  Al19  1  0.778189  0.516854  0.247477  1
  Al  Al20  1  0.518464  0.782079  0.749329  1
  Al  Al21  1  0.483254  0.219209  0.250610  1
  Os  Os22  1  0.999696  0.499033  0.998880  1
  Os  Os23  1  0.500889  0.000257  0.998806  1
  Os  Os24  1  0.500986  0.000305  0.501154  1
  Rh  Rh25  1  0.999831  0.499467  0.500933  1
