# generated using pymatgen
data_Be15Nb6Co2CuNi5
_symmetry_space_group_name_H-M   'P 1'
_cell_length_a   7.60527770
_cell_length_b   7.60527802
_cell_length_c   7.60092599
_cell_angle_alpha   59.87341709
_cell_angle_beta   59.87342237
_cell_angle_gamma   59.85692537
_symmetry_Int_Tables_number   1
_chemical_formula_structural   Be15Nb6Co2CuNi5
_chemical_formula_sum   'Be15 Nb6 Co2 Cu1 Ni5'
_cell_volume   309.94034171
_cell_formula_units_Z   1
loop_
 _symmetry_equiv_pos_site_id
 _symmetry_equiv_pos_as_xyz
  1  'x, y, z'
loop_
 _atom_site_type_symbol
 _atom_site_label
 _atom_site_symmetry_multiplicity
 _atom_site_fract_x
 _atom_site_fract_y
 _atom_site_fract_z
 _atom_site_occupancy
  Be  Be0  1  0.329018  0.329018  0.324001  1
  Be  Be1  1  0.672943  0.672943  0.672913  1
  Be  Be2  1  0.324559  0.324559  0.024936  1
  Be  Be3  1  0.327296  0.022092  0.321839  1
  Be  Be4  1  0.675155  0.675155  0.976458  1
  Be  Be5  1  0.674813  0.976831  0.674745  1
  Be  Be6  1  0.022092  0.327296  0.321839  1
  Be  Be7  1  0.976831  0.674813  0.674745  1
  Be  Be8  1  0.500175  0.999530  0.000128  1
  Be  Be9  1  0.999121  0.502311  0.499311  1
  Be  Be10  1  0.999530  0.500175  0.000128  1
  Be  Be11  1  0.502311  0.999121  0.499311  1
  Be  Be12  1  0.998983  0.998983  0.499431  1
  Be  Be13  1  0.500290  0.500290  0.000021  1
  Be  Be14  1  0.998865  0.998865  0.003176  1
  Nb  Nb15  1  0.709021  0.295266  0.295633  1
  Nb  Nb16  1  0.293333  0.697875  0.706551  1
  Nb  Nb17  1  0.295266  0.709021  0.295633  1
  Nb  Nb18  1  0.697875  0.293333  0.706551  1
  Nb  Nb19  1  0.297899  0.297899  0.710780  1
  Nb  Nb20  1  0.704427  0.704427  0.291313  1
  Co  Co21  1  0.122527  0.122527  0.122411  1
  Co  Co22  1  0.877515  0.877515  0.877570  1
  Cu  Cu23  1  0.123172  0.123172  0.632327  1
  Ni  Ni24  1  0.123343  0.631579  0.123224  1
  Ni  Ni25  1  0.876797  0.876797  0.368240  1
  Ni  Ni26  1  0.876671  0.368594  0.876781  1
  Ni  Ni27  1  0.631579  0.123343  0.123224  1
  Ni  Ni28  1  0.368594  0.876671  0.876781  1
