# generated using pymatgen
data_NdPa(NiGe)2
_symmetry_space_group_name_H-M   'P 1'
_cell_length_a   4.26656900
_cell_length_b   7.19650669
_cell_length_c   7.36184413
_cell_angle_alpha   89.90678469
_cell_angle_beta   89.99983034
_cell_angle_gamma   90.00010389
_symmetry_Int_Tables_number   1
_chemical_formula_structural   NdPa(NiGe)2
_chemical_formula_sum   'Nd2 Pa2 Ni4 Ge4'
_cell_volume   226.04065174
_cell_formula_units_Z   2
loop_
 _symmetry_equiv_pos_site_id
 _symmetry_equiv_pos_as_xyz
  1  'x, y, z'
loop_
 _atom_site_type_symbol
 _atom_site_label
 _atom_site_symmetry_multiplicity
 _atom_site_fract_x
 _atom_site_fract_y
 _atom_site_fract_z
 _atom_site_occupancy
  Nd  Nd0  1  0.749999  0.222047  0.509245  1
  Nd  Nd1  1  0.250001  0.777958  0.490762  1
  Pa  Pa2  1  0.249999  0.714188  0.991748  1
  Pa  Pa3  1  0.750001  0.285801  0.008255  1
  Ni  Ni4  1  0.250004  0.083880  0.180044  1
  Ni  Ni5  1  0.749997  0.916141  0.819958  1
  Ni  Ni6  1  0.750006  0.573700  0.247363  1
  Ni  Ni7  1  0.249994  0.426280  0.752620  1
  Ge  Ge8  1  0.250003  0.409899  0.281312  1
  Ge  Ge9  1  0.749997  0.590089  0.718690  1
  Ge  Ge10  1  0.750001  0.912262  0.195083  1
  Ge  Ge11  1  0.249999  0.087754  0.804921  1
