# generated using pymatgen
data_CaNpBiO6
_symmetry_space_group_name_H-M   'P 1'
_cell_length_a   5.43508800
_cell_length_b   9.21309200
_cell_length_c   10.17441100
_cell_angle_alpha   90.00000000
_cell_angle_beta   90.00000000
_cell_angle_gamma   90.00000000
_symmetry_Int_Tables_number   1
_chemical_formula_structural   CaNpBiO6
_chemical_formula_sum   'Ca4 Np4 Bi4 O24'
_cell_volume   509.47310817
_cell_formula_units_Z   4
loop_
 _symmetry_equiv_pos_site_id
 _symmetry_equiv_pos_as_xyz
  1  'x, y, z'
loop_
 _atom_site_type_symbol
 _atom_site_label
 _atom_site_symmetry_multiplicity
 _atom_site_fract_x
 _atom_site_fract_y
 _atom_site_fract_z
 _atom_site_occupancy
  Ca  Ca0  1  0.468820  0.603669  0.534382  1
  Ca  Ca1  1  0.968820  0.896331  0.465618  1
  Ca  Ca2  1  0.531180  0.103669  0.965618  1
  Ca  Ca3  1  0.031180  0.396331  0.034382  1
  Np  Np4  1  0.460021  0.990923  0.649556  1
  Np  Np5  1  0.960021  0.509077  0.350444  1
  Np  Np6  1  0.539979  0.490923  0.850444  1
  Np  Np7  1  0.039979  0.009077  0.149556  1
  Bi  Bi8  1  0.967438  0.785379  0.865555  1
  Bi  Bi9  1  0.467438  0.714621  0.134445  1
  Bi  Bi10  1  0.032562  0.285379  0.634445  1
  Bi  Bi11  1  0.532562  0.214621  0.365555  1
  O  O12  1  0.256698  0.080860  0.497873  1
  O  O13  1  0.756698  0.419140  0.502127  1
  O  O14  1  0.743302  0.580860  0.002127  1
  O  O15  1  0.243302  0.919140  0.997873  1
  O  O16  1  0.737211  0.114234  0.570571  1
  O  O17  1  0.237211  0.385766  0.429429  1
  O  O18  1  0.262789  0.614234  0.929429  1
  O  O19  1  0.762789  0.885766  0.070571  1
  O  O20  1  0.583704  0.841627  0.533466  1
  O  O21  1  0.083704  0.658373  0.466534  1
  O  O22  1  0.416296  0.341627  0.966534  1
  O  O23  1  0.916296  0.158373  0.033466  1
  O  O24  1  0.187076  0.860581  0.263330  1
  O  O25  1  0.687076  0.639419  0.736670  1
  O  O26  1  0.812924  0.360581  0.236670  1
  O  O27  1  0.312924  0.139419  0.763330  1
  O  O28  1  0.817247  0.045150  0.302964  1
  O  O29  1  0.317247  0.454850  0.697036  1
  O  O30  1  0.182753  0.545150  0.197036  1
  O  O31  1  0.682753  0.954850  0.802964  1
  O  O32  1  0.331672  0.147036  0.182022  1
  O  O33  1  0.831672  0.352964  0.817978  1
  O  O34  1  0.668328  0.647036  0.317978  1
  O  O35  1  0.168328  0.852964  0.682022  1
