# generated using pymatgen
data_Pr3Nd3ZnRh17
_symmetry_space_group_name_H-M   'P 1'
_cell_length_a   5.39951600
_cell_length_b   5.39956054
_cell_length_c   17.50946600
_cell_angle_alpha   89.99904211
_cell_angle_beta   90.00025495
_cell_angle_gamma   119.99923802
_symmetry_Int_Tables_number   1
_chemical_formula_structural   Pr3Nd3ZnRh17
_chemical_formula_sum   'Pr3 Nd3 Zn1 Rh17'
_cell_volume   442.09959256
_cell_formula_units_Z   1
loop_
 _symmetry_equiv_pos_site_id
 _symmetry_equiv_pos_as_xyz
  1  'x, y, z'
loop_
 _atom_site_type_symbol
 _atom_site_label
 _atom_site_symmetry_multiplicity
 _atom_site_fract_x
 _atom_site_fract_y
 _atom_site_fract_z
 _atom_site_occupancy
  Pr  Pr0  1  0.333338  0.666676  0.539531  1
  Pr  Pr1  1  0.333332  0.666667  0.750147  1
  Pr  Pr2  1  0.666667  0.333333  0.250068  1
  Nd  Nd3  1  0.666666  0.333330  0.042948  1
  Nd  Nd4  1  0.666667  0.333333  0.456776  1
  Nd  Nd5  1  0.333335  0.666671  0.960125  1
  Zn  Zn6  1  0.000000  0.999999  0.250001  1
  Rh  Rh7  1  0.167484  0.334966  0.127797  1
  Rh  Rh8  1  0.832971  0.665941  0.626432  1
  Rh  Rh9  1  0.665034  0.832515  0.127797  1
  Rh  Rh10  1  0.167484  0.832517  0.127797  1
  Rh  Rh11  1  0.832969  0.167028  0.626432  1
  Rh  Rh12  1  0.334059  0.167029  0.626431  1
  Rh  Rh13  1  0.832968  0.665938  0.873752  1
  Rh  Rh14  1  0.832966  0.167031  0.873753  1
  Rh  Rh15  1  0.334061  0.167031  0.873753  1
  Rh  Rh16  1  0.665263  0.832630  0.372133  1
  Rh  Rh17  1  0.167368  0.832630  0.372133  1
  Rh  Rh18  1  0.167369  0.334737  0.372132  1
  Rh  Rh19  1  0.000000  0.000000  0.750034  1
  Rh  Rh20  1  0.333334  0.666667  0.250034  1
  Rh  Rh21  1  0.666667  0.333334  0.750046  1
  Rh  Rh22  1  0.999997  0.999996  0.002073  1
  Rh  Rh23  1  0.000001  0.000003  0.497874  1
