# generated using pymatgen
data_Y4Lu4Mn3FeB24
_symmetry_space_group_name_H-M   'P 1'
_cell_length_a   3.51931700
_cell_length_b   9.03329376
_cell_length_c   11.43101622
_cell_angle_alpha   90.07153882
_cell_angle_beta   90.00000000
_cell_angle_gamma   90.00000000
_symmetry_Int_Tables_number   1
_chemical_formula_structural   Y4Lu4Mn3FeB24
_chemical_formula_sum   'Y4 Lu4 Mn3 Fe1 B24'
_cell_volume   363.40343136
_cell_formula_units_Z   1
loop_
 _symmetry_equiv_pos_site_id
 _symmetry_equiv_pos_as_xyz
  1  'x, y, z'
loop_
 _atom_site_type_symbol
 _atom_site_label
 _atom_site_symmetry_multiplicity
 _atom_site_fract_x
 _atom_site_fract_y
 _atom_site_fract_z
 _atom_site_occupancy
  Y  Y0  1  0.000000  0.824321  0.085366  1
  Y  Y1  1  0.000000  0.174832  0.915938  1
  Y  Y2  1  0.000000  0.323318  0.413690  1
  Y  Y3  1  0.000000  0.676882  0.585154  1
  Lu  Lu4  1  0.000000  0.442495  0.130689  1
  Lu  Lu5  1  0.000000  0.557846  0.868663  1
  Lu  Lu6  1  0.000000  0.943324  0.369028  1
  Lu  Lu7  1  0.000000  0.057401  0.631620  1
  Mn  Mn8  1  0.000000  0.139180  0.180585  1
  Mn  Mn9  1  0.000000  0.860663  0.818920  1
  Mn  Mn10  1  0.000000  0.639095  0.319839  1
  Fe  Fe11  1  0.000000  0.360493  0.680717  1
  B  B12  1  0.500000  0.054436  0.068698  1
  B  B13  1  0.500000  0.945266  0.931452  1
  B  B14  1  0.500000  0.554464  0.431652  1
  B  B15  1  0.500000  0.444965  0.568665  1
  B  B16  1  0.500000  0.248333  0.083004  1
  B  B17  1  0.500000  0.751643  0.916855  1
  B  B18  1  0.500000  0.749028  0.417205  1
  B  B19  1  0.500000  0.251959  0.583188  1
  B  B20  1  0.500000  0.291189  0.234223  1
  B  B21  1  0.500000  0.709017  0.765282  1
  B  B22  1  0.500000  0.791327  0.265613  1
  B  B23  1  0.500000  0.209575  0.734455  1
  B  B24  1  0.500000  0.131128  0.314033  1
  B  B25  1  0.500000  0.869099  0.685697  1
  B  B26  1  0.500000  0.630640  0.185931  1
  B  B27  1  0.500000  0.369000  0.814092  1
  B  B28  1  0.500000  0.484076  0.287709  1
  B  B29  1  0.500000  0.514536  0.711986  1
  B  B30  1  0.500000  0.984735  0.212306  1
  B  B31  1  0.500000  0.015076  0.787969  1
  B  B32  1  0.500000  0.101150  0.472662  1
  B  B33  1  0.500000  0.899747  0.527796  1
  B  B34  1  0.500000  0.600437  0.027337  1
  B  B35  1  0.500000  0.399326  0.971978  1
