# generated using pymatgen
data_Er8Si12AgIr2Rh
_symmetry_space_group_name_H-M   'P 1'
_cell_length_a   8.17699100
_cell_length_b   8.17698994
_cell_length_c   7.83035600
_cell_angle_alpha   90.00000000
_cell_angle_beta   90.00000000
_cell_angle_gamma   120.00000023
_symmetry_Int_Tables_number   1
_chemical_formula_structural   Er8Si12AgIr2Rh
_chemical_formula_sum   'Er8 Si12 Ag1 Ir2 Rh1'
_cell_volume   453.41838039
_cell_formula_units_Z   1
loop_
 _symmetry_equiv_pos_site_id
 _symmetry_equiv_pos_as_xyz
  1  'x, y, z'
loop_
 _atom_site_type_symbol
 _atom_site_label
 _atom_site_symmetry_multiplicity
 _atom_site_fract_x
 _atom_site_fract_y
 _atom_site_fract_z
 _atom_site_occupancy
  Er  Er0  1  0.971748  0.485875  0.255373  1
  Er  Er1  1  0.514125  0.485875  0.255373  1
  Er  Er2  1  0.493042  0.986083  0.746585  1
  Er  Er3  1  0.013917  0.506958  0.746585  1
  Er  Er4  1  0.493042  0.506958  0.746585  1
  Er  Er5  1  0.514125  0.028252  0.255373  1
  Er  Er6  1  0.000000  0.000000  0.746605  1
  Er  Er7  1  0.000000  0.000000  0.249043  1
  Si  Si8  1  0.167392  0.832608  0.496280  1
  Si  Si9  1  0.167392  0.334785  0.496280  1
  Si  Si10  1  0.665215  0.832608  0.496280  1
  Si  Si11  1  0.336457  0.168229  0.001013  1
  Si  Si12  1  0.834378  0.668757  0.502845  1
  Si  Si13  1  0.831771  0.168229  0.001013  1
  Si  Si14  1  0.831771  0.663543  0.001013  1
  Si  Si15  1  0.160781  0.321561  0.995326  1
  Si  Si16  1  0.678439  0.839219  0.995326  1
  Si  Si17  1  0.331243  0.165622  0.502845  1
  Si  Si18  1  0.834378  0.165622  0.502845  1
  Si  Si19  1  0.160781  0.839219  0.995326  1
  Ag  Ag20  1  0.333333  0.666667  0.046210  1
  Ir  Ir21  1  0.666667  0.333333  0.959731  1
  Ir  Ir22  1  0.666667  0.333333  0.534790  1
  Rh  Rh23  1  0.333333  0.666667  0.471355  1
