# generated using pymatgen
data_TbSc(Cu2P)4
_symmetry_space_group_name_H-M   'P 1'
_cell_length_a   7.19249077
_cell_length_b   7.19249092
_cell_length_c   3.74433200
_cell_angle_alpha   90.00000000
_cell_angle_beta   90.00000000
_cell_angle_gamma   89.55699803
_symmetry_Int_Tables_number   1
_chemical_formula_structural   TbSc(Cu2P)4
_chemical_formula_sum   'Tb1 Sc1 Cu8 P4'
_cell_volume   193.69571065
_cell_formula_units_Z   1
loop_
 _symmetry_equiv_pos_site_id
 _symmetry_equiv_pos_as_xyz
  1  'x, y, z'
loop_
 _atom_site_type_symbol
 _atom_site_label
 _atom_site_symmetry_multiplicity
 _atom_site_fract_x
 _atom_site_fract_y
 _atom_site_fract_z
 _atom_site_occupancy
  Tb  Tb0  1  0.500000  0.500000  0.500000  1
  Sc  Sc1  1  0.000000  0.000000  0.000000  1
  Cu  Cu2  1  0.666279  0.916115  0.500000  1
  Cu  Cu3  1  0.164325  0.585972  0.000000  1
  Cu  Cu4  1  0.414028  0.835675  0.000000  1
  Cu  Cu5  1  0.916115  0.666279  0.500000  1
  Cu  Cu6  1  0.835675  0.414028  0.000000  1
  Cu  Cu7  1  0.585972  0.164325  0.000000  1
  Cu  Cu8  1  0.083885  0.333721  0.500000  1
  Cu  Cu9  1  0.333721  0.083885  0.500000  1
  P  P10  1  0.283006  0.283006  0.000000  1
  P  P11  1  0.716994  0.716994  0.000000  1
  P  P12  1  0.794267  0.205733  0.500000  1
  P  P13  1  0.205733  0.794267  0.500000  1
