# generated using pymatgen
data_In(S8Cl)3
_symmetry_space_group_name_H-M   'P 1'
_cell_length_a   15.21979684
_cell_length_b   15.21979679
_cell_length_c   15.21979695
_cell_angle_alpha   118.66448171
_cell_angle_beta   118.66448367
_cell_angle_gamma   118.66448417
_symmetry_Int_Tables_number   1
_chemical_formula_structural   In(S8Cl)3
_chemical_formula_sum   'In1 S24 Cl3'
_cell_volume   1051.65816431
_cell_formula_units_Z   1
loop_
 _symmetry_equiv_pos_site_id
 _symmetry_equiv_pos_as_xyz
  1  'x, y, z'
loop_
 _atom_site_type_symbol
 _atom_site_label
 _atom_site_symmetry_multiplicity
 _atom_site_fract_x
 _atom_site_fract_y
 _atom_site_fract_z
 _atom_site_occupancy
  In  In0  1  0.063162  0.063162  0.063162  1
  S  S1  1  0.023563  0.619222  0.619222  1
  S  S2  1  0.619222  0.619222  0.023563  1
  S  S3  1  0.619222  0.023563  0.619222  1
  S  S4  1  0.231815  0.841876  0.713616  1
  S  S5  1  0.841876  0.713616  0.231815  1
  S  S6  1  0.713616  0.231815  0.841876  1
  S  S7  1  0.841876  0.231815  0.713616  1
  S  S8  1  0.231815  0.713616  0.841876  1
  S  S9  1  0.713616  0.841876  0.231815  1
  S  S10  1  0.104473  0.633007  0.452052  1
  S  S11  1  0.633007  0.452052  0.104473  1
  S  S12  1  0.452052  0.104473  0.633007  1
  S  S13  1  0.633007  0.104473  0.452052  1
  S  S14  1  0.104473  0.452052  0.633007  1
  S  S15  1  0.452052  0.633007  0.104473  1
  S  S16  1  0.351167  0.739747  0.611098  1
  S  S17  1  0.739747  0.611098  0.351167  1
  S  S18  1  0.611098  0.351167  0.739747  1
  S  S19  1  0.739747  0.351167  0.611098  1
  S  S20  1  0.351167  0.611098  0.739747  1
  S  S21  1  0.611098  0.739747  0.351167  1
  S  S22  1  0.193412  0.473925  0.473925  1
  S  S23  1  0.473925  0.473925  0.193412  1
  S  S24  1  0.473925  0.193412  0.473925  1
  Cl  Cl25  1  0.176513  0.023228  0.023228  1
  Cl  Cl26  1  0.023228  0.023228  0.176513  1
  Cl  Cl27  1  0.023228  0.176513  0.023228  1
