# generated using pymatgen
data_Tb2Y4PdI10
_symmetry_space_group_name_H-M   'P 1'
_cell_length_a   7.74553281
_cell_length_b   9.76865754
_cell_length_c   9.81691600
_cell_angle_alpha   106.95270571
_cell_angle_beta   96.97427139
_cell_angle_gamma   104.46227519
_symmetry_Int_Tables_number   1
_chemical_formula_structural   Tb2Y4PdI10
_chemical_formula_sum   'Tb2 Y4 Pd1 I10'
_cell_volume   672.69157219
_cell_formula_units_Z   1
loop_
 _symmetry_equiv_pos_site_id
 _symmetry_equiv_pos_as_xyz
  1  'x, y, z'
loop_
 _atom_site_type_symbol
 _atom_site_label
 _atom_site_symmetry_multiplicity
 _atom_site_fract_x
 _atom_site_fract_y
 _atom_site_fract_z
 _atom_site_occupancy
  Tb  Tb0  1  0.115609  0.042491  0.759774  1
  Tb  Tb1  1  0.884391  0.957509  0.240226  1
  Y  Y2  1  0.968642  0.286725  0.085538  1
  Y  Y3  1  0.031358  0.713275  0.914462  1
  Y  Y4  1  0.349744  0.125479  0.166732  1
  Y  Y5  1  0.650256  0.874521  0.833268  1
  Pd  Pd6  1  0.000000  0.000000  0.000000  1
  I  I7  1  0.349785  0.450060  0.272356  1
  I  I8  1  0.650215  0.549940  0.727644  1
  I  I9  1  0.256833  0.087026  0.461612  1
  I  I10  1  0.743167  0.912974  0.538388  1
  I  I11  1  0.086056  0.373674  0.820687  1
  I  I12  1  0.913944  0.626326  0.179313  1
  I  I13  1  0.454280  0.816679  0.092054  1
  I  I14  1  0.545720  0.183321  0.907946  1
  I  I15  1  0.777190  0.255963  0.345093  1
  I  I16  1  0.222810  0.744037  0.654907  1
