# generated using pymatgen
data_Sc7(IrSe)2
_symmetry_space_group_name_H-M   'P 1'
_cell_length_a   8.47535977
_cell_length_b   8.47535944
_cell_length_c   8.47536031
_cell_angle_alpha   154.62647458
_cell_angle_beta   118.76886914
_cell_angle_gamma   67.36800396
_symmetry_Int_Tables_number   1
_chemical_formula_structural   Sc7(IrSe)2
_chemical_formula_sum   'Sc7 Ir2 Se2'
_cell_volume   226.64216695
_cell_formula_units_Z   1
loop_
 _symmetry_equiv_pos_site_id
 _symmetry_equiv_pos_as_xyz
  1  'x, y, z'
loop_
 _atom_site_type_symbol
 _atom_site_label
 _atom_site_symmetry_multiplicity
 _atom_site_fract_x
 _atom_site_fract_y
 _atom_site_fract_z
 _atom_site_occupancy
  Sc  Sc0  1  0.537993  0.124246  0.413748  1
  Sc  Sc1  1  0.289501  0.875754  0.413748  1
  Sc  Sc2  1  0.948243  0.316420  0.631822  1
  Sc  Sc3  1  0.315403  0.683580  0.631822  1
  Sc  Sc4  1  0.618979  0.360339  0.258640  1
  Sc  Sc5  1  0.898300  0.639661  0.258640  1
  Sc  Sc6  1  0.998630  0.000000  0.998630  1
  Ir  Ir7  1  0.170082  0.236922  0.933161  1
  Ir  Ir8  1  0.696239  0.763078  0.933161  1
  Se  Se9  1  0.255570  0.500000  0.755570  1
  Se  Se10  1  0.661918  0.000000  0.661918  1
