# generated using pymatgen
data_Nd7Dy5(Si2Ni)4
_symmetry_space_group_name_H-M   'P 1'
_cell_length_a   4.20079600
_cell_length_b   11.64874873
_cell_length_c   11.43039363
_cell_angle_alpha   89.96080229
_cell_angle_beta   90.00000000
_cell_angle_gamma   90.00000000
_symmetry_Int_Tables_number   1
_chemical_formula_structural   Nd7Dy5(Si2Ni)4
_chemical_formula_sum   'Nd7 Dy5 Si8 Ni4'
_cell_volume   559.33494575
_cell_formula_units_Z   1
loop_
 _symmetry_equiv_pos_site_id
 _symmetry_equiv_pos_as_xyz
  1  'x, y, z'
loop_
 _atom_site_type_symbol
 _atom_site_label
 _atom_site_symmetry_multiplicity
 _atom_site_fract_x
 _atom_site_fract_y
 _atom_site_fract_z
 _atom_site_occupancy
  Nd  Nd0  1  0.250000  0.058258  0.885059  1
  Nd  Nd1  1  0.250000  0.440486  0.382547  1
  Nd  Nd2  1  0.750000  0.938421  0.115264  1
  Nd  Nd3  1  0.750000  0.561120  0.617120  1
  Nd  Nd4  1  0.250000  0.123233  0.562730  1
  Nd  Nd5  1  0.250000  0.379318  0.059313  1
  Nd  Nd6  1  0.750000  0.877141  0.439141  1
  Dy  Dy7  1  0.750000  0.624142  0.937852  1
  Dy  Dy8  1  0.250000  0.803082  0.711956  1
  Dy  Dy9  1  0.250000  0.692428  0.209162  1
  Dy  Dy10  1  0.750000  0.192660  0.289166  1
  Dy  Dy11  1  0.750000  0.311011  0.790316  1
  Si  Si12  1  0.250000  0.805757  0.969906  1
  Si  Si13  1  0.250000  0.688070  0.468450  1
  Si  Si14  1  0.750000  0.189427  0.030513  1
  Si  Si15  1  0.750000  0.312167  0.531343  1
  Si  Si16  1  0.250000  0.491215  0.805300  1
  Si  Si17  1  0.250000  0.016017  0.302522  1
  Si  Si18  1  0.750000  0.517405  0.193962  1
  Si  Si19  1  0.750000  0.981402  0.698428  1
  Ni  Ni20  1  0.250000  0.364907  0.634731  1
  Ni  Ni21  1  0.250000  0.137733  0.132144  1
  Ni  Ni22  1  0.750000  0.638233  0.365875  1
  Ni  Ni23  1  0.750000  0.856368  0.867198  1
