# generated using pymatgen
data_Ba4TbU3O14
_symmetry_space_group_name_H-M   'P 1'
_cell_length_a   8.18920341
_cell_length_b   8.18920344
_cell_length_c   8.13388742
_cell_angle_alpha   120.36231605
_cell_angle_beta   118.52615026
_cell_angle_gamma   91.35309694
_symmetry_Int_Tables_number   1
_chemical_formula_structural   Ba4TbU3O14
_chemical_formula_sum   'Ba4 Tb1 U3 O14'
_cell_volume   387.44005426
_cell_formula_units_Z   1
loop_
 _symmetry_equiv_pos_site_id
 _symmetry_equiv_pos_as_xyz
  1  'x, y, z'
loop_
 _atom_site_type_symbol
 _atom_site_label
 _atom_site_symmetry_multiplicity
 _atom_site_fract_x
 _atom_site_fract_y
 _atom_site_fract_z
 _atom_site_occupancy
  Ba  Ba0  1  0.000000  0.000000  0.000000  1
  Ba  Ba1  1  0.500000  0.500000  0.000000  1
  Ba  Ba2  1  0.500000  0.000000  0.000000  1
  Ba  Ba3  1  0.500000  0.500000  0.500000  1
  Tb  Tb4  1  0.000000  0.500000  0.000000  1
  U  U5  1  0.000000  0.000000  0.500000  1
  U  U6  1  0.000000  0.500000  0.500000  1
  U  U7  1  0.500000  0.000000  0.500000  1
  O  O8  1  0.905048  0.763916  0.168964  1
  O  O9  1  0.688055  0.919937  0.369581  1
  O  O10  1  0.623767  0.911444  0.718176  1
  O  O11  1  0.670538  0.305393  0.754252  1
  O  O12  1  0.329462  0.694607  0.245748  1
  O  O13  1  0.311945  0.080063  0.630419  1
  O  O14  1  0.693268  0.405591  0.281824  1
  O  O15  1  0.050355  0.818474  0.630419  1
  O  O16  1  0.051141  0.416286  0.245748  1
  O  O17  1  0.094952  0.236084  0.831036  1
  O  O18  1  0.376233  0.088556  0.281824  1
  O  O19  1  0.949645  0.181526  0.369581  1
  O  O20  1  0.948859  0.583714  0.754252  1
  O  O21  1  0.306732  0.594409  0.718176  1
