# generated using pymatgen
data_ErTm7Re3B24Os
_symmetry_space_group_name_H-M   'P 1'
_cell_length_a   3.63829400
_cell_length_b   9.09947050
_cell_length_c   11.47024801
_cell_angle_alpha   90.07117319
_cell_angle_beta   90.00000000
_cell_angle_gamma   90.00000000
_symmetry_Int_Tables_number   1
_chemical_formula_structural   ErTm7Re3B24Os
_chemical_formula_sum   'Er1 Tm7 Re3 B24 Os1'
_cell_volume   379.74003403
_cell_formula_units_Z   1
loop_
 _symmetry_equiv_pos_site_id
 _symmetry_equiv_pos_as_xyz
  1  'x, y, z'
loop_
 _atom_site_type_symbol
 _atom_site_label
 _atom_site_symmetry_multiplicity
 _atom_site_fract_x
 _atom_site_fract_y
 _atom_site_fract_z
 _atom_site_occupancy
  Er  Er0  1  0.000000  0.321168  0.414200  1
  Tm  Tm1  1  0.000000  0.677956  0.587657  1
  Tm  Tm2  1  0.000000  0.824057  0.084281  1
  Tm  Tm3  1  0.000000  0.177249  0.913529  1
  Tm  Tm4  1  0.000000  0.942357  0.370300  1
  Tm  Tm5  1  0.000000  0.056614  0.629165  1
  Tm  Tm6  1  0.000000  0.442667  0.129567  1
  Tm  Tm7  1  0.000000  0.557180  0.871085  1
  Re  Re8  1  0.000000  0.362480  0.678337  1
  Re  Re9  1  0.000000  0.138012  0.179648  1
  Re  Re10  1  0.000000  0.862020  0.820784  1
  B  B11  1  0.500000  0.553540  0.433236  1
  B  B12  1  0.500000  0.447442  0.566422  1
  B  B13  1  0.500000  0.052832  0.066424  1
  B  B14  1  0.500000  0.947424  0.933326  1
  B  B15  1  0.500000  0.749036  0.419014  1
  B  B16  1  0.500000  0.250056  0.580793  1
  B  B17  1  0.500000  0.249677  0.080758  1
  B  B18  1  0.500000  0.750796  0.919353  1
  B  B19  1  0.500000  0.791261  0.265160  1
  B  B20  1  0.500000  0.207792  0.734679  1
  B  B21  1  0.500000  0.292090  0.235177  1
  B  B22  1  0.500000  0.707683  0.765416  1
  B  B23  1  0.500000  0.630753  0.185217  1
  B  B24  1  0.500000  0.369943  0.814748  1
  B  B25  1  0.500000  0.130302  0.315432  1
  B  B26  1  0.500000  0.869365  0.684928  1
  B  B27  1  0.500000  0.981042  0.211978  1
  B  B28  1  0.500000  0.018991  0.787650  1
  B  B29  1  0.500000  0.482189  0.288029  1
  B  B30  1  0.500000  0.519346  0.712107  1
  B  B31  1  0.500000  0.601227  0.028682  1
  B  B32  1  0.500000  0.399183  0.972134  1
  B  B33  1  0.500000  0.099900  0.471785  1
  B  B34  1  0.500000  0.898292  0.527958  1
  Os  Os35  1  0.000000  0.638080  0.321037  1
