# generated using pymatgen
data_Hf2Sc6V12Si15P
_symmetry_space_group_name_H-M   'P 1'
_cell_length_a   6.61482577
_cell_length_b   6.60612009
_cell_length_c   12.23171870
_cell_angle_alpha   89.98833449
_cell_angle_beta   89.90182708
_cell_angle_gamma   90.03000306
_symmetry_Int_Tables_number   1
_chemical_formula_structural   Hf2Sc6V12Si15P
_chemical_formula_sum   'Hf2 Sc6 V12 Si15 P1'
_cell_volume   534.50485307
_cell_formula_units_Z   1
loop_
 _symmetry_equiv_pos_site_id
 _symmetry_equiv_pos_as_xyz
  1  'x, y, z'
loop_
 _atom_site_type_symbol
 _atom_site_label
 _atom_site_symmetry_multiplicity
 _atom_site_fract_x
 _atom_site_fract_y
 _atom_site_fract_z
 _atom_site_occupancy
  Hf  Hf0  1  0.005873  0.662564  0.029853  1
  Hf  Hf1  1  0.839054  0.503653  0.279995  1
  Sc  Sc2  1  0.161328  0.498303  0.779523  1
  Sc  Sc3  1  0.501780  0.837662  0.720599  1
  Sc  Sc4  1  0.496364  0.160113  0.218748  1
  Sc  Sc5  1  0.998438  0.337690  0.529468  1
  Sc  Sc6  1  0.658258  0.001400  0.971529  1
  Sc  Sc7  1  0.338215  0.998394  0.470230  1
  V  V8  1  0.329430  0.331700  0.001103  1
  V  V9  1  0.167259  0.832551  0.247234  1
  V  V10  1  0.831855  0.168180  0.750247  1
  V  V11  1  0.668729  0.667738  0.499301  1
  V  V12  1  0.008533  0.155532  0.124930  1
  V  V13  1  0.342664  0.505076  0.375405  1
  V  V14  1  0.659283  0.493999  0.877867  1
  V  V15  1  0.507286  0.343323  0.623822  1
  V  V16  1  0.491557  0.662383  0.122629  1
  V  V17  1  0.993160  0.843024  0.626709  1
  V  V18  1  0.157675  0.003426  0.877897  1
  V  V19  1  0.842285  0.992316  0.372800  1
  Si  Si20  1  0.538115  0.794310  0.315041  1
  Si  Si21  1  0.460266  0.207140  0.814558  1
  Si  Si22  1  0.794233  0.539861  0.685372  1
  Si  Si23  1  0.209067  0.458415  0.186108  1
  Si  Si24  1  0.706041  0.039094  0.564550  1
  Si  Si25  1  0.958532  0.293061  0.934385  1
  Si  Si26  1  0.041863  0.707776  0.435789  1
  Si  Si27  1  0.704378  0.371592  0.071638  1
  Si  Si28  1  0.128882  0.203581  0.320669  1
  Si  Si29  1  0.869488  0.797776  0.821299  1
  Si  Si30  1  0.203251  0.128873  0.680657  1
  Si  Si31  1  0.794646  0.872346  0.179341  1
  Si  Si32  1  0.297162  0.629268  0.570121  1
  Si  Si33  1  0.373053  0.701488  0.927297  1
  Si  Si34  1  0.628762  0.295179  0.429178  1
  P  P35  1  0.293239  0.961212  0.064109  1
