# generated using pymatgen
data_Y4Ho8Co5Pb
_symmetry_space_group_name_H-M   'P 1'
_cell_length_a   8.28471056
_cell_length_b   8.28438363
_cell_length_c   8.28471082
_cell_angle_alpha   110.63856699
_cell_angle_beta   110.81280726
_cell_angle_gamma   106.99198572
_symmetry_Int_Tables_number   1
_chemical_formula_structural   Y4Ho8Co5Pb
_chemical_formula_sum   'Y4 Ho8 Co5 Pb1'
_cell_volume   437.09556649
_cell_formula_units_Z   1
loop_
 _symmetry_equiv_pos_site_id
 _symmetry_equiv_pos_as_xyz
  1  'x, y, z'
loop_
 _atom_site_type_symbol
 _atom_site_label
 _atom_site_symmetry_multiplicity
 _atom_site_fract_x
 _atom_site_fract_y
 _atom_site_fract_z
 _atom_site_occupancy
  Y  Y0  1  0.813496  0.710235  0.523721  1
  Y  Y1  1  0.186504  0.289765  0.476279  1
  Y  Y2  1  0.186515  0.710235  0.896739  1
  Y  Y3  1  0.813485  0.289765  0.103261  1
  Ho  Ho4  1  0.687480  0.379458  0.691979  1
  Ho  Ho5  1  0.312520  0.620542  0.308021  1
  Ho  Ho6  1  0.687484  0.995485  0.308001  1
  Ho  Ho7  1  0.312516  0.004515  0.691999  1
  Ho  Ho8  1  0.598903  0.791785  0.807137  1
  Ho  Ho9  1  0.401097  0.208215  0.192863  1
  Ho  Ho10  1  0.984647  0.791785  0.192882  1
  Ho  Ho11  1  0.015353  0.208215  0.807118  1
  Co  Co12  1  0.622068  0.000000  0.622068  1
  Co  Co13  1  0.377932  0.000000  0.377932  1
  Co  Co14  1  0.112000  0.612000  0.499999  1
  Co  Co15  1  0.888000  0.388000  0.500001  1
  Co  Co16  1  0.000000  0.000000  0.000000  1
  Pb  Pb17  1  0.500000  0.500000  0.000000  1
