# generated using pymatgen
data_NdCo2(NiAs)3
_symmetry_space_group_name_H-M   'P 1'
_cell_length_a   3.88949500
_cell_length_b   10.82106400
_cell_length_c   12.31848100
_cell_angle_alpha   90.00000000
_cell_angle_beta   90.00000000
_cell_angle_gamma   90.00000000
_symmetry_Int_Tables_number   1
_chemical_formula_structural   NdCo2(NiAs)3
_chemical_formula_sum   'Nd4 Co8 Ni12 As12'
_cell_volume   518.46607126
_cell_formula_units_Z   4
loop_
 _symmetry_equiv_pos_site_id
 _symmetry_equiv_pos_as_xyz
  1  'x, y, z'
loop_
 _atom_site_type_symbol
 _atom_site_label
 _atom_site_symmetry_multiplicity
 _atom_site_fract_x
 _atom_site_fract_y
 _atom_site_fract_z
 _atom_site_occupancy
  Nd  Nd0  1  0.250000  0.918104  0.201898  1
  Nd  Nd1  1  0.750000  0.081896  0.798102  1
  Nd  Nd2  1  0.750000  0.418104  0.298102  1
  Nd  Nd3  1  0.250000  0.581896  0.701898  1
  Co  Co4  1  0.250000  0.618536  0.195294  1
  Co  Co5  1  0.750000  0.381464  0.804706  1
  Co  Co6  1  0.750000  0.118536  0.304706  1
  Co  Co7  1  0.250000  0.881464  0.695294  1
  Co  Co8  1  0.250000  0.028839  0.433155  1
  Co  Co9  1  0.750000  0.971161  0.566845  1
  Co  Co10  1  0.750000  0.528839  0.066845  1
  Co  Co11  1  0.250000  0.471161  0.933155  1
  Ni  Ni12  1  0.250000  0.793282  0.491628  1
  Ni  Ni13  1  0.750000  0.206718  0.508372  1
  Ni  Ni14  1  0.750000  0.293282  0.008372  1
  Ni  Ni15  1  0.250000  0.706718  0.991628  1
  Ni  Ni16  1  0.250000  0.092117  0.988894  1
  Ni  Ni17  1  0.750000  0.907883  0.011106  1
  Ni  Ni18  1  0.750000  0.592117  0.511106  1
  Ni  Ni19  1  0.250000  0.407883  0.488894  1
  Ni  Ni20  1  0.250000  0.282859  0.677460  1
  Ni  Ni21  1  0.750000  0.717141  0.322540  1
  Ni  Ni22  1  0.750000  0.782859  0.822540  1
  Ni  Ni23  1  0.250000  0.217141  0.177460  1
  As  As24  1  0.250000  0.080613  0.613356  1
  As  As25  1  0.750000  0.919387  0.386644  1
  As  As26  1  0.750000  0.580613  0.886644  1
  As  As27  1  0.250000  0.419387  0.113356  1
  As  As28  1  0.250000  0.225644  0.370250  1
  As  As29  1  0.750000  0.774356  0.629750  1
  As  As30  1  0.750000  0.725644  0.129750  1
  As  As31  1  0.250000  0.274356  0.870250  1
  As  As32  1  0.250000  0.893967  0.890902  1
  As  As33  1  0.750000  0.106033  0.109098  1
  As  As34  1  0.750000  0.393967  0.609098  1
  As  As35  1  0.250000  0.606033  0.390902  1
