# generated using pymatgen
data_Tm6CdTe2
_symmetry_space_group_name_H-M   'P 1'
_cell_length_a   4.08449600
_cell_length_b   21.61825100
_cell_length_c   11.48156300
_cell_angle_alpha   90.00000000
_cell_angle_beta   90.00000000
_cell_angle_gamma   90.00000000
_symmetry_Int_Tables_number   1
_chemical_formula_structural   Tm6CdTe2
_chemical_formula_sum   'Tm24 Cd4 Te8'
_cell_volume   1013.81810614
_cell_formula_units_Z   4
loop_
 _symmetry_equiv_pos_site_id
 _symmetry_equiv_pos_as_xyz
  1  'x, y, z'
loop_
 _atom_site_type_symbol
 _atom_site_label
 _atom_site_symmetry_multiplicity
 _atom_site_fract_x
 _atom_site_fract_y
 _atom_site_fract_z
 _atom_site_occupancy
  Tm  Tm0  1  0.750000  0.640174  0.937589  1
  Tm  Tm1  1  0.250000  0.359826  0.062411  1
  Tm  Tm2  1  0.250000  0.859826  0.437589  1
  Tm  Tm3  1  0.750000  0.140174  0.562411  1
  Tm  Tm4  1  0.750000  0.991118  0.390157  1
  Tm  Tm5  1  0.250000  0.008882  0.609843  1
  Tm  Tm6  1  0.250000  0.508882  0.890157  1
  Tm  Tm7  1  0.750000  0.491118  0.109843  1
  Tm  Tm8  1  0.750000  0.530771  0.628068  1
  Tm  Tm9  1  0.250000  0.469229  0.371932  1
  Tm  Tm10  1  0.250000  0.969229  0.128068  1
  Tm  Tm11  1  0.750000  0.030771  0.871932  1
  Tm  Tm12  1  0.750000  0.732032  0.258225  1
  Tm  Tm13  1  0.250000  0.267968  0.741775  1
  Tm  Tm14  1  0.250000  0.767968  0.758225  1
  Tm  Tm15  1  0.750000  0.232032  0.241775  1
  Tm  Tm16  1  0.750000  0.891118  0.678196  1
  Tm  Tm17  1  0.250000  0.108882  0.321804  1
  Tm  Tm18  1  0.250000  0.608882  0.178196  1
  Tm  Tm19  1  0.750000  0.391118  0.821804  1
  Tm  Tm20  1  0.750000  0.836912  0.976157  1
  Tm  Tm21  1  0.250000  0.163088  0.023843  1
  Tm  Tm22  1  0.250000  0.663088  0.476157  1
  Tm  Tm23  1  0.750000  0.336912  0.523843  1
  Cd  Cd24  1  0.750000  0.576804  0.368613  1
  Cd  Cd25  1  0.250000  0.423196  0.631387  1
  Cd  Cd26  1  0.250000  0.923196  0.868613  1
  Cd  Cd27  1  0.750000  0.076804  0.131387  1
  Te  Te28  1  0.750000  0.873189  0.232574  1
  Te  Te29  1  0.250000  0.126811  0.767426  1
  Te  Te30  1  0.250000  0.626811  0.732574  1
  Te  Te31  1  0.750000  0.373189  0.267426  1
  Te  Te32  1  0.750000  0.764500  0.543586  1
  Te  Te33  1  0.250000  0.235500  0.456414  1
  Te  Te34  1  0.250000  0.735500  0.043586  1
  Te  Te35  1  0.750000  0.264500  0.956414  1
