# generated using pymatgen
data_Sc4Si6NiRh6
_symmetry_space_group_name_H-M   'P 1'
_cell_length_a   6.94274078
_cell_length_b   6.94274751
_cell_length_c   6.94274009
_cell_angle_alpha   109.32032205
_cell_angle_beta   109.32116085
_cell_angle_gamma   109.77253639
_symmetry_Int_Tables_number   1
_chemical_formula_structural   Sc4Si6NiRh6
_chemical_formula_sum   'Sc4 Si6 Ni1 Rh6'
_cell_volume   257.60996754
_cell_formula_units_Z   1
loop_
 _symmetry_equiv_pos_site_id
 _symmetry_equiv_pos_as_xyz
  1  'x, y, z'
loop_
 _atom_site_type_symbol
 _atom_site_label
 _atom_site_symmetry_multiplicity
 _atom_site_fract_x
 _atom_site_fract_y
 _atom_site_fract_z
 _atom_site_occupancy
  Sc  Sc0  1  0.001143  0.998857  0.499999  1
  Sc  Sc1  1  0.001141  0.501142  0.002284  1
  Sc  Sc2  1  0.498858  0.998857  0.997715  1
  Sc  Sc3  1  0.498857  0.501142  0.500000  1
  Si  Si4  1  0.682329  0.682328  0.999999  1
  Si  Si5  1  0.326040  0.003809  0.322231  1
  Si  Si6  1  0.996194  0.318427  0.322233  1
  Si  Si7  1  0.317670  0.317671  0.000001  1
  Si  Si8  1  0.681578  0.003809  0.677769  1
  Si  Si9  1  0.996193  0.673959  0.677766  1
  Ni  Ni10  1  0.749997  0.250000  0.500003  1
  Rh  Rh11  1  0.746235  0.495327  0.250907  1
  Rh  Rh12  1  0.504671  0.253764  0.749093  1
  Rh  Rh13  1  0.244419  0.495327  0.749092  1
  Rh  Rh14  1  0.250001  0.750002  0.500000  1
  Rh  Rh15  1  0.504672  0.755580  0.250907  1
  Rh  Rh16  1  0.000002  0.000001  0.999999  1
