# generated using pymatgen
data_Si6(IrRu)5
_symmetry_space_group_name_H-M   'P 1'
_cell_length_a   3.98073500
_cell_length_b   5.32762104
_cell_length_c   10.19100109
_cell_angle_alpha   90.01418782
_cell_angle_beta   90.00000000
_cell_angle_gamma   90.00000000
_symmetry_Int_Tables_number   1
_chemical_formula_structural   Si6(IrRu)5
_chemical_formula_sum   'Si6 Ir5 Ru5'
_cell_volume   216.12919057
_cell_formula_units_Z   1
loop_
 _symmetry_equiv_pos_site_id
 _symmetry_equiv_pos_as_xyz
  1  'x, y, z'
loop_
 _atom_site_type_symbol
 _atom_site_label
 _atom_site_symmetry_multiplicity
 _atom_site_fract_x
 _atom_site_fract_y
 _atom_site_fract_z
 _atom_site_occupancy
  Si  Si0  1  0.000000  0.496398  0.502540  1
  Si  Si1  1  0.000000  0.998068  0.999355  1
  Si  Si2  1  0.500000  0.890701  0.355554  1
  Si  Si3  1  0.500000  0.112351  0.648873  1
  Si  Si4  1  0.500000  0.380763  0.141463  1
  Si  Si5  1  0.500000  0.612417  0.851673  1
  Ir  Ir6  1  0.000000  0.655230  0.280741  1
  Ir  Ir7  1  0.500000  0.832974  0.110771  1
  Ir  Ir8  1  0.500000  0.165084  0.892539  1
  Ir  Ir9  1  0.500000  0.337957  0.388755  1
  Ir  Ir10  1  0.500000  0.666253  0.607561  1
  Ru  Ru11  1  0.000000  0.501343  0.999053  1
  Ru  Ru12  1  0.000000  0.003537  0.500121  1
  Ru  Ru13  1  0.000000  0.345273  0.722466  1
  Ru  Ru14  1  0.000000  0.155889  0.220389  1
  Ru  Ru15  1  0.000000  0.845762  0.778147  1
