# generated using pymatgen
data_BaTh7H30
_symmetry_space_group_name_H-M   'P 1'
_cell_length_a   7.96533949
_cell_length_b   7.96533885
_cell_length_c   7.96533902
_cell_angle_alpha   109.29362406
_cell_angle_beta   109.29361691
_cell_angle_gamma   109.29363112
_symmetry_Int_Tables_number   1
_chemical_formula_structural   BaTh7H30
_chemical_formula_sum   'Ba1 Th7 H30'
_cell_volume   391.57417101
_cell_formula_units_Z   1
loop_
 _symmetry_equiv_pos_site_id
 _symmetry_equiv_pos_as_xyz
  1  'x, y, z'
loop_
 _atom_site_type_symbol
 _atom_site_label
 _atom_site_symmetry_multiplicity
 _atom_site_fract_x
 _atom_site_fract_y
 _atom_site_fract_z
 _atom_site_occupancy
  Ba  Ba0  1  0.924493  0.924493  0.924493  1
  Th  Th1  1  0.500697  0.997913  0.082883  1
  Th  Th2  1  0.997913  0.082883  0.500697  1
  Th  Th3  1  0.082883  0.500697  0.997913  1
  Th  Th4  1  0.002122  0.582919  0.494830  1
  Th  Th5  1  0.582919  0.494830  0.002122  1
  Th  Th6  1  0.494830  0.002122  0.582919  1
  Th  Th7  1  0.421298  0.421298  0.421298  1
  H  H8  1  0.653649  0.978961  0.378800  1
  H  H9  1  0.214936  0.313681  0.844871  1
  H  H10  1  0.183284  0.401215  0.527915  1
  H  H11  1  0.112349  0.315369  0.155454  1
  H  H12  1  0.315369  0.155454  0.112349  1
  H  H13  1  0.155454  0.112349  0.315369  1
  H  H14  1  0.458767  0.149502  0.871228  1
  H  H15  1  0.716185  0.345712  0.816685  1
  H  H16  1  0.635403  0.374040  0.252658  1
  H  H17  1  0.252658  0.635403  0.374040  1
  H  H18  1  0.735573  0.864369  0.144109  1
  H  H19  1  0.144109  0.735573  0.864369  1
  H  H20  1  0.374040  0.252658  0.635403  1
  H  H21  1  0.864369  0.144109  0.735573  1
  H  H22  1  0.775635  0.569919  0.605193  1
  H  H23  1  0.313681  0.844871  0.214936  1
  H  H24  1  0.378800  0.653649  0.978961  1
  H  H25  1  0.978961  0.378800  0.653649  1
  H  H26  1  0.527915  0.183284  0.401215  1
  H  H27  1  0.401215  0.527915  0.183284  1
  H  H28  1  0.844871  0.214936  0.313681  1
  H  H29  1  0.896136  0.663207  0.038041  1
  H  H30  1  0.816685  0.716185  0.345712  1
  H  H31  1  0.149502  0.871228  0.458767  1
  H  H32  1  0.663207  0.038041  0.896136  1
  H  H33  1  0.345712  0.816685  0.716185  1
  H  H34  1  0.871228  0.458767  0.149502  1
  H  H35  1  0.605193  0.775635  0.569919  1
  H  H36  1  0.569919  0.605193  0.775635  1
  H  H37  1  0.038041  0.896136  0.663207  1
