# generated using pymatgen
data_Sc8Zn4CuAu3
_symmetry_space_group_name_H-M   'P 1'
_cell_length_a   6.70073405
_cell_length_b   6.79588303
_cell_length_c   6.70020800
_cell_angle_alpha   90.00298456
_cell_angle_beta   90.00669518
_cell_angle_gamma   89.99585162
_symmetry_Int_Tables_number   1
_chemical_formula_structural   Sc8Zn4CuAu3
_chemical_formula_sum   'Sc8 Zn4 Cu1 Au3'
_cell_volume   305.11008044
_cell_formula_units_Z   1
loop_
 _symmetry_equiv_pos_site_id
 _symmetry_equiv_pos_as_xyz
  1  'x, y, z'
loop_
 _atom_site_type_symbol
 _atom_site_label
 _atom_site_symmetry_multiplicity
 _atom_site_fract_x
 _atom_site_fract_y
 _atom_site_fract_z
 _atom_site_occupancy
  Sc  Sc0  1  0.252869  0.503131  0.247148  1
  Sc  Sc1  1  0.252865  0.996862  0.247145  1
  Sc  Sc2  1  0.747118  0.997713  0.247091  1
  Sc  Sc3  1  0.747116  0.502280  0.247091  1
  Sc  Sc4  1  0.252877  0.503104  0.752848  1
  Sc  Sc5  1  0.252877  0.996890  0.752851  1
  Sc  Sc6  1  0.747116  0.997738  0.752899  1
  Sc  Sc7  1  0.747120  0.502260  0.752897  1
  Zn  Zn8  1  0.000806  0.249998  0.999996  1
  Zn  Zn9  1  0.999173  0.749995  0.999991  1
  Zn  Zn10  1  0.499218  0.249996  0.499942  1
  Zn  Zn11  1  0.500809  0.749999  0.500049  1
  Cu  Cu12  1  0.501017  0.750060  0.999978  1
  Au  Au13  1  0.498943  0.249997  0.000075  1
  Au  Au14  1  0.998913  0.749998  0.499951  1
  Au  Au15  1  0.001162  0.249991  0.500048  1
