# generated using pymatgen
data_K3Sr3AlBi4
_symmetry_space_group_name_H-M   'P 1'
_cell_length_a   11.13264900
_cell_length_b   11.13264852
_cell_length_c   8.16580000
_cell_angle_alpha   90.00000000
_cell_angle_beta   90.00000000
_cell_angle_gamma   120.00000440
_symmetry_Int_Tables_number   1
_chemical_formula_structural   K3Sr3AlBi4
_chemical_formula_sum   'K6 Sr6 Al2 Bi8'
_cell_volume   876.44842584
_cell_formula_units_Z   2
loop_
 _symmetry_equiv_pos_site_id
 _symmetry_equiv_pos_as_xyz
  1  'x, y, z'
loop_
 _atom_site_type_symbol
 _atom_site_label
 _atom_site_symmetry_multiplicity
 _atom_site_fract_x
 _atom_site_fract_y
 _atom_site_fract_z
 _atom_site_occupancy
  K  K0  1  0.860659  0.139341  0.542394  1
  K  K1  1  0.278682  0.139341  0.542394  1
  K  K2  1  0.860659  0.721318  0.542394  1
  K  K3  1  0.139341  0.860659  0.042394  1
  K  K4  1  0.721318  0.860659  0.042394  1
  K  K5  1  0.139341  0.278682  0.042394  1
  Sr  Sr6  1  0.477605  0.522395  0.734811  1
  Sr  Sr7  1  0.044790  0.522395  0.734811  1
  Sr  Sr8  1  0.477605  0.955210  0.734811  1
  Sr  Sr9  1  0.522395  0.477605  0.234811  1
  Sr  Sr10  1  0.955210  0.477605  0.234811  1
  Sr  Sr11  1  0.522395  0.044790  0.234811  1
  Al  Al12  1  0.666667  0.333333  0.853931  1
  Al  Al13  1  0.333333  0.666667  0.353931  1
  Bi  Bi14  1  0.804008  0.195992  0.964638  1
  Bi  Bi15  1  0.391986  0.195992  0.964638  1
  Bi  Bi16  1  0.804008  0.608014  0.964638  1
  Bi  Bi17  1  0.195992  0.804008  0.464638  1
  Bi  Bi18  1  0.608014  0.804008  0.464638  1
  Bi  Bi19  1  0.195992  0.391986  0.464638  1
  Bi  Bi20  1  0.666667  0.333333  0.505907  1
  Bi  Bi21  1  0.333333  0.666667  0.005907  1
