# generated using pymatgen
data_Tb4Lu2Ga3Si
_symmetry_space_group_name_H-M   'P 1'
_cell_length_a   7.57521009
_cell_length_b   7.57521009
_cell_length_c   4.27978700
_cell_angle_alpha   90.00000000
_cell_angle_beta   90.00000000
_cell_angle_gamma   90.39096270
_symmetry_Int_Tables_number   1
_chemical_formula_structural   Tb4Lu2Ga3Si
_chemical_formula_sum   'Tb4 Lu2 Ga3 Si1'
_cell_volume   245.58475754
_cell_formula_units_Z   1
loop_
 _symmetry_equiv_pos_site_id
 _symmetry_equiv_pos_as_xyz
  1  'x, y, z'
loop_
 _atom_site_type_symbol
 _atom_site_label
 _atom_site_symmetry_multiplicity
 _atom_site_fract_x
 _atom_site_fract_y
 _atom_site_fract_z
 _atom_site_occupancy
  Tb  Tb0  1  0.327856  0.174903  0.500000  1
  Tb  Tb1  1  0.820959  0.320959  0.500000  1
  Tb  Tb2  1  0.176538  0.676539  0.500000  1
  Tb  Tb3  1  0.674904  0.827856  0.500000  1
  Lu  Lu4  1  0.997105  0.000220  0.000000  1
  Lu  Lu5  1  0.500220  0.497105  0.000000  1
  Ga  Ga6  1  0.121074  0.378877  0.000000  1
  Ga  Ga7  1  0.878878  0.621073  0.000000  1
  Ga  Ga8  1  0.381757  0.881758  0.000000  1
  Si  Si9  1  0.620707  0.120708  0.000000  1
